MODEL 1
REMARK VINA RESULT:      -8.0      0.000      0.000
REMARK  Name = 
REMARK  7 active torsions:
REMARK  status: ('A' for Active; 'I' for Inactive)
REMARK    1  A    between atoms: C_1  and  C_2
REMARK    2  A    between atoms: C_2  and  O_3
REMARK    3  A    between atoms: O_3  and  C_4
REMARK    4  A    between atoms: C_9  and  C_10
REMARK    5  A    between atoms: C_12  and  N_13
REMARK    6  A    between atoms: C_14  and  C_16
REMARK    7  A    between atoms: C_16  and  C_17
REMARK                            x       y       z     vdW  Elec       q    Type
REMARK                         _______ _______ _______ _____ _____    ______ ____
ROOT
ATOM      1  C   UNL     1       8.879   9.768  18.424  0.00  0.00    +0.000 A 
ATOM      2  C   UNL     1       8.675   8.393  18.753  0.00  0.00    +0.000 A 
ATOM      3  C   UNL     1       7.586   7.988  18.010  0.00  0.00    +0.000 A 
ATOM      4  O   UNL     1       7.147   9.049  17.286  0.00  0.00    +0.000 OA
ATOM      5  N   UNL     1       7.942  10.148  17.533  0.00  0.00    +0.000 NA
ENDROOT
BRANCH   1  11
ATOM      6  C   UNL     1      10.017  11.269  20.169  0.00  0.00    +0.000 A 
ATOM      7  C   UNL     1      11.047  12.192  20.458  0.00  0.00    +0.000 A 
ATOM      8  C   UNL     1      11.965  12.591  19.489  0.00  0.00    +0.000 A 
ATOM      9  C   UNL     1      11.876  12.069  18.210  0.00  0.00    +0.000 A 
ATOM     10  C   UNL     1      10.870  11.151  17.906  0.00  0.00    +0.000 A 
ATOM     11  C   UNL     1       9.916  10.729  18.866  0.00  0.00    +0.000 A 
BRANCH   6  12
ATOM     12  O   UNL     1       9.087  10.888  21.110  0.00  0.00    +0.000 OA
BRANCH  12  14
ATOM     13  C   UNL     1       8.273  11.608  23.259  0.00  0.00    +0.000 C 
ATOM     14  C   UNL     1       8.402  11.947  21.788  0.00  0.00    +0.000 C 
ENDBRANCH  12  14
ENDBRANCH   6  12
ENDBRANCH   1  11
BRANCH   3  15
ATOM     15  N   UNL     1       6.951   6.764  17.912  0.00  0.00    +0.000 N 
ATOM     16  C   UNL     1       7.028   5.939  16.799  0.00  0.00    +0.000 C 
ATOM     17  O   UNL     1       7.714   6.169  15.801  0.00  0.00    +0.000 OA
ATOM     18  H   UNL     1       6.418   6.448  18.717  0.00  0.00    +0.000 HD
BRANCH  16  19
ATOM     19  C   UNL     1       6.260   4.609  16.866  0.00  0.00    +0.000 C 
BRANCH  19  20
ATOM     20  C   UNL     1       4.822   4.716  17.250  0.00  0.00    +0.000 A 
ATOM     21  N   UNL     1       4.256   5.935  17.207  0.00  0.00    +0.000 NA
ATOM     22  O   UNL     1       2.938   5.757  17.563  0.00  0.00    +0.000 OA
ATOM     23  C   UNL     1       2.710   4.452  17.841  0.00  0.00    +0.000 A 
ATOM     24  C   UNL     1       1.479   3.916  18.213  0.00  0.00    +0.000 A 
ATOM     25  C   UNL     1       1.452   2.545  18.466  0.00  0.00    +0.000 A 
ATOM     26  C   UNL     1       2.614   1.774  18.368  0.00  0.00    +0.000 A 
ATOM     27  C   UNL     1       3.845   2.349  17.986  0.00  0.00    +0.000 A 
ATOM     28  C   UNL     1       3.886   3.732  17.694  0.00  0.00    +0.000 A 
ENDBRANCH  19  20
ENDBRANCH  16  19
ENDBRANCH   3  15
TORSDOF 6
ENDMDL
MODEL 2
REMARK VINA RESULT:      -7.9      5.268      7.560
REMARK  Name = 
REMARK  7 active torsions:
REMARK  status: ('A' for Active; 'I' for Inactive)
REMARK    1  A    between atoms: C_1  and  C_2
REMARK    2  A    between atoms: C_2  and  O_3
REMARK    3  A    between atoms: O_3  and  C_4
REMARK    4  A    between atoms: C_9  and  C_10
REMARK    5  A    between atoms: C_12  and  N_13
REMARK    6  A    between atoms: C_14  and  C_16
REMARK    7  A    between atoms: C_16  and  C_17
REMARK                            x       y       z     vdW  Elec       q    Type
REMARK                         _______ _______ _______ _____ _____    ______ ____
ROOT
ATOM      1  C   UNL     1       1.109   8.959  20.460  0.00  0.00    +0.000 A 
ATOM      2  C   UNL     1       1.766   7.766  20.891  0.00  0.00    +0.000 A 
ATOM      3  C   UNL     1       2.360   7.238  19.765  0.00  0.00    +0.000 A 
ATOM      4  O   UNL     1       2.073   8.048  18.713  0.00  0.00    +0.000 OA
ATOM      5  N   UNL     1       1.306   9.112  19.136  0.00  0.00    +0.000 NA
ENDROOT
BRANCH   1  11
ATOM      6  C   UNL     1       0.238  11.341  20.863  0.00  0.00    +0.000 A 
ATOM      7  C   UNL     1      -0.511  12.214  21.683  0.00  0.00    +0.000 A 
ATOM      8  C   UNL     1      -1.145  11.766  22.841  0.00  0.00    +0.000 A 
ATOM      9  C   UNL     1      -1.048  10.433  23.199  0.00  0.00    +0.000 A 
ATOM     10  C   UNL     1      -0.318   9.553  22.398  0.00  0.00    +0.000 A 
ATOM     11  C   UNL     1       0.344   9.976  21.219  0.00  0.00    +0.000 A 
BRANCH   6  12
ATOM     12  O   UNL     1       0.891  11.776  19.732  0.00  0.00    +0.000 OA
BRANCH  12  14
ATOM     13  C   UNL     1       2.556  13.131  18.640  0.00  0.00    +0.000 C 
ATOM     14  C   UNL     1       1.712  12.939  19.883  0.00  0.00    +0.000 C 
ENDBRANCH  12  14
ENDBRANCH   6  12
ENDBRANCH   1  11
BRANCH   3  15
ATOM     15  N   UNL     1       3.136   6.108  19.585  0.00  0.00    +0.000 N 
ATOM     16  C   UNL     1       2.629   4.817  19.562  0.00  0.00    +0.000 C 
ATOM     17  O   UNL     1       1.431   4.532  19.636  0.00  0.00    +0.000 OA
ATOM     18  H   UNL     1       4.132   6.243  19.439  0.00  0.00    +0.000 HD
BRANCH  16  19
ATOM     19  C   UNL     1       3.637   3.678  19.348  0.00  0.00    +0.000 C 
BRANCH  19  20
ATOM     20  C   UNL     1       4.922   4.071  18.697  0.00  0.00    +0.000 A 
ATOM     21  N   UNL     1       5.965   4.348  19.497  0.00  0.00    +0.000 NA
ATOM     22  O   UNL     1       7.021   4.639  18.663  0.00  0.00    +0.000 OA
ATOM     23  C   UNL     1       6.619   4.564  17.372  0.00  0.00    +0.000 A 
ATOM     24  C   UNL     1       7.438   4.777  16.266  0.00  0.00    +0.000 A 
ATOM     25  C   UNL     1       6.832   4.660  15.015  0.00  0.00    +0.000 A 
ATOM     26  C   UNL     1       5.470   4.368  14.903  0.00  0.00    +0.000 A 
ATOM     27  C   UNL     1       4.669   4.156  16.046  0.00  0.00    +0.000 A 
ATOM     28  C   UNL     1       5.273   4.237  17.321  0.00  0.00    +0.000 A 
ENDBRANCH  19  20
ENDBRANCH  16  19
ENDBRANCH   3  15
TORSDOF 6
ENDMDL
MODEL 3
REMARK VINA RESULT:      -7.9      5.593      7.771
REMARK  Name = 
REMARK  7 active torsions:
REMARK  status: ('A' for Active; 'I' for Inactive)
REMARK    1  A    between atoms: C_1  and  C_2
REMARK    2  A    between atoms: C_2  and  O_3
REMARK    3  A    between atoms: O_3  and  C_4
REMARK    4  A    between atoms: C_9  and  C_10
REMARK    5  A    between atoms: C_12  and  N_13
REMARK    6  A    between atoms: C_14  and  C_16
REMARK    7  A    between atoms: C_16  and  C_17
REMARK                            x       y       z     vdW  Elec       q    Type
REMARK                         _______ _______ _______ _____ _____    ______ ____
ROOT
ATOM      1  C   UNL     1       1.811   8.443  19.173  0.00  0.00    +0.000 A 
ATOM      2  C   UNL     1       2.392   7.140  19.098  0.00  0.00    +0.000 A 
ATOM      3  C   UNL     1       3.042   7.090  17.882  0.00  0.00    +0.000 A 
ATOM      4  O   UNL     1       2.859   8.279  17.253  0.00  0.00    +0.000 OA
ATOM      5  N   UNL     1       2.105   9.118  18.044  0.00  0.00    +0.000 NA
ENDROOT
BRANCH   1  11
ATOM      6  C   UNL     1       0.031  10.076  20.043  0.00  0.00    +0.000 A 
ATOM      7  C   UNL     1      -0.627  10.639  21.160  0.00  0.00    +0.000 A 
ATOM      8  C   UNL     1      -0.309  10.261  22.463  0.00  0.00    +0.000 A 
ATOM      9  C   UNL     1       0.670   9.306  22.677  0.00  0.00    +0.000 A 
ATOM     10  C   UNL     1       1.328   8.734  21.587  0.00  0.00    +0.000 A 
ATOM     11  C   UNL     1       1.033   9.100  20.249  0.00  0.00    +0.000 A 
BRANCH   6  12
ATOM     12  O   UNL     1      -0.254  10.461  18.752  0.00  0.00    +0.000 OA
BRANCH  12  14
ATOM     13  C   UNL     1      -1.839   9.877  17.036  0.00  0.00    +0.000 C 
ATOM     14  C   UNL     1      -1.641  10.509  18.398  0.00  0.00    +0.000 C 
ENDBRANCH  12  14
ENDBRANCH   6  12
ENDBRANCH   1  11
BRANCH   3  15
ATOM     15  N   UNL     1       3.786   6.089  17.285  0.00  0.00    +0.000 N 
ATOM     16  C   UNL     1       3.751   4.760  17.677  0.00  0.00    +0.000 C 
ATOM     17  O   UNL     1       3.015   4.307  18.557  0.00  0.00    +0.000 OA
ATOM     18  H   UNL     1       4.372   6.351  16.496  0.00  0.00    +0.000 HD
BRANCH  16  19
ATOM     19  C   UNL     1       4.642   3.781  16.897  0.00  0.00    +0.000 C 
BRANCH  19  20
ATOM     20  C   UNL     1       5.680   4.410  16.029  0.00  0.00    +0.000 A 
ATOM     21  N   UNL     1       6.495   5.318  16.592  0.00  0.00    +0.000 NA
ATOM     22  O   UNL     1       7.372   5.710  15.606  0.00  0.00    +0.000 OA
ATOM     23  C   UNL     1       7.080   5.066  14.451  0.00  0.00    +0.000 A 
ATOM     24  C   UNL     1       7.782   5.209  13.257  0.00  0.00    +0.000 A 
ATOM     25  C   UNL     1       7.319   4.463  12.173  0.00  0.00    +0.000 A 
ATOM     26  C   UNL     1       6.195   3.641  12.297  0.00  0.00    +0.000 A 
ATOM     27  C   UNL     1       5.508   3.518  13.524  0.00  0.00    +0.000 A 
ATOM     28  C   UNL     1       5.983   4.241  14.642  0.00  0.00    +0.000 A 
ENDBRANCH  19  20
ENDBRANCH  16  19
ENDBRANCH   3  15
TORSDOF 6
ENDMDL
MODEL 4
REMARK VINA RESULT:      -7.8      5.964      9.301
REMARK  Name = 
REMARK  7 active torsions:
REMARK  status: ('A' for Active; 'I' for Inactive)
REMARK    1  A    between atoms: C_1  and  C_2
REMARK    2  A    between atoms: C_2  and  O_3
REMARK    3  A    between atoms: O_3  and  C_4
REMARK    4  A    between atoms: C_9  and  C_10
REMARK    5  A    between atoms: C_12  and  N_13
REMARK    6  A    between atoms: C_14  and  C_16
REMARK    7  A    between atoms: C_16  and  C_17
REMARK                            x       y       z     vdW  Elec       q    Type
REMARK                         _______ _______ _______ _____ _____    ______ ____
ROOT
ATOM      1  C   UNL     1       2.881   7.073  18.322  0.00  0.00    +0.000 A 
ATOM      2  C   UNL     1       2.218   8.247  17.849  0.00  0.00    +0.000 A 
ATOM      3  C   UNL     1       1.662   8.837  18.964  0.00  0.00    +0.000 A 
ATOM      4  O   UNL     1       1.955   8.068  20.043  0.00  0.00    +0.000 OA
ATOM      5  N   UNL     1       2.709   6.981  19.655  0.00  0.00    +0.000 NA
ENDROOT
BRANCH   1  11
ATOM      6  C   UNL     1       3.575   4.661  17.781  0.00  0.00    +0.000 A 
ATOM      7  C   UNL     1       4.421   3.799  17.047  0.00  0.00    +0.000 A 
ATOM      8  C   UNL     1       5.374   4.293  16.158  0.00  0.00    +0.000 A 
ATOM      9  C   UNL     1       5.496   5.660  15.979  0.00  0.00    +0.000 A 
ATOM     10  C   UNL     1       4.665   6.527  16.689  0.00  0.00    +0.000 A 
ATOM     11  C   UNL     1       3.690   6.059  17.606  0.00  0.00    +0.000 A 
BRANCH   6  12
ATOM     12  O   UNL     1       2.649   4.187  18.683  0.00  0.00    +0.000 OA
BRANCH  12  14
ATOM     13  C   UNL     1       1.119   2.329  18.759  0.00  0.00    +0.000 C 
ATOM     14  C   UNL     1       1.434   3.670  18.129  0.00  0.00    +0.000 C 
ENDBRANCH  12  14
ENDBRANCH   6  12
ENDBRANCH   1  11
BRANCH   3  15
ATOM     15  N   UNL     1       0.924   9.997  19.112  0.00  0.00    +0.000 N 
ATOM     16  C   UNL     1      -0.113  10.144  20.022  0.00  0.00    +0.000 C 
ATOM     17  O   UNL     1      -0.455   9.287  20.840  0.00  0.00    +0.000 OA
ATOM     18  H   UNL     1       1.180  10.791  18.531  0.00  0.00    +0.000 HD
BRANCH  16  19
ATOM     19  C   UNL     1      -0.822  11.507  20.053  0.00  0.00    +0.000 C 
BRANCH  19  20
ATOM     20  C   UNL     1      -2.082  11.593  19.258  0.00  0.00    +0.000 A 
ATOM     21  N   UNL     1      -3.104  12.289  19.786  0.00  0.00    +0.000 NA
ATOM     22  O   UNL     1      -4.116  12.250  18.854  0.00  0.00    +0.000 OA
ATOM     23  C   UNL     1      -3.725  11.519  17.783  0.00  0.00    +0.000 A 
ATOM     24  C   UNL     1      -4.495  11.293  16.645  0.00  0.00    +0.000 A 
ATOM     25  C   UNL     1      -3.914  10.505  15.651  0.00  0.00    +0.000 A 
ATOM     26  C   UNL     1      -2.637   9.964  15.821  0.00  0.00    +0.000 A 
ATOM     27  C   UNL     1      -1.883  10.215  16.987  0.00  0.00    +0.000 A 
ATOM     28  C   UNL     1      -2.441  11.038  17.991  0.00  0.00    +0.000 A 
ENDBRANCH  19  20
ENDBRANCH  16  19
ENDBRANCH   3  15
TORSDOF 6
ENDMDL
MODEL 5
REMARK VINA RESULT:      -7.7      5.365      8.080
REMARK  Name = 
REMARK  7 active torsions:
REMARK  status: ('A' for Active; 'I' for Inactive)
REMARK    1  A    between atoms: C_1  and  C_2
REMARK    2  A    between atoms: C_2  and  O_3
REMARK    3  A    between atoms: O_3  and  C_4
REMARK    4  A    between atoms: C_9  and  C_10
REMARK    5  A    between atoms: C_12  and  N_13
REMARK    6  A    between atoms: C_14  and  C_16
REMARK    7  A    between atoms: C_16  and  C_17
REMARK                            x       y       z     vdW  Elec       q    Type
REMARK                         _______ _______ _______ _____ _____    ______ ____
ROOT
ATOM      1  C   UNL     1       0.720   9.590  20.101  0.00  0.00    +0.000 A 
ATOM      2  C   UNL     1       1.815   8.793  19.647  0.00  0.00    +0.000 A 
ATOM      3  C   UNL     1       1.791   7.650  20.419  0.00  0.00    +0.000 A 
ATOM      4  O   UNL     1       0.758   7.751  21.295  0.00  0.00    +0.000 OA
ATOM      5  N   UNL     1       0.092   8.941  21.101  0.00  0.00    +0.000 NA
ENDROOT
BRANCH   1  11
ATOM      6  C   UNL     1      -0.613  11.086  18.495  0.00  0.00    +0.000 A 
ATOM      7  C   UNL     1      -1.019  12.392  18.141  0.00  0.00    +0.000 A 
ATOM      8  C   UNL     1      -0.623  13.506  18.880  0.00  0.00    +0.000 A 
ATOM      9  C   UNL     1       0.182  13.335  19.993  0.00  0.00    +0.000 A 
ATOM     10  C   UNL     1       0.588  12.052  20.362  0.00  0.00    +0.000 A 
ATOM     11  C   UNL     1       0.210  10.899  19.630  0.00  0.00    +0.000 A 
BRANCH   6  12
ATOM     12  O   UNL     1      -0.974   9.980  17.758  0.00  0.00    +0.000 OA
BRANCH  12  14
ATOM     13  C   UNL     1      -3.352   9.651  17.573  0.00  0.00    +0.000 C 
ATOM     14  C   UNL     1      -2.096  10.141  16.883  0.00  0.00    +0.000 C 
ENDBRANCH  12  14
ENDBRANCH   6  12
ENDBRANCH   1  11
BRANCH   3  15
ATOM     15  N   UNL     1       2.597   6.527  20.414  0.00  0.00    +0.000 N 
ATOM     16  C   UNL     1       2.609   5.588  19.393  0.00  0.00    +0.000 C 
ATOM     17  O   UNL     1       1.954   5.674  18.353  0.00  0.00    +0.000 OA
ATOM     18  H   UNL     1       3.232   6.405  21.198  0.00  0.00    +0.000 HD
BRANCH  16  19
ATOM     19  C   UNL     1       3.573   4.402  19.552  0.00  0.00    +0.000 C 
BRANCH  19  20
ATOM     20  C   UNL     1       4.898   4.557  18.882  0.00  0.00    +0.000 A 
ATOM     21  N   UNL     1       5.967   4.789  19.662  0.00  0.00    +0.000 NA
ATOM     22  O   UNL     1       7.052   4.851  18.817  0.00  0.00    +0.000 OA
ATOM     23  C   UNL     1       6.646   4.683  17.537  0.00  0.00    +0.000 A 
ATOM     24  C   UNL     1       7.487   4.667  16.427  0.00  0.00    +0.000 A 
ATOM     25  C   UNL     1       6.873   4.489  15.187  0.00  0.00    +0.000 A 
ATOM     26  C   UNL     1       5.484   4.357  15.087  0.00  0.00    +0.000 A 
ATOM     27  C   UNL     1       4.662   4.376  16.234  0.00  0.00    +0.000 A 
ATOM     28  C   UNL     1       5.269   4.523  17.501  0.00  0.00    +0.000 A 
ENDBRANCH  19  20
ENDBRANCH  16  19
ENDBRANCH   3  15
TORSDOF 6
ENDMDL
MODEL 6
REMARK VINA RESULT:      -7.7      5.323      7.703
REMARK  Name = 
REMARK  7 active torsions:
REMARK  status: ('A' for Active; 'I' for Inactive)
REMARK    1  A    between atoms: C_1  and  C_2
REMARK    2  A    between atoms: C_2  and  O_3
REMARK    3  A    between atoms: O_3  and  C_4
REMARK    4  A    between atoms: C_9  and  C_10
REMARK    5  A    between atoms: C_12  and  N_13
REMARK    6  A    between atoms: C_14  and  C_16
REMARK    7  A    between atoms: C_16  and  C_17
REMARK                            x       y       z     vdW  Elec       q    Type
REMARK                         _______ _______ _______ _____ _____    ______ ____
ROOT
ATOM      1  C   UNL     1       0.864   9.134  19.372  0.00  0.00    +0.000 A 
ATOM      2  C   UNL     1       1.755   8.216  18.736  0.00  0.00    +0.000 A 
ATOM      3  C   UNL     1       2.230   7.398  19.740  0.00  0.00    +0.000 A 
ATOM      4  O   UNL     1       1.675   7.800  20.912  0.00  0.00    +0.000 OA
ATOM      5  N   UNL     1       0.830   8.865  20.692  0.00  0.00    +0.000 NA
ENDROOT
BRANCH   1  11
ATOM      6  C   UNL     1       0.138  11.586  19.143  0.00  0.00    +0.000 A 
ATOM      7  C   UNL     1      -0.742  12.519  18.549  0.00  0.00    +0.000 A 
ATOM      8  C   UNL     1      -1.729  12.122  17.648  0.00  0.00    +0.000 A 
ATOM      9  C   UNL     1      -1.852  10.784  17.316  0.00  0.00    +0.000 A 
ATOM     10  C   UNL     1      -0.989   9.848  17.887  0.00  0.00    +0.000 A 
ATOM     11  C   UNL     1       0.021  10.215  18.812  0.00  0.00    +0.000 A 
BRANCH   6  12
ATOM     12  O   UNL     1       1.098  11.960  20.055  0.00  0.00    +0.000 OA
BRANCH  12  14
ATOM     13  C   UNL     1      -0.325  12.104  21.992  0.00  0.00    +0.000 C 
ATOM     14  C   UNL     1       0.667  12.830  21.107  0.00  0.00    +0.000 C 
ENDBRANCH  12  14
ENDBRANCH   6  12
ENDBRANCH   1  11
BRANCH   3  15
ATOM     15  N   UNL     1       3.105   6.328  19.710  0.00  0.00    +0.000 N 
ATOM     16  C   UNL     1       2.708   5.001  19.781  0.00  0.00    +0.000 C 
ATOM     17  O   UNL     1       1.535   4.621  19.817  0.00  0.00    +0.000 OA
ATOM     18  H   UNL     1       4.094   6.537  19.606  0.00  0.00    +0.000 HD
BRANCH  16  19
ATOM     19  C   UNL     1       3.817   3.940  19.729  0.00  0.00    +0.000 C 
BRANCH  19  20
ATOM     20  C   UNL     1       5.045   4.330  18.977  0.00  0.00    +0.000 A 
ATOM     21  N   UNL     1       6.096   4.774  19.688  0.00  0.00    +0.000 NA
ATOM     22  O   UNL     1       7.097   5.026  18.777  0.00  0.00    +0.000 OA
ATOM     23  C   UNL     1       6.654   4.761  17.525  0.00  0.00    +0.000 A 
ATOM     24  C   UNL     1       7.414   4.885  16.365  0.00  0.00    +0.000 A 
ATOM     25  C   UNL     1       6.772   4.571  15.168  0.00  0.00    +0.000 A 
ATOM     26  C   UNL     1       5.431   4.178  15.155  0.00  0.00    +0.000 A 
ATOM     27  C   UNL     1       4.690   4.061  16.350  0.00  0.00    +0.000 A 
ATOM     28  C   UNL     1       5.333   4.343  17.577  0.00  0.00    +0.000 A 
ENDBRANCH  19  20
ENDBRANCH  16  19
ENDBRANCH   3  15
TORSDOF 6
ENDMDL
MODEL 7
REMARK VINA RESULT:      -7.7      6.834     10.158
REMARK  Name = 
REMARK  7 active torsions:
REMARK  status: ('A' for Active; 'I' for Inactive)
REMARK    1  A    between atoms: C_1  and  C_2
REMARK    2  A    between atoms: C_2  and  O_3
REMARK    3  A    between atoms: O_3  and  C_4
REMARK    4  A    between atoms: C_9  and  C_10
REMARK    5  A    between atoms: C_12  and  N_13
REMARK    6  A    between atoms: C_14  and  C_16
REMARK    7  A    between atoms: C_16  and  C_17
REMARK                            x       y       z     vdW  Elec       q    Type
REMARK                         _______ _______ _______ _____ _____    ______ ____
ROOT
ATOM      1  C   UNL     1       2.456   7.228  18.689  0.00  0.00    +0.000 A 
ATOM      2  C   UNL     1       2.183   7.442  20.075  0.00  0.00    +0.000 A 
ATOM      3  C   UNL     1       1.521   8.650  20.144  0.00  0.00    +0.000 A 
ATOM      4  O   UNL     1       1.410   9.146  18.885  0.00  0.00    +0.000 OA
ATOM      5  N   UNL     1       1.980   8.272  17.984  0.00  0.00    +0.000 NA
ENDROOT
BRANCH   1  11
ATOM      6  C   UNL     1       2.589   4.772  17.951  0.00  0.00    +0.000 A 
ATOM      7  C   UNL     1       3.310   3.772  17.261  0.00  0.00    +0.000 A 
ATOM      8  C   UNL     1       4.516   4.049  16.621  0.00  0.00    +0.000 A 
ATOM      9  C   UNL     1       5.025   5.337  16.652  0.00  0.00    +0.000 A 
ATOM     10  C   UNL     1       4.325   6.340  17.323  0.00  0.00    +0.000 A 
ATOM     11  C   UNL     1       3.099   6.091  17.990  0.00  0.00    +0.000 A 
BRANCH   6  12
ATOM     12  O   UNL     1       1.410   4.505  18.610  0.00  0.00    +0.000 OA
BRANCH  12  14
ATOM     13  C   UNL     1       1.064   2.493  19.887  0.00  0.00    +0.000 C 
ATOM     14  C   UNL     1       1.532   3.934  19.917  0.00  0.00    +0.000 C 
ENDBRANCH  12  14
ENDBRANCH   6  12
ENDBRANCH   1  11
BRANCH   3  15
ATOM     15  N   UNL     1       1.004   9.349  21.219  0.00  0.00    +0.000 N 
ATOM     16  C   UNL     1      -0.171   9.006  21.872  0.00  0.00    +0.000 C 
ATOM     17  O   UNL     1      -0.854   8.013  21.612  0.00  0.00    +0.000 OA
ATOM     18  H   UNL     1       1.537  10.145  21.558  0.00  0.00    +0.000 HD
BRANCH  16  19
ATOM     19  C   UNL     1      -0.594   9.894  23.052  0.00  0.00    +0.000 C 
BRANCH  19  20
ATOM     20  C   UNL     1      -0.855  11.325  22.718  0.00  0.00    +0.000 A 
ATOM     21  N   UNL     1       0.094  11.988  22.036  0.00  0.00    +0.000 NA
ATOM     22  O   UNL     1      -0.401  13.255  21.824  0.00  0.00    +0.000 OA
ATOM     23  C   UNL     1      -1.625  13.370  22.391  0.00  0.00    +0.000 A 
ATOM     24  C   UNL     1      -2.422  14.511  22.349  0.00  0.00    +0.000 A 
ATOM     25  C   UNL     1      -3.651  14.432  23.003  0.00  0.00    +0.000 A 
ATOM     26  C   UNL     1      -4.031  13.268  23.677  0.00  0.00    +0.000 A 
ATOM     27  C   UNL     1      -3.200  12.128  23.698  0.00  0.00    +0.000 A 
ATOM     28  C   UNL     1      -1.964  12.178  23.013  0.00  0.00    +0.000 A 
ENDBRANCH  19  20
ENDBRANCH  16  19
ENDBRANCH   3  15
TORSDOF 6
ENDMDL
MODEL 8
REMARK VINA RESULT:      -7.7      6.617      9.669
REMARK  Name = 
REMARK  7 active torsions:
REMARK  status: ('A' for Active; 'I' for Inactive)
REMARK    1  A    between atoms: C_1  and  C_2
REMARK    2  A    between atoms: C_2  and  O_3
REMARK    3  A    between atoms: O_3  and  C_4
REMARK    4  A    between atoms: C_9  and  C_10
REMARK    5  A    between atoms: C_12  and  N_13
REMARK    6  A    between atoms: C_14  and  C_16
REMARK    7  A    between atoms: C_16  and  C_17
REMARK                            x       y       z     vdW  Elec       q    Type
REMARK                         _______ _______ _______ _____ _____    ______ ____
ROOT
ATOM      1  C   UNL     1       2.645   7.033  18.547  0.00  0.00    +0.000 A 
ATOM      2  C   UNL     1       1.946   8.211  18.138  0.00  0.00    +0.000 A 
ATOM      3  C   UNL     1       1.437   8.764  19.295  0.00  0.00    +0.000 A 
ATOM      4  O   UNL     1       1.791   7.970  20.337  0.00  0.00    +0.000 OA
ATOM      5  N   UNL     1       2.538   6.904  19.884  0.00  0.00    +0.000 NA
ENDROOT
BRANCH   1  11
ATOM      6  C   UNL     1       3.047   4.709  17.533  0.00  0.00    +0.000 A 
ATOM      7  C   UNL     1       3.898   3.866  16.783  0.00  0.00    +0.000 A 
ATOM      8  C   UNL     1       5.112   4.321  16.271  0.00  0.00    +0.000 A 
ATOM      9  C   UNL     1       5.498   5.632  16.493  0.00  0.00    +0.000 A 
ATOM     10  C   UNL     1       4.669   6.482  17.226  0.00  0.00    +0.000 A 
ATOM     11  C   UNL     1       3.431   6.050  17.766  0.00  0.00    +0.000 A 
BRANCH   6  12
ATOM     12  O   UNL     1       1.859   4.265  18.067  0.00  0.00    +0.000 OA
BRANCH  12  14
ATOM     13  C   UNL     1       1.048   3.655  20.251  0.00  0.00    +0.000 C 
ATOM     14  C   UNL     1       1.959   3.279  19.101  0.00  0.00    +0.000 C 
ENDBRANCH  12  14
ENDBRANCH   6  12
ENDBRANCH   1  11
BRANCH   3  15
ATOM     15  N   UNL     1       0.694   9.910  19.509  0.00  0.00    +0.000 N 
ATOM     16  C   UNL     1       1.073  11.171  19.074  0.00  0.00    +0.000 C 
ATOM     17  O   UNL     1       2.077  11.408  18.399  0.00  0.00    +0.000 OA
ATOM     18  H   UNL     1      -0.193   9.807  19.995  0.00  0.00    +0.000 HD
BRANCH  16  19
ATOM     19  C   UNL     1       0.121  12.333  19.398  0.00  0.00    +0.000 C 
BRANCH  19  20
ATOM     20  C   UNL     1      -0.522  12.282  20.744  0.00  0.00    +0.000 A 
ATOM     21  N   UNL     1       0.264  12.001  21.797  0.00  0.00    +0.000 NA
ATOM     22  O   UNL     1      -0.550  12.053  22.907  0.00  0.00    +0.000 OA
ATOM     23  C   UNL     1      -1.819  12.338  22.531  0.00  0.00    +0.000 A 
ATOM     24  C   UNL     1      -2.896  12.487  23.401  0.00  0.00    +0.000 A 
ATOM     25  C   UNL     1      -4.129  12.773  22.816  0.00  0.00    +0.000 A 
ATOM     26  C   UNL     1      -4.257  12.877  21.428  0.00  0.00    +0.000 A 
ATOM     27  C   UNL     1      -3.144  12.722  20.575  0.00  0.00    +0.000 A 
ATOM     28  C   UNL     1      -1.880  12.463  21.152  0.00  0.00    +0.000 A 
ENDBRANCH  19  20
ENDBRANCH  16  19
ENDBRANCH   3  15
TORSDOF 6
ENDMDL
MODEL 9
REMARK VINA RESULT:      -7.6      5.420      8.465
REMARK  Name = 
REMARK  7 active torsions:
REMARK  status: ('A' for Active; 'I' for Inactive)
REMARK    1  A    between atoms: C_1  and  C_2
REMARK    2  A    between atoms: C_2  and  O_3
REMARK    3  A    between atoms: O_3  and  C_4
REMARK    4  A    between atoms: C_9  and  C_10
REMARK    5  A    between atoms: C_12  and  N_13
REMARK    6  A    between atoms: C_14  and  C_16
REMARK    7  A    between atoms: C_16  and  C_17
REMARK                            x       y       z     vdW  Elec       q    Type
REMARK                         _______ _______ _______ _____ _____    ______ ____
ROOT
ATOM      1  C   UNL     1       0.430   9.680  19.845  0.00  0.00    +0.000 A 
ATOM      2  C   UNL     1       0.937   8.576  20.598  0.00  0.00    +0.000 A 
ATOM      3  C   UNL     1       1.892   7.984  19.797  0.00  0.00    +0.000 A 
ATOM      4  O   UNL     1       1.954   8.674  18.630  0.00  0.00    +0.000 OA
ATOM      5  N   UNL     1       1.059   9.722  18.655  0.00  0.00    +0.000 NA
ENDROOT
BRANCH   1  11
ATOM      6  C   UNL     1      -1.534  11.239  19.295  0.00  0.00    +0.000 A 
ATOM      7  C   UNL     1      -2.429  12.235  19.747  0.00  0.00    +0.000 A 
ATOM      8  C   UNL     1      -2.388  12.717  21.054  0.00  0.00    +0.000 A 
ATOM      9  C   UNL     1      -1.453  12.208  21.939  0.00  0.00    +0.000 A 
ATOM     10  C   UNL     1      -0.565  11.219  21.515  0.00  0.00    +0.000 A 
ATOM     11  C   UNL     1      -0.575  10.711  20.191  0.00  0.00    +0.000 A 
BRANCH   6  12
ATOM     12  O   UNL     1      -1.546  10.774  17.999  0.00  0.00    +0.000 OA
BRANCH  12  14
ATOM     13  C   UNL     1      -2.668   9.785  16.112  0.00  0.00    +0.000 C 
ATOM     14  C   UNL     1      -2.698  10.020  17.609  0.00  0.00    +0.000 C 
ENDBRANCH  12  14
ENDBRANCH   6  12
ENDBRANCH   1  11
BRANCH   3  15
ATOM     15  N   UNL     1       2.715   6.894  20.010  0.00  0.00    +0.000 N 
ATOM     16  C   UNL     1       2.650   5.720  19.274  0.00  0.00    +0.000 C 
ATOM     17  O   UNL     1       1.900   5.535  18.313  0.00  0.00    +0.000 OA
ATOM     18  H   UNL     1       3.421   6.977  20.736  0.00  0.00    +0.000 HD
BRANCH  16  19
ATOM     19  C   UNL     1       3.646   4.611  19.646  0.00  0.00    +0.000 C 
BRANCH  19  20
ATOM     20  C   UNL     1       4.962   4.666  18.943  0.00  0.00    +0.000 A 
ATOM     21  N   UNL     1       6.063   4.829  19.697  0.00  0.00    +0.000 NA
ATOM     22  O   UNL     1       7.129   4.808  18.826  0.00  0.00    +0.000 OA
ATOM     23  C   UNL     1       6.681   4.659  17.557  0.00  0.00    +0.000 A 
ATOM     24  C   UNL     1       7.492   4.575  16.428  0.00  0.00    +0.000 A 
ATOM     25  C   UNL     1       6.838   4.430  15.205  0.00  0.00    +0.000 A 
ATOM     26  C   UNL     1       5.442   4.396  15.139  0.00  0.00    +0.000 A 
ATOM     27  C   UNL     1       4.650   4.481  16.304  0.00  0.00    +0.000 A 
ATOM     28  C   UNL     1       5.297   4.596  17.555  0.00  0.00    +0.000 A 
ENDBRANCH  19  20
ENDBRANCH  16  19
ENDBRANCH   3  15
TORSDOF 6
ENDMDL
