MODEL 1
REMARK VINA RESULT:      -7.2      0.000      0.000
REMARK  Name = 
REMARK  3 active torsions:
REMARK  status: ('A' for Active; 'I' for Inactive)
REMARK    1  A    between atoms: C_1  and  N_2
REMARK    2  A    between atoms: N_2  and  C_3
REMARK    3  A    between atoms: C_6  and  C_7
REMARK                            x       y       z     vdW  Elec       q    Type
REMARK                         _______ _______ _______ _____ _____    ______ ____
ROOT
ATOM      1  C   UNL     1       7.115   4.922  14.965  0.00  0.00    +0.000 A 
ATOM      2  C   UNL     1       7.481   4.862  16.312  0.00  0.00    +0.000 A 
ATOM      3  C   UNL     1       6.559   4.508  17.303  0.00  0.00    +0.000 A 
ATOM      4  C   UNL     1       5.229   4.234  16.976  0.00  0.00    +0.000 A 
ATOM      5  C   UNL     1       4.849   4.286  15.632  0.00  0.00    +0.000 A 
ATOM      6  C   UNL     1       5.782   4.631  14.644  0.00  0.00    +0.000 A 
ENDROOT
BRANCH   4   7
ATOM      7  C   UNL     1       4.286   3.941  18.040  0.00  0.00    +0.000 A 
ATOM      8  C   UNL     1       4.591   3.392  19.268  0.00  0.00    +0.000 A 
ATOM      9  N   UNL     1       3.387   3.221  19.902  0.00  0.00    +0.000 N 
ATOM     10  C   UNL     1       3.116   2.682  21.158  0.00  0.00    +0.000 A 
ATOM     11  C   UNL     1       1.841   2.599  21.572  0.00  0.00    +0.000 A 
ATOM     12  C   UNL     1       0.784   3.078  20.693  0.00  0.00    +0.000 A 
ATOM     13  C   UNL     1       1.055   3.599  19.480  0.00  0.00    +0.000 A 
ATOM     14  C   UNL     1       2.404   3.682  19.035  0.00  0.00    +0.000 A 
ATOM     15  N   UNL     1       2.925   4.116  17.908  0.00  0.00    +0.000 NA
ENDBRANCH   4   7
BRANCH   1  17
ATOM     16  C   UNL     1       7.697   5.095  12.569  0.00  0.00    +0.000 C 
ATOM     17  N   UNL     1       7.958   5.396  13.962  0.00  0.00    +0.000 N 
ATOM     18  H   UNL     1       8.346   6.317  14.141  0.00  0.00    +0.000 HD
ENDBRANCH   1  17
TORSDOF 2
ENDMDL
MODEL 2
REMARK VINA RESULT:      -7.0      0.165      1.174
REMARK  Name = 
REMARK  3 active torsions:
REMARK  status: ('A' for Active; 'I' for Inactive)
REMARK    1  A    between atoms: C_1  and  N_2
REMARK    2  A    between atoms: N_2  and  C_3
REMARK    3  A    between atoms: C_6  and  C_7
REMARK                            x       y       z     vdW  Elec       q    Type
REMARK                         _______ _______ _______ _____ _____    ______ ____
ROOT
ATOM      1  C   UNL     1       7.027   5.028  14.974  0.00  0.00    +0.000 A 
ATOM      2  C   UNL     1       5.683   4.735  14.726  0.00  0.00    +0.000 A 
ATOM      3  C   UNL     1       4.792   4.462  15.770  0.00  0.00    +0.000 A 
ATOM      4  C   UNL     1       5.229   4.444  17.096  0.00  0.00    +0.000 A 
ATOM      5  C   UNL     1       6.570   4.741  17.360  0.00  0.00    +0.000 A 
ATOM      6  C   UNL     1       7.454   5.023  16.309  0.00  0.00    +0.000 A 
ENDROOT
BRANCH   4   7
ATOM      7  C   UNL     1       4.291   4.088  18.145  0.00  0.00    +0.000 A 
ATOM      8  C   UNL     1       4.598   3.435  19.321  0.00  0.00    +0.000 A 
ATOM      9  N   UNL     1       3.398   3.241  19.956  0.00  0.00    +0.000 N 
ATOM     10  C   UNL     1       3.128   2.610  21.168  0.00  0.00    +0.000 A 
ATOM     11  C   UNL     1       1.857   2.524  21.592  0.00  0.00    +0.000 A 
ATOM     12  C   UNL     1       0.801   3.096  20.769  0.00  0.00    +0.000 A 
ATOM     13  C   UNL     1       1.071   3.706  19.598  0.00  0.00    +0.000 A 
ATOM     14  C   UNL     1       2.416   3.794  19.142  0.00  0.00    +0.000 A 
ATOM     15  N   UNL     1       2.934   4.304  18.046  0.00  0.00    +0.000 NA
ENDBRANCH   4   7
BRANCH   1  17
ATOM     16  C   UNL     1       7.605   5.056  12.571  0.00  0.00    +0.000 C 
ATOM     17  N   UNL     1       7.977   5.175  13.966  0.00  0.00    +0.000 N 
ATOM     18  H   UNL     1       8.696   5.864  14.165  0.00  0.00    +0.000 HD
ENDBRANCH   1  17
TORSDOF 2
ENDMDL
MODEL 3
REMARK VINA RESULT:      -6.9      0.661      1.838
REMARK  Name = 
REMARK  3 active torsions:
REMARK  status: ('A' for Active; 'I' for Inactive)
REMARK    1  A    between atoms: C_1  and  N_2
REMARK    2  A    between atoms: N_2  and  C_3
REMARK    3  A    between atoms: C_6  and  C_7
REMARK                            x       y       z     vdW  Elec       q    Type
REMARK                         _______ _______ _______ _____ _____    ______ ____
ROOT
ATOM      1  C   UNL     1       7.009   5.120  14.993  0.00  0.00    +0.000 A 
ATOM      2  C   UNL     1       5.653   4.928  14.716  0.00  0.00    +0.000 A 
ATOM      3  C   UNL     1       4.747   4.569  15.721  0.00  0.00    +0.000 A 
ATOM      4  C   UNL     1       5.180   4.360  17.031  0.00  0.00    +0.000 A 
ATOM      5  C   UNL     1       6.534   4.553  17.325  0.00  0.00    +0.000 A 
ATOM      6  C   UNL     1       7.433   4.923  16.314  0.00  0.00    +0.000 A 
ENDROOT
BRANCH   4   7
ATOM      7  C   UNL     1       4.224   3.920  18.031  0.00  0.00    +0.000 A 
ATOM      8  C   UNL     1       2.853   4.049  17.955  0.00  0.00    +0.000 A 
ATOM      9  N   UNL     1       2.374   3.574  19.149  0.00  0.00    +0.000 N 
ATOM     10  C   UNL     1       1.061   3.495  19.609  0.00  0.00    +0.000 A 
ATOM     11  C   UNL     1       0.827   3.000  20.835  0.00  0.00    +0.000 A 
ATOM     12  C   UNL     1       1.955   2.560  21.643  0.00  0.00    +0.000 A 
ATOM     13  C   UNL     1       3.222   2.638  21.190  0.00  0.00    +0.000 A 
ATOM     14  C   UNL     1       3.475   3.168  19.894  0.00  0.00    +0.000 A 
ATOM     15  N   UNL     1       4.597   3.372  19.239  0.00  0.00    +0.000 NA
ENDBRANCH   4   7
BRANCH   1  17
ATOM     16  C   UNL     1       7.681   5.068  12.615  0.00  0.00    +0.000 C 
ATOM     17  N   UNL     1       7.967   5.347  14.008  0.00  0.00    +0.000 N 
ATOM     18  H   UNL     1       8.557   6.156  14.175  0.00  0.00    +0.000 HD
ENDBRANCH   1  17
TORSDOF 2
ENDMDL
MODEL 4
REMARK VINA RESULT:      -6.8      0.981      1.111
REMARK  Name = 
REMARK  3 active torsions:
REMARK  status: ('A' for Active; 'I' for Inactive)
REMARK    1  A    between atoms: C_1  and  N_2
REMARK    2  A    between atoms: N_2  and  C_3
REMARK    3  A    between atoms: C_6  and  C_7
REMARK                            x       y       z     vdW  Elec       q    Type
REMARK                         _______ _______ _______ _____ _____    ______ ____
ROOT
ATOM      1  C   UNL     1       7.199   4.985  14.701  0.00  0.00    +0.000 A 
ATOM      2  C   UNL     1       7.484   5.192  16.053  0.00  0.00    +0.000 A 
ATOM      3  C   UNL     1       6.575   4.829  17.054  0.00  0.00    +0.000 A 
ATOM      4  C   UNL     1       5.335   4.276  16.726  0.00  0.00    +0.000 A 
ATOM      5  C   UNL     1       5.038   4.059  15.377  0.00  0.00    +0.000 A 
ATOM      6  C   UNL     1       5.959   4.415  14.381  0.00  0.00    +0.000 A 
ENDROOT
BRANCH   4   7
ATOM      7  C   UNL     1       4.390   3.979  17.787  0.00  0.00    +0.000 A 
ATOM      8  C   UNL     1       3.626   2.836  17.897  0.00  0.00    +0.000 A 
ATOM      9  N   UNL     1       2.832   3.031  18.998  0.00  0.00    +0.000 N 
ATOM     10  C   UNL     1       1.856   2.200  19.545  0.00  0.00    +0.000 A 
ATOM     11  C   UNL     1       1.185   2.610  20.634  0.00  0.00    +0.000 A 
ATOM     12  C   UNL     1       1.501   3.910  21.207  0.00  0.00    +0.000 A 
ATOM     13  C   UNL     1       2.447   4.707  20.672  0.00  0.00    +0.000 A 
ATOM     14  C   UNL     1       3.157   4.279  19.515  0.00  0.00    +0.000 A 
ATOM     15  N   UNL     1       4.090   4.866  18.797  0.00  0.00    +0.000 NA
ENDBRANCH   4   7
BRANCH   1  17
ATOM     16  C   UNL     1       7.649   5.223  12.282  0.00  0.00    +0.000 C 
ATOM     17  N   UNL     1       8.010   5.448  13.667  0.00  0.00    +0.000 N 
ATOM     18  H   UNL     1       8.466   6.335  13.857  0.00  0.00    +0.000 HD
ENDBRANCH   1  17
TORSDOF 2
ENDMDL
MODEL 5
REMARK VINA RESULT:      -6.8      0.849      1.509
REMARK  Name = 
REMARK  3 active torsions:
REMARK  status: ('A' for Active; 'I' for Inactive)
REMARK    1  A    between atoms: C_1  and  N_2
REMARK    2  A    between atoms: N_2  and  C_3
REMARK    3  A    between atoms: C_6  and  C_7
REMARK                            x       y       z     vdW  Elec       q    Type
REMARK                         _______ _______ _______ _____ _____    ______ ____
ROOT
ATOM      1  C   UNL     1       7.134   5.075  14.822  0.00  0.00    +0.000 A 
ATOM      2  C   UNL     1       6.953   5.828  15.985  0.00  0.00    +0.000 A 
ATOM      3  C   UNL     1       6.048   5.432  16.976  0.00  0.00    +0.000 A 
ATOM      4  C   UNL     1       5.270   4.284  16.816  0.00  0.00    +0.000 A 
ATOM      5  C   UNL     1       5.443   3.518  15.659  0.00  0.00    +0.000 A 
ATOM      6  C   UNL     1       6.360   3.915  14.676  0.00  0.00    +0.000 A 
ENDROOT
BRANCH   4   7
ATOM      7  C   UNL     1       4.291   3.944  17.833  0.00  0.00    +0.000 A 
ATOM      8  C   UNL     1       2.972   4.348  17.857  0.00  0.00    +0.000 A 
ATOM      9  N   UNL     1       2.462   3.861  19.033  0.00  0.00    +0.000 N 
ATOM     10  C   UNL     1       1.183   3.998  19.569  0.00  0.00    +0.000 A 
ATOM     11  C   UNL     1       0.909   3.441  20.759  0.00  0.00    +0.000 A 
ATOM     12  C   UNL     1       1.961   2.710  21.452  0.00  0.00    +0.000 A 
ATOM     13  C   UNL     1       3.195   2.581  20.926  0.00  0.00    +0.000 A 
ATOM     14  C   UNL     1       3.491   3.175  19.667  0.00  0.00    +0.000 A 
ATOM     15  N   UNL     1       4.601   3.218  18.962  0.00  0.00    +0.000 NA
ENDBRANCH   4   7
BRANCH   1  17
ATOM     16  C   UNL     1       7.571   5.147  12.390  0.00  0.00    +0.000 C 
ATOM     17  N   UNL     1       7.921   5.495  13.752  0.00  0.00    +0.000 N 
ATOM     18  H   UNL     1       8.333   6.415  13.871  0.00  0.00    +0.000 HD
ENDBRANCH   1  17
TORSDOF 2
ENDMDL
MODEL 6
REMARK VINA RESULT:      -6.7      4.057      4.658
REMARK  Name = 
REMARK  3 active torsions:
REMARK  status: ('A' for Active; 'I' for Inactive)
REMARK    1  A    between atoms: C_1  and  N_2
REMARK    2  A    between atoms: N_2  and  C_3
REMARK    3  A    between atoms: C_6  and  C_7
REMARK                            x       y       z     vdW  Elec       q    Type
REMARK                         _______ _______ _______ _____ _____    ______ ____
ROOT
ATOM      1  C   UNL     1       5.276   4.544  16.214  0.00  0.00    +0.000 A 
ATOM      2  C   UNL     1       5.437   5.932  16.191  0.00  0.00    +0.000 A 
ATOM      3  C   UNL     1       4.625   6.773  16.960  0.00  0.00    +0.000 A 
ATOM      4  C   UNL     1       3.604   6.249  17.754  0.00  0.00    +0.000 A 
ATOM      5  C   UNL     1       3.433   4.862  17.792  0.00  0.00    +0.000 A 
ATOM      6  C   UNL     1       4.258   4.025  17.026  0.00  0.00    +0.000 A 
ENDROOT
BRANCH   4   7
ATOM      7  C   UNL     1       2.737   7.158  18.483  0.00  0.00    +0.000 A 
ATOM      8  C   UNL     1       2.199   8.331  17.998  0.00  0.00    +0.000 A 
ATOM      9  N   UNL     1       1.524   8.889  19.053  0.00  0.00    +0.000 N 
ATOM     10  C   UNL     1       0.819  10.089  19.120  0.00  0.00    +0.000 A 
ATOM     11  C   UNL     1       0.242  10.445  20.279  0.00  0.00    +0.000 A 
ATOM     12  C   UNL     1       0.373   9.562  21.430  0.00  0.00    +0.000 A 
ATOM     13  C   UNL     1       1.056   8.402  21.356  0.00  0.00    +0.000 A 
ATOM     14  C   UNL     1       1.674   8.025  20.131  0.00  0.00    +0.000 A 
ATOM     15  N   UNL     1       2.404   6.979  19.808  0.00  0.00    +0.000 NA
ENDBRANCH   4   7
BRANCH   1  17
ATOM     16  C   UNL     1       6.398   4.110  14.055  0.00  0.00    +0.000 C 
ATOM     17  N   UNL     1       5.967   3.679  15.370  0.00  0.00    +0.000 N 
ATOM     18  H   UNL     1       6.602   3.046  15.847  0.00  0.00    +0.000 HD
ENDBRANCH   1  17
TORSDOF 2
ENDMDL
MODEL 7
REMARK VINA RESULT:      -6.6      1.011      1.582
REMARK  Name = 
REMARK  3 active torsions:
REMARK  status: ('A' for Active; 'I' for Inactive)
REMARK    1  A    between atoms: C_1  and  N_2
REMARK    2  A    between atoms: N_2  and  C_3
REMARK    3  A    between atoms: C_6  and  C_7
REMARK                            x       y       z     vdW  Elec       q    Type
REMARK                         _______ _______ _______ _____ _____    ______ ____
ROOT
ATOM      1  C   UNL     1       7.059   5.123  14.754  0.00  0.00    +0.000 A 
ATOM      2  C   UNL     1       5.921   4.345  14.522  0.00  0.00    +0.000 A 
ATOM      3  C   UNL     1       5.025   4.040  15.553  0.00  0.00    +0.000 A 
ATOM      4  C   UNL     1       5.260   4.480  16.857  0.00  0.00    +0.000 A 
ATOM      5  C   UNL     1       6.392   5.263  17.103  0.00  0.00    +0.000 A 
ATOM      6  C   UNL     1       7.279   5.573  16.063  0.00  0.00    +0.000 A 
ENDROOT
BRANCH   4   7
ATOM      7  C   UNL     1       4.345   4.084  17.913  0.00  0.00    +0.000 A 
ATOM      8  C   UNL     1       3.599   2.925  17.948  0.00  0.00    +0.000 A 
ATOM      9  N   UNL     1       2.830   3.019  19.080  0.00  0.00    +0.000 N 
ATOM     10  C   UNL     1       1.879   2.132  19.581  0.00  0.00    +0.000 A 
ATOM     11  C   UNL     1       1.229   2.443  20.715  0.00  0.00    +0.000 A 
ATOM     12  C   UNL     1       1.542   3.698  21.383  0.00  0.00    +0.000 A 
ATOM     13  C   UNL     1       2.464   4.549  20.891  0.00  0.00    +0.000 A 
ATOM     14  C   UNL     1       3.150   4.227  19.687  0.00  0.00    +0.000 A 
ATOM     15  N   UNL     1       4.057   4.884  18.997  0.00  0.00    +0.000 NA
ENDBRANCH   4   7
BRANCH   1  17
ATOM     16  C   UNL     1       7.745   5.226  12.382  0.00  0.00    +0.000 C 
ATOM     17  N   UNL     1       8.045   5.341  13.794  0.00  0.00    +0.000 N 
ATOM     18  H   UNL     1       8.713   6.066  14.037  0.00  0.00    +0.000 HD
ENDBRANCH   1  17
TORSDOF 2
ENDMDL
MODEL 8
REMARK VINA RESULT:      -6.6      4.357      5.094
REMARK  Name = 
REMARK  3 active torsions:
REMARK  status: ('A' for Active; 'I' for Inactive)
REMARK    1  A    between atoms: C_1  and  N_2
REMARK    2  A    between atoms: N_2  and  C_3
REMARK    3  A    between atoms: C_6  and  C_7
REMARK                            x       y       z     vdW  Elec       q    Type
REMARK                         _______ _______ _______ _____ _____    ______ ____
ROOT
ATOM      1  C   UNL     1       4.778   4.493  16.653  0.00  0.00    +0.000 A 
ATOM      2  C   UNL     1       3.628   4.141  17.366  0.00  0.00    +0.000 A 
ATOM      3  C   UNL     1       2.845   5.107  18.009  0.00  0.00    +0.000 A 
ATOM      4  C   UNL     1       3.210   6.454  17.983  0.00  0.00    +0.000 A 
ATOM      5  C   UNL     1       4.355   6.822  17.270  0.00  0.00    +0.000 A 
ATOM      6  C   UNL     1       5.128   5.850  16.619  0.00  0.00    +0.000 A 
ENDROOT
BRANCH   4   7
ATOM      7  C   UNL     1       2.412   7.417  18.721  0.00  0.00    +0.000 A 
ATOM      8  C   UNL     1       1.917   8.608  18.231  0.00  0.00    +0.000 A 
ATOM      9  N   UNL     1       1.304   9.216  19.296  0.00  0.00    +0.000 N 
ATOM     10  C   UNL     1       0.661  10.450  19.362  0.00  0.00    +0.000 A 
ATOM     11  C   UNL     1       0.139  10.854  20.531  0.00  0.00    +0.000 A 
ATOM     12  C   UNL     1       0.263   9.985  21.693  0.00  0.00    +0.000 A 
ATOM     13  C   UNL     1       0.885   8.792  21.620  0.00  0.00    +0.000 A 
ATOM     14  C   UNL     1       1.444   8.363  20.384  0.00  0.00    +0.000 A 
ATOM     15  N   UNL     1       2.112   7.278  20.058  0.00  0.00    +0.000 NA
ENDBRANCH   4   7
BRANCH   1  17
ATOM     16  C   UNL     1       6.328   3.815  14.852  0.00  0.00    +0.000 C 
ATOM     17  N   UNL     1       5.658   3.560  16.111  0.00  0.00    +0.000 N 
ATOM     18  H   UNL     1       6.207   3.053  16.798  0.00  0.00    +0.000 HD
ENDBRANCH   1  17
TORSDOF 2
ENDMDL
MODEL 9
REMARK VINA RESULT:      -6.5      4.291      4.860
REMARK  Name = 
REMARK  3 active torsions:
REMARK  status: ('A' for Active; 'I' for Inactive)
REMARK    1  A    between atoms: C_1  and  N_2
REMARK    2  A    between atoms: N_2  and  C_3
REMARK    3  A    between atoms: C_6  and  C_7
REMARK                            x       y       z     vdW  Elec       q    Type
REMARK                         _______ _______ _______ _____ _____    ______ ____
ROOT
ATOM      1  C   UNL     1       4.908   4.543  16.493  0.00  0.00    +0.000 A 
ATOM      2  C   UNL     1       3.783   4.177  17.237  0.00  0.00    +0.000 A 
ATOM      3  C   UNL     1       3.007   5.132  17.903  0.00  0.00    +0.000 A 
ATOM      4  C   UNL     1       3.354   6.484  17.870  0.00  0.00    +0.000 A 
ATOM      5  C   UNL     1       4.474   6.867  17.126  0.00  0.00    +0.000 A 
ATOM      6  C   UNL     1       5.241   5.905  16.452  0.00  0.00    +0.000 A 
ENDROOT
BRANCH   4   7
ATOM      7  C   UNL     1       2.566   7.436  18.632  0.00  0.00    +0.000 A 
ATOM      8  C   UNL     1       2.168   7.294  19.945  0.00  0.00    +0.000 A 
ATOM      9  N   UNL     1       1.383   8.386  20.209  0.00  0.00    +0.000 N 
ATOM     10  C   UNL     1       0.705   8.729  21.377  0.00  0.00    +0.000 A 
ATOM     11  C   UNL     1      -0.026   9.855  21.403  0.00  0.00    +0.000 A 
ATOM     12  C   UNL     1      -0.084  10.683  20.207  0.00  0.00    +0.000 A 
ATOM     13  C   UNL     1       0.576  10.344  19.081  0.00  0.00    +0.000 A 
ATOM     14  C   UNL     1       1.346   9.149  19.048  0.00  0.00    +0.000 A 
ATOM     15  N   UNL     1       2.049   8.590  18.086  0.00  0.00    +0.000 NA
ENDBRANCH   4   7
BRANCH   1  17
ATOM     16  C   UNL     1       6.338   3.840  14.603  0.00  0.00    +0.000 C 
ATOM     17  N   UNL     1       5.784   3.622  15.925  0.00  0.00    +0.000 N 
ATOM     18  H   UNL     1       6.410   3.174  16.587  0.00  0.00    +0.000 HD
ENDBRANCH   1  17
TORSDOF 2
ENDMDL
