MODEL 1
REMARK VINA RESULT:      -7.9      0.000      0.000
REMARK  Name = 
REMARK  12 active torsions:
REMARK  status: ('A' for Active; 'I' for Inactive)
REMARK    1  A    between atoms: C_1  and  C_2
REMARK    2  A    between atoms: C_4  and  C_5
REMARK    3  A    between atoms: N_7  and  C_8
REMARK    4  A    between atoms: C_8  and  C_9
REMARK    5  A    between atoms: C_9  and  C_10
REMARK    6  A    between atoms: C_10  and  N_11
REMARK    7  A    between atoms: N_14  and  C_15
REMARK    8  A    between atoms: C_19  and  C_20
REMARK    9  A    between atoms: C_21  and  C_22
REMARK   10  A    between atoms: C_26  and  C_27
REMARK   11  A    between atoms: C_27  and  C_28
REMARK   12  A    between atoms: C_27  and  C_29
REMARK                            x       y       z     vdW  Elec       q    Type
REMARK                         _______ _______ _______ _____ _____    ______ ____
ROOT
ATOM      1  C   UNL     1       7.954   8.841  17.703  0.00  0.00    +0.000 C 
ENDROOT
BRANCH   1   2
ATOM      2  C   UNL     1       9.144   9.574  18.324  0.00  0.00    +0.000 C 
BRANCH   2   5
ATOM      3  C   UNL     1       9.936  11.928  18.154  0.00  0.00    +0.000 C 
ATOM      4  O   UNL     1      11.122  11.621  18.056  0.00  0.00    +0.000 OA
ATOM      5  N   UNL     1       8.920  11.010  18.339  0.00  0.00    +0.000 N 
ATOM      6  H   UNL     1       7.971  11.378  18.311  0.00  0.00    +0.000 HD
BRANCH   3  10
ATOM      7  C   UNL     1      10.958  16.537  16.986  0.00  0.00    +0.000 C 
ATOM      8  C   UNL     1       9.997  15.518  17.512  0.00  0.00    +0.000 A 
ATOM      9  N   UNL     1      10.408  14.240  17.577  0.00  0.00    +0.000 NA
ATOM     10  C   UNL     1       9.497  13.364  18.058  0.00  0.00    +0.000 A 
ATOM     11  C   UNL     1       8.229  13.710  18.472  0.00  0.00    +0.000 A 
ATOM     12  C   UNL     1       7.902  15.052  18.378  0.00  0.00    +0.000 A 
ATOM     13  N   UNL     1       8.781  15.958  17.894  0.00  0.00    +0.000 NA
BRANCH  12  14
ATOM     14  C   UNL     1       6.546  15.553  18.841  0.00  0.00    +0.000 C 
ATOM     15  C   UNL     1       6.522  17.081  18.919  0.00  0.00    +0.000 C 
ATOM     16  C   UNL     1       5.418  15.053  17.936  0.00  0.00    +0.000 C 
ENDBRANCH  12  14
ENDBRANCH   3  10
ENDBRANCH   2   5
ENDBRANCH   1   2
BRANCH   1  17
ATOM     17  C   UNL     1       7.799   7.402  18.215  0.00  0.00    +0.000 C 
BRANCH  17  18
ATOM     18  N   UNL     1       7.270   6.509  17.170  0.00  0.00    +0.000 NA
ATOM     19  C   UNL     1       7.291   5.071  17.533  0.00  0.00    +0.000 C 
ATOM     20  C   UNL     1       6.277   4.632  18.616  0.00  0.00    +0.000 C 
ATOM     21  N   UNL     1       4.910   5.072  18.278  0.00  0.00    +0.000 N 
ATOM     22  C   UNL     1       4.782   6.462  17.826  0.00  0.00    +0.000 C 
ATOM     23  C   UNL     1       5.877   6.848  16.807  0.00  0.00    +0.000 C 
BRANCH  21  24
ATOM     24  C   UNL     1       3.819   4.214  18.359  0.00  0.00    +0.000 A 
ATOM     25  C   UNL     1       3.700   3.189  17.395  0.00  0.00    +0.000 A 
ATOM     26  C   UNL     1       2.641   2.283  17.379  0.00  0.00    +0.000 A 
ATOM     27  C   UNL     1       1.640   2.385  18.328  0.00  0.00    +0.000 A 
ATOM     28  C   UNL     1       1.691   3.387  19.306  0.00  0.00    +0.000 A 
ATOM     29  C   UNL     1       0.561   3.444  20.301  0.00  0.00    +0.000 C 
ATOM     30  C   UNL     1       2.786   4.301  19.341  0.00  0.00    +0.000 A 
ATOM     31  C   UNL     1       2.856   5.297  20.480  0.00  0.00    +0.000 C 
ENDBRANCH  21  24
ENDBRANCH  17  18
ENDBRANCH   1  17
TORSDOF 7
ENDMDL
MODEL 2
REMARK VINA RESULT:      -7.9      5.877      8.797
REMARK  Name = 
REMARK  12 active torsions:
REMARK  status: ('A' for Active; 'I' for Inactive)
REMARK    1  A    between atoms: C_1  and  C_2
REMARK    2  A    between atoms: C_4  and  C_5
REMARK    3  A    between atoms: N_7  and  C_8
REMARK    4  A    between atoms: C_8  and  C_9
REMARK    5  A    between atoms: C_9  and  C_10
REMARK    6  A    between atoms: C_10  and  N_11
REMARK    7  A    between atoms: N_14  and  C_15
REMARK    8  A    between atoms: C_19  and  C_20
REMARK    9  A    between atoms: C_21  and  C_22
REMARK   10  A    between atoms: C_26  and  C_27
REMARK   11  A    between atoms: C_27  and  C_28
REMARK   12  A    between atoms: C_27  and  C_29
REMARK                            x       y       z     vdW  Elec       q    Type
REMARK                         _______ _______ _______ _____ _____    ______ ____
ROOT
ATOM      1  C   UNL     1       4.653   3.170  19.068  0.00  0.00    +0.000 C 
ENDROOT
BRANCH   1   2
ATOM      2  C   UNL     1       5.794   4.085  18.623  0.00  0.00    +0.000 C 
BRANCH   2   5
ATOM      3  C   UNL     1       6.807   4.916  16.507  0.00  0.00    +0.000 C 
ATOM      4  O   UNL     1       7.524   5.745  17.065  0.00  0.00    +0.000 OA
ATOM      5  N   UNL     1       5.905   4.110  17.174  0.00  0.00    +0.000 N 
ATOM      6  H   UNL     1       5.439   3.399  16.615  0.00  0.00    +0.000 HD
BRANCH   3  10
ATOM      7  C   UNL     1       8.739   6.123  12.209  0.00  0.00    +0.000 C 
ATOM      8  C   UNL     1       7.793   5.290  13.015  0.00  0.00    +0.000 A 
ATOM      9  N   UNL     1       7.754   5.488  14.344  0.00  0.00    +0.000 NA
ATOM     10  C   UNL     1       6.881   4.705  15.019  0.00  0.00    +0.000 A 
ATOM     11  C   UNL     1       6.066   3.764  14.430  0.00  0.00    +0.000 A 
ATOM     12  C   UNL     1       6.170   3.640  13.055  0.00  0.00    +0.000 A 
ATOM     13  N   UNL     1       7.035   4.398  12.345  0.00  0.00    +0.000 NA
BRANCH  12  14
ATOM     14  C   UNL     1       5.292   2.662  12.296  0.00  0.00    +0.000 C 
ATOM     15  C   UNL     1       4.211   3.397  11.500  0.00  0.00    +0.000 C 
ATOM     16  C   UNL     1       6.114   1.766  11.367  0.00  0.00    +0.000 C 
ENDBRANCH  12  14
ENDBRANCH   3  10
ENDBRANCH   2   5
ENDBRANCH   1   2
BRANCH   1  17
ATOM     17  C   UNL     1       3.564   3.001  17.999  0.00  0.00    +0.000 C 
BRANCH  17  18
ATOM     18  N   UNL     1       2.230   3.337  18.526  0.00  0.00    +0.000 NA
ATOM     19  C   UNL     1       2.231   3.783  19.940  0.00  0.00    +0.000 C 
ATOM     20  C   UNL     1       2.840   5.181  20.208  0.00  0.00    +0.000 C 
ATOM     21  N   UNL     1       2.237   6.202  19.330  0.00  0.00    +0.000 N 
ATOM     22  C   UNL     1       2.111   5.833  17.916  0.00  0.00    +0.000 C 
ATOM     23  C   UNL     1       1.573   4.397  17.732  0.00  0.00    +0.000 C 
BRANCH  21  24
ATOM     24  C   UNL     1       1.794   7.425  19.821  0.00  0.00    +0.000 A 
ATOM     25  C   UNL     1       1.318   7.482  21.149  0.00  0.00    +0.000 A 
ATOM     26  C   UNL     1       0.842   8.653  21.735  0.00  0.00    +0.000 A 
ATOM     27  C   UNL     1       0.805   9.821  20.995  0.00  0.00    +0.000 A 
ATOM     28  C   UNL     1       1.251   9.832  19.667  0.00  0.00    +0.000 A 
ATOM     29  C   UNL     1       1.173  11.138  18.918  0.00  0.00    +0.000 C 
ATOM     30  C   UNL     1       1.763   8.641  19.071  0.00  0.00    +0.000 A 
ATOM     31  C   UNL     1       2.335   8.723  17.671  0.00  0.00    +0.000 C 
ENDBRANCH  21  24
ENDBRANCH  17  18
ENDBRANCH   1  17
TORSDOF 7
ENDMDL
MODEL 3
REMARK VINA RESULT:      -7.8      1.212      2.022
REMARK  Name = 
REMARK  12 active torsions:
REMARK  status: ('A' for Active; 'I' for Inactive)
REMARK    1  A    between atoms: C_1  and  C_2
REMARK    2  A    between atoms: C_4  and  C_5
REMARK    3  A    between atoms: N_7  and  C_8
REMARK    4  A    between atoms: C_8  and  C_9
REMARK    5  A    between atoms: C_9  and  C_10
REMARK    6  A    between atoms: C_10  and  N_11
REMARK    7  A    between atoms: N_14  and  C_15
REMARK    8  A    between atoms: C_19  and  C_20
REMARK    9  A    between atoms: C_21  and  C_22
REMARK   10  A    between atoms: C_26  and  C_27
REMARK   11  A    between atoms: C_27  and  C_28
REMARK   12  A    between atoms: C_27  and  C_29
REMARK                            x       y       z     vdW  Elec       q    Type
REMARK                         _______ _______ _______ _____ _____    ______ ____
ROOT
ATOM      1  C   UNL     1       7.264   8.048  17.163  0.00  0.00    +0.000 C 
ENDROOT
BRANCH   1   2
ATOM      2  C   UNL     1       8.211   8.609  18.223  0.00  0.00    +0.000 C 
BRANCH   2   5
ATOM      3  C   UNL     1       9.370  10.752  18.739  0.00  0.00    +0.000 C 
ATOM      4  O   UNL     1      10.021  10.284  19.670  0.00  0.00    +0.000 OA
ATOM      5  N   UNL     1       8.435  10.031  18.020  0.00  0.00    +0.000 N 
ATOM      6  H   UNL     1       8.030  10.500  17.213  0.00  0.00    +0.000 HD
BRANCH   3  10
ATOM      7  C   UNL     1      12.333  14.250  17.115  0.00  0.00    +0.000 C 
ATOM      8  C   UNL     1      10.971  13.803  17.541  0.00  0.00    +0.000 A 
ATOM      9  N   UNL     1      10.818  12.522  17.922  0.00  0.00    +0.000 NA
ATOM     10  C   UNL     1       9.565  12.176  18.295  0.00  0.00    +0.000 A 
ATOM     11  C   UNL     1       8.491  13.039  18.307  0.00  0.00    +0.000 A 
ATOM     12  C   UNL     1       8.750  14.340  17.908  0.00  0.00    +0.000 A 
ATOM     13  N   UNL     1       9.986  14.724  17.520  0.00  0.00    +0.000 NA
BRANCH  12  14
ATOM     14  C   UNL     1       7.650  15.386  17.919  0.00  0.00    +0.000 C 
ATOM     15  C   UNL     1       6.272  14.736  17.781  0.00  0.00    +0.000 C 
ATOM     16  C   UNL     1       7.702  16.250  19.181  0.00  0.00    +0.000 C 
ENDBRANCH  12  14
ENDBRANCH   3  10
ENDBRANCH   2   5
ENDBRANCH   1   2
BRANCH   1  17
ATOM     17  C   UNL     1       7.564   6.586  16.803  0.00  0.00    +0.000 C 
BRANCH  17  18
ATOM     18  N   UNL     1       6.402   5.933  16.175  0.00  0.00    +0.000 NA
ATOM     19  C   UNL     1       6.143   4.556  16.659  0.00  0.00    +0.000 C 
ATOM     20  C   UNL     1       5.603   4.438  18.105  0.00  0.00    +0.000 C 
ATOM     21  N   UNL     1       4.423   5.300  18.305  0.00  0.00    +0.000 N 
ATOM     22  C   UNL     1       4.537   6.667  17.788  0.00  0.00    +0.000 C 
ATOM     23  C   UNL     1       5.158   6.708  16.374  0.00  0.00    +0.000 C 
BRANCH  21  24
ATOM     24  C   UNL     1       3.267   4.833  18.922  0.00  0.00    +0.000 A 
ATOM     25  C   UNL     1       2.835   5.470  20.106  0.00  0.00    +0.000 A 
ATOM     26  C   UNL     1       1.698   5.075  20.808  0.00  0.00    +0.000 A 
ATOM     27  C   UNL     1       0.954   4.000  20.355  0.00  0.00    +0.000 A 
ATOM     28  C   UNL     1       1.335   3.316  19.193  0.00  0.00    +0.000 A 
ATOM     29  C   UNL     1       0.483   2.149  18.764  0.00  0.00    +0.000 C 
ATOM     30  C   UNL     1       2.484   3.733  18.457  0.00  0.00    +0.000 A 
ATOM     31  C   UNL     1       2.794   3.035  17.149  0.00  0.00    +0.000 C 
ENDBRANCH  21  24
ENDBRANCH  17  18
ENDBRANCH   1  17
TORSDOF 7
ENDMDL
MODEL 4
REMARK VINA RESULT:      -7.7      2.697      3.009
REMARK  Name = 
REMARK  12 active torsions:
REMARK  status: ('A' for Active; 'I' for Inactive)
REMARK    1  A    between atoms: C_1  and  C_2
REMARK    2  A    between atoms: C_4  and  C_5
REMARK    3  A    between atoms: N_7  and  C_8
REMARK    4  A    between atoms: C_8  and  C_9
REMARK    5  A    between atoms: C_9  and  C_10
REMARK    6  A    between atoms: C_10  and  N_11
REMARK    7  A    between atoms: N_14  and  C_15
REMARK    8  A    between atoms: C_19  and  C_20
REMARK    9  A    between atoms: C_21  and  C_22
REMARK   10  A    between atoms: C_26  and  C_27
REMARK   11  A    between atoms: C_27  and  C_28
REMARK   12  A    between atoms: C_27  and  C_29
REMARK                            x       y       z     vdW  Elec       q    Type
REMARK                         _______ _______ _______ _____ _____    ______ ____
ROOT
ATOM      1  C   UNL     1       8.447   8.475  18.417  0.00  0.00    +0.000 C 
ENDROOT
BRANCH   1   2
ATOM      2  C   UNL     1       8.916   9.860  17.973  0.00  0.00    +0.000 C 
BRANCH   2   5
ATOM      3  C   UNL     1      10.033  11.544  19.428  0.00  0.00    +0.000 C 
ATOM      4  O   UNL     1      11.127  11.431  18.879  0.00  0.00    +0.000 OA
ATOM      5  N   UNL     1       8.925  10.790  19.091  0.00  0.00    +0.000 N 
ATOM      6  H   UNL     1       8.053  11.041  19.551  0.00  0.00    +0.000 HD
BRANCH   3  10
ATOM      7  C   UNL     1      11.105  15.859  21.400  0.00  0.00    +0.000 C 
ATOM      8  C   UNL     1      10.336  14.576  21.433  0.00  0.00    +0.000 A 
ATOM      9  N   UNL     1      10.539  13.694  20.439  0.00  0.00    +0.000 NA
ATOM     10  C   UNL     1       9.815  12.555  20.521  0.00  0.00    +0.000 A 
ATOM     11  C   UNL     1       8.927  12.270  21.535  0.00  0.00    +0.000 A 
ATOM     12  C   UNL     1       8.795  13.234  22.520  0.00  0.00    +0.000 A 
ATOM     13  N   UNL     1       9.493  14.390  22.470  0.00  0.00    +0.000 NA
BRANCH  12  14
ATOM     14  C   UNL     1       7.874  13.010  23.706  0.00  0.00    +0.000 C 
ATOM     15  C   UNL     1       8.043  11.600  24.273  0.00  0.00    +0.000 C 
ATOM     16  C   UNL     1       8.101  14.052  24.804  0.00  0.00    +0.000 C 
ENDBRANCH  12  14
ENDBRANCH   3  10
ENDBRANCH   2   5
ENDBRANCH   1   2
BRANCH   1  17
ATOM     17  C   UNL     1       7.341   7.899  17.522  0.00  0.00    +0.000 C 
BRANCH  17  18
ATOM     18  N   UNL     1       7.493   6.445  17.341  0.00  0.00    +0.000 NA
ATOM     19  C   UNL     1       7.373   5.661  18.594  0.00  0.00    +0.000 C 
ATOM     20  C   UNL     1       5.954   5.576  19.206  0.00  0.00    +0.000 C 
ATOM     21  N   UNL     1       4.967   5.127  18.205  0.00  0.00    +0.000 N 
ATOM     22  C   UNL     1       5.047   5.781  16.894  0.00  0.00    +0.000 C 
ATOM     23  C   UNL     1       6.502   5.900  16.388  0.00  0.00    +0.000 C 
BRANCH  21  24
ATOM     24  C   UNL     1       4.040   4.129  18.482  0.00  0.00    +0.000 A 
ATOM     25  C   UNL     1       4.250   2.846  17.931  0.00  0.00    +0.000 A 
ATOM     26  C   UNL     1       3.377   1.780  18.137  0.00  0.00    +0.000 A 
ATOM     27  C   UNL     1       2.236   1.968  18.896  0.00  0.00    +0.000 A 
ATOM     28  C   UNL     1       1.960   3.219  19.461  0.00  0.00    +0.000 A 
ATOM     29  C   UNL     1       0.694   3.353  20.267  0.00  0.00    +0.000 C 
ATOM     30  C   UNL     1       2.864   4.307  19.273  0.00  0.00    +0.000 A 
ATOM     31  C   UNL     1       2.583   5.610  19.993  0.00  0.00    +0.000 C 
ENDBRANCH  21  24
ENDBRANCH  17  18
ENDBRANCH   1  17
TORSDOF 7
ENDMDL
MODEL 5
REMARK VINA RESULT:      -7.7      4.921     11.382
REMARK  Name = 
REMARK  12 active torsions:
REMARK  status: ('A' for Active; 'I' for Inactive)
REMARK    1  A    between atoms: C_1  and  C_2
REMARK    2  A    between atoms: C_4  and  C_5
REMARK    3  A    between atoms: N_7  and  C_8
REMARK    4  A    between atoms: C_8  and  C_9
REMARK    5  A    between atoms: C_9  and  C_10
REMARK    6  A    between atoms: C_10  and  N_11
REMARK    7  A    between atoms: N_14  and  C_15
REMARK    8  A    between atoms: C_19  and  C_20
REMARK    9  A    between atoms: C_21  and  C_22
REMARK   10  A    between atoms: C_26  and  C_27
REMARK   11  A    between atoms: C_27  and  C_28
REMARK   12  A    between atoms: C_27  and  C_29
REMARK                            x       y       z     vdW  Elec       q    Type
REMARK                         _______ _______ _______ _____ _____    ______ ____
ROOT
ATOM      1  C   UNL     1      -0.159   9.150  21.481  0.00  0.00    +0.000 C 
ENDROOT
BRANCH   1   2
ATOM      2  C   UNL     1       1.346   8.887  21.537  0.00  0.00    +0.000 C 
BRANCH   2   5
ATOM      3  C   UNL     1       2.163   7.590  19.576  0.00  0.00    +0.000 C 
ATOM      4  O   UNL     1       2.260   8.575  18.846  0.00  0.00    +0.000 OA
ATOM      5  N   UNL     1       1.682   7.640  20.870  0.00  0.00    +0.000 N 
ATOM      6  H   UNL     1       1.738   6.776  21.404  0.00  0.00    +0.000 HD
BRANCH   3  10
ATOM      7  C   UNL     1       4.887   4.872  16.600  0.00  0.00    +0.000 C 
ATOM      8  C   UNL     1       3.870   4.973  17.693  0.00  0.00    +0.000 A 
ATOM      9  N   UNL     1       3.512   6.200  18.109  0.00  0.00    +0.000 NA
ATOM     10  C   UNL     1       2.591   6.228  19.100  0.00  0.00    +0.000 A 
ATOM     11  C   UNL     1       2.027   5.107  19.669  0.00  0.00    +0.000 A 
ATOM     12  C   UNL     1       2.451   3.889  19.166  0.00  0.00    +0.000 A 
ATOM     13  N   UNL     1       3.375   3.818  18.183  0.00  0.00    +0.000 NA
BRANCH  12  14
ATOM     14  C   UNL     1       1.868   2.589  19.691  0.00  0.00    +0.000 C 
ATOM     15  C   UNL     1       1.528   2.701  21.178  0.00  0.00    +0.000 C 
ATOM     16  C   UNL     1       0.632   2.162  18.897  0.00  0.00    +0.000 C 
ENDBRANCH  12  14
ENDBRANCH   3  10
ENDBRANCH   2   5
ENDBRANCH   1   2
BRANCH   1  17
ATOM     17  C   UNL     1      -0.578   9.994  20.269  0.00  0.00    +0.000 C 
BRANCH  17  18
ATOM     18  N   UNL     1      -0.906  11.376  20.658  0.00  0.00    +0.000 NA
ATOM     19  C   UNL     1       0.212  12.109  21.299  0.00  0.00    +0.000 C 
ATOM     20  C   UNL     1       1.384  12.502  20.368  0.00  0.00    +0.000 C 
ATOM     21  N   UNL     1       0.899  13.218  19.173  0.00  0.00    +0.000 N 
ATOM     22  C   UNL     1      -0.262  12.624  18.502  0.00  0.00    +0.000 C 
ATOM     23  C   UNL     1      -1.354  12.184  19.503  0.00  0.00    +0.000 C 
BRANCH  21  24
ATOM     24  C   UNL     1       1.491  14.396  18.729  0.00  0.00    +0.000 A 
ATOM     25  C   UNL     1       2.716  14.309  18.033  0.00  0.00    +0.000 A 
ATOM     26  C   UNL     1       3.397  15.426  17.555  0.00  0.00    +0.000 A 
ATOM     27  C   UNL     1       2.880  16.689  17.779  0.00  0.00    +0.000 A 
ATOM     28  C   UNL     1       1.674  16.847  18.474  0.00  0.00    +0.000 A 
ATOM     29  C   UNL     1       1.176  18.253  18.689  0.00  0.00    +0.000 C 
ATOM     30  C   UNL     1       0.960  15.704  18.943  0.00  0.00    +0.000 A 
ATOM     31  C   UNL     1      -0.392  15.915  19.591  0.00  0.00    +0.000 C 
ENDBRANCH  21  24
ENDBRANCH  17  18
ENDBRANCH   1  17
TORSDOF 7
ENDMDL
MODEL 6
REMARK VINA RESULT:      -7.7      4.924      8.183
REMARK  Name = 
REMARK  12 active torsions:
REMARK  status: ('A' for Active; 'I' for Inactive)
REMARK    1  A    between atoms: C_1  and  C_2
REMARK    2  A    between atoms: C_4  and  C_5
REMARK    3  A    between atoms: N_7  and  C_8
REMARK    4  A    between atoms: C_8  and  C_9
REMARK    5  A    between atoms: C_9  and  C_10
REMARK    6  A    between atoms: C_10  and  N_11
REMARK    7  A    between atoms: N_14  and  C_15
REMARK    8  A    between atoms: C_19  and  C_20
REMARK    9  A    between atoms: C_21  and  C_22
REMARK   10  A    between atoms: C_26  and  C_27
REMARK   11  A    between atoms: C_27  and  C_28
REMARK   12  A    between atoms: C_27  and  C_29
REMARK                            x       y       z     vdW  Elec       q    Type
REMARK                         _______ _______ _______ _____ _____    ______ ____
ROOT
ATOM      1  C   UNL     1       3.229   2.453  20.346  0.00  0.00    +0.000 C 
ENDROOT
BRANCH   1   2
ATOM      2  C   UNL     1       4.748   2.298  20.290  0.00  0.00    +0.000 C 
BRANCH   2   5
ATOM      3  C   UNL     1       5.434   4.450  19.242  0.00  0.00    +0.000 C 
ATOM      4  O   UNL     1       4.999   5.143  20.159  0.00  0.00    +0.000 OA
ATOM      5  N   UNL     1       5.310   3.074  19.197  0.00  0.00    +0.000 N 
ATOM      6  H   UNL     1       5.793   2.604  18.434  0.00  0.00    +0.000 HD
BRANCH   3  10
ATOM      7  C   UNL     1       8.010   8.157  17.432  0.00  0.00    +0.000 C 
ATOM      8  C   UNL     1       7.367   6.818  17.252  0.00  0.00    +0.000 A 
ATOM      9  N   UNL     1       6.727   6.280  18.305  0.00  0.00    +0.000 NA
ATOM     10  C   UNL     1       6.168   5.068  18.083  0.00  0.00    +0.000 A 
ATOM     11  C   UNL     1       6.217   4.398  16.881  0.00  0.00    +0.000 A 
ATOM     12  C   UNL     1       6.888   5.038  15.853  0.00  0.00    +0.000 A 
ATOM     13  N   UNL     1       7.468   6.244  16.036  0.00  0.00    +0.000 NA
BRANCH  12  14
ATOM     14  C   UNL     1       6.972   4.409  14.473  0.00  0.00    +0.000 C 
ATOM     15  C   UNL     1       5.580   4.054  13.946  0.00  0.00    +0.000 C 
ATOM     16  C   UNL     1       7.696   5.320  13.479  0.00  0.00    +0.000 C 
ENDBRANCH  12  14
ENDBRANCH   3  10
ENDBRANCH   2   5
ENDBRANCH   1   2
BRANCH   1  17
ATOM     17  C   UNL     1       2.560   2.339  18.969  0.00  0.00    +0.000 C 
BRANCH  17  18
ATOM     18  N   UNL     1       1.287   3.078  18.922  0.00  0.00    +0.000 NA
ATOM     19  C   UNL     1       0.885   3.681  20.216  0.00  0.00    +0.000 C 
ATOM     20  C   UNL     1       1.729   4.889  20.690  0.00  0.00    +0.000 C 
ATOM     21  N   UNL     1       1.827   5.917  19.636  0.00  0.00    +0.000 N 
ATOM     22  C   UNL     1       2.141   5.422  18.291  0.00  0.00    +0.000 C 
ATOM     23  C   UNL     1       1.317   4.168  17.922  0.00  0.00    +0.000 C 
BRANCH  21  24
ATOM     24  C   UNL     1       1.611   7.265  19.899  0.00  0.00    +0.000 A 
ATOM     25  C   UNL     1       1.108   7.627  21.169  0.00  0.00    +0.000 A 
ATOM     26  C   UNL     1       0.846   8.946  21.531  0.00  0.00    +0.000 A 
ATOM     27  C   UNL     1       1.060   9.962  20.617  0.00  0.00    +0.000 A 
ATOM     28  C   UNL     1       1.545   9.670  19.336  0.00  0.00    +0.000 A 
ATOM     29  C   UNL     1       1.744  10.826  18.389  0.00  0.00    +0.000 C 
ATOM     30  C   UNL     1       1.839   8.323  18.968  0.00  0.00    +0.000 A 
ATOM     31  C   UNL     1       2.465   8.066  17.613  0.00  0.00    +0.000 C 
ENDBRANCH  21  24
ENDBRANCH  17  18
ENDBRANCH   1  17
TORSDOF 7
ENDMDL
MODEL 7
REMARK VINA RESULT:      -7.6      2.592      3.293
REMARK  Name = 
REMARK  12 active torsions:
REMARK  status: ('A' for Active; 'I' for Inactive)
REMARK    1  A    between atoms: C_1  and  C_2
REMARK    2  A    between atoms: C_4  and  C_5
REMARK    3  A    between atoms: N_7  and  C_8
REMARK    4  A    between atoms: C_8  and  C_9
REMARK    5  A    between atoms: C_9  and  C_10
REMARK    6  A    between atoms: C_10  and  N_11
REMARK    7  A    between atoms: N_14  and  C_15
REMARK    8  A    between atoms: C_19  and  C_20
REMARK    9  A    between atoms: C_21  and  C_22
REMARK   10  A    between atoms: C_26  and  C_27
REMARK   11  A    between atoms: C_27  and  C_28
REMARK   12  A    between atoms: C_27  and  C_29
REMARK                            x       y       z     vdW  Elec       q    Type
REMARK                         _______ _______ _______ _____ _____    ______ ____
ROOT
ATOM      1  C   UNL     1       7.776   8.816  17.781  0.00  0.00    +0.000 C 
ENDROOT
BRANCH   1   2
ATOM      2  C   UNL     1       8.986   9.720  18.018  0.00  0.00    +0.000 C 
BRANCH   2   5
ATOM      3  C   UNL     1       9.856  11.237  19.790  0.00  0.00    +0.000 C 
ATOM      4  O   UNL     1      10.998  11.267  19.336  0.00  0.00    +0.000 OA
ATOM      5  N   UNL     1       8.836  10.477  19.250  0.00  0.00    +0.000 N 
ATOM      6  H   UNL     1       7.913  10.609  19.658  0.00  0.00    +0.000 HD
BRANCH   3  10
ATOM      7  C   UNL     1       7.331  11.688  23.923  0.00  0.00    +0.000 C 
ATOM      8  C   UNL     1       8.281  12.259  22.917  0.00  0.00    +0.000 A 
ATOM      9  N   UNL     1       8.614  11.496  21.862  0.00  0.00    +0.000 NA
ATOM     10  C   UNL     1       9.477  12.065  20.988  0.00  0.00    +0.000 A 
ATOM     11  C   UNL     1       9.998  13.332  21.124  0.00  0.00    +0.000 A 
ATOM     12  C   UNL     1       9.587  14.045  22.238  0.00  0.00    +0.000 A 
ATOM     13  N   UNL     1       8.733  13.510  23.139  0.00  0.00    +0.000 NA
BRANCH  12  14
ATOM     14  C   UNL     1      10.067  15.467  22.469  0.00  0.00    +0.000 C 
ATOM     15  C   UNL     1      10.575  16.092  21.169  0.00  0.00    +0.000 C 
ATOM     16  C   UNL     1       8.972  16.341  23.084  0.00  0.00    +0.000 C 
ENDBRANCH  12  14
ENDBRANCH   3  10
ENDBRANCH   2   5
ENDBRANCH   1   2
BRANCH   1  17
ATOM     17  C   UNL     1       7.979   7.388  18.307  0.00  0.00    +0.000 C 
BRANCH  17  18
ATOM     18  N   UNL     1       7.557   6.381  17.318  0.00  0.00    +0.000 NA
ATOM     19  C   UNL     1       7.502   4.997  17.847  0.00  0.00    +0.000 C 
ATOM     20  C   UNL     1       6.356   4.699  18.844  0.00  0.00    +0.000 C 
ATOM     21  N   UNL     1       5.050   5.108  18.293  0.00  0.00    +0.000 N 
ATOM     22  C   UNL     1       5.009   6.434  17.669  0.00  0.00    +0.000 C 
ATOM     23  C   UNL     1       6.226   6.687  16.751  0.00  0.00    +0.000 C 
BRANCH  21  24
ATOM     24  C   UNL     1       3.937   4.275  18.341  0.00  0.00    +0.000 A 
ATOM     25  C   UNL     1       3.828   3.246  17.381  0.00  0.00    +0.000 A 
ATOM     26  C   UNL     1       2.751   2.364  17.334  0.00  0.00    +0.000 A 
ATOM     27  C   UNL     1       1.719   2.496  18.246  0.00  0.00    +0.000 A 
ATOM     28  C   UNL     1       1.759   3.504  19.218  0.00  0.00    +0.000 A 
ATOM     29  C   UNL     1       0.596   3.594  20.173  0.00  0.00    +0.000 C 
ATOM     30  C   UNL     1       2.872   4.393  19.286  0.00  0.00    +0.000 A 
ATOM     31  C   UNL     1       2.926   5.396  20.419  0.00  0.00    +0.000 C 
ENDBRANCH  21  24
ENDBRANCH  17  18
ENDBRANCH   1  17
TORSDOF 7
ENDMDL
MODEL 8
REMARK VINA RESULT:      -7.5      1.057      1.274
REMARK  Name = 
REMARK  12 active torsions:
REMARK  status: ('A' for Active; 'I' for Inactive)
REMARK    1  A    between atoms: C_1  and  C_2
REMARK    2  A    between atoms: C_4  and  C_5
REMARK    3  A    between atoms: N_7  and  C_8
REMARK    4  A    between atoms: C_8  and  C_9
REMARK    5  A    between atoms: C_9  and  C_10
REMARK    6  A    between atoms: C_10  and  N_11
REMARK    7  A    between atoms: N_14  and  C_15
REMARK    8  A    between atoms: C_19  and  C_20
REMARK    9  A    between atoms: C_21  and  C_22
REMARK   10  A    between atoms: C_26  and  C_27
REMARK   11  A    between atoms: C_27  and  C_28
REMARK   12  A    between atoms: C_27  and  C_29
REMARK                            x       y       z     vdW  Elec       q    Type
REMARK                         _______ _______ _______ _____ _____    ______ ____
ROOT
ATOM      1  C   UNL     1       8.275   8.917  17.470  0.00  0.00    +0.000 C 
ENDROOT
BRANCH   1   2
ATOM      2  C   UNL     1       8.988   9.231  18.785  0.00  0.00    +0.000 C 
BRANCH   2   5
ATOM      3  C   UNL     1       9.920  11.512  18.432  0.00  0.00    +0.000 C 
ATOM      4  O   UNL     1      10.839  11.128  17.712  0.00  0.00    +0.000 OA
ATOM      5  N   UNL     1       9.012  10.663  19.035  0.00  0.00    +0.000 N 
ATOM      6  H   UNL     1       8.241  11.106  19.529  0.00  0.00    +0.000 HD
BRANCH   3  10
ATOM      7  C   UNL     1      11.422  15.643  20.514  0.00  0.00    +0.000 C 
ATOM      8  C   UNL     1      10.421  14.901  19.686  0.00  0.00    +0.000 A 
ATOM      9  N   UNL     1      10.641  13.595  19.452  0.00  0.00    +0.000 NA
ATOM     10  C   UNL     1       9.704  12.978  18.697  0.00  0.00    +0.000 A 
ATOM     11  C   UNL     1       8.584  13.598  18.188  0.00  0.00    +0.000 A 
ATOM     12  C   UNL     1       8.439  14.941  18.491  0.00  0.00    +0.000 A 
ATOM     13  N   UNL     1       9.357  15.596  19.235  0.00  0.00    +0.000 NA
BRANCH  12  14
ATOM     14  C   UNL     1       7.223  15.715  18.015  0.00  0.00    +0.000 C 
ATOM     15  C   UNL     1       5.943  14.902  18.210  0.00  0.00    +0.000 C 
ATOM     16  C   UNL     1       7.102  17.068  18.721  0.00  0.00    +0.000 C 
ENDBRANCH  12  14
ENDBRANCH   3  10
ENDBRANCH   2   5
ENDBRANCH   1   2
BRANCH   1  17
ATOM     17  C   UNL     1       6.919   8.225  17.670  0.00  0.00    +0.000 C 
BRANCH  17  18
ATOM     18  N   UNL     1       6.869   6.921  16.987  0.00  0.00    +0.000 NA
ATOM     19  C   UNL     1       7.120   5.760  17.875  0.00  0.00    +0.000 C 
ATOM     20  C   UNL     1       5.997   5.428  18.888  0.00  0.00    +0.000 C 
ATOM     21  N   UNL     1       4.690   5.307  18.214  0.00  0.00    +0.000 N 
ATOM     22  C   UNL     1       4.371   6.363  17.248  0.00  0.00    +0.000 C 
ATOM     23  C   UNL     1       5.566   6.693  16.326  0.00  0.00    +0.000 C 
BRANCH  21  24
ATOM     24  C   UNL     1       3.830   4.243  18.463  0.00  0.00    +0.000 A 
ATOM     25  C   UNL     1       3.977   3.068  17.695  0.00  0.00    +0.000 A 
ATOM     26  C   UNL     1       3.162   1.950  17.856  0.00  0.00    +0.000 A 
ATOM     27  C   UNL     1       2.143   1.976  18.791  0.00  0.00    +0.000 A 
ATOM     28  C   UNL     1       1.934   3.115  19.578  0.00  0.00    +0.000 A 
ATOM     29  C   UNL     1       0.799   3.077  20.569  0.00  0.00    +0.000 C 
ATOM     30  C   UNL     1       2.782   4.254  19.434  0.00  0.00    +0.000 A 
ATOM     31  C   UNL     1       2.590   5.420  20.380  0.00  0.00    +0.000 C 
ENDBRANCH  21  24
ENDBRANCH  17  18
ENDBRANCH   1  17
TORSDOF 7
ENDMDL
MODEL 9
REMARK VINA RESULT:      -7.4      6.755     10.953
REMARK  Name = 
REMARK  12 active torsions:
REMARK  status: ('A' for Active; 'I' for Inactive)
REMARK    1  A    between atoms: C_1  and  C_2
REMARK    2  A    between atoms: C_4  and  C_5
REMARK    3  A    between atoms: N_7  and  C_8
REMARK    4  A    between atoms: C_8  and  C_9
REMARK    5  A    between atoms: C_9  and  C_10
REMARK    6  A    between atoms: C_10  and  N_11
REMARK    7  A    between atoms: N_14  and  C_15
REMARK    8  A    between atoms: C_19  and  C_20
REMARK    9  A    between atoms: C_21  and  C_22
REMARK   10  A    between atoms: C_26  and  C_27
REMARK   11  A    between atoms: C_27  and  C_28
REMARK   12  A    between atoms: C_27  and  C_29
REMARK                            x       y       z     vdW  Elec       q    Type
REMARK                         _______ _______ _______ _____ _____    ______ ____
ROOT
ATOM      1  C   UNL     1       2.038  10.502  18.184  0.00  0.00    +0.000 C 
ENDROOT
BRANCH   1   2
ATOM      2  C   UNL     1       1.257   9.248  17.795  0.00  0.00    +0.000 C 
BRANCH   2   5
ATOM      3  C   UNL     1       2.484   7.220  18.558  0.00  0.00    +0.000 C 
ATOM      4  O   UNL     1       2.130   7.332  19.730  0.00  0.00    +0.000 OA
ATOM      5  N   UNL     1       2.154   8.126  17.568  0.00  0.00    +0.000 N 
ATOM      6  H   UNL     1       2.426   7.875  16.620  0.00  0.00    +0.000 HD
BRANCH   3  10
ATOM      7  C   UNL     1       2.845   2.439  17.742  0.00  0.00    +0.000 C 
ATOM      8  C   UNL     1       3.460   3.803  17.737  0.00  0.00    +0.000 A 
ATOM      9  N   UNL     1       2.700   4.838  18.133  0.00  0.00    +0.000 NA
ATOM     10  C   UNL     1       3.309   6.046  18.106  0.00  0.00    +0.000 A 
ATOM     11  C   UNL     1       4.615   6.249  17.715  0.00  0.00    +0.000 A 
ATOM     12  C   UNL     1       5.320   5.120  17.335  0.00  0.00    +0.000 A 
ATOM     13  N   UNL     1       4.746   3.897  17.340  0.00  0.00    +0.000 NA
BRANCH  12  14
ATOM     14  C   UNL     1       6.778   5.220  16.923  0.00  0.00    +0.000 C 
ATOM     15  C   UNL     1       6.949   4.923  15.432  0.00  0.00    +0.000 C 
ATOM     16  C   UNL     1       7.368   6.592  17.259  0.00  0.00    +0.000 C 
ENDBRANCH  12  14
ENDBRANCH   3  10
ENDBRANCH   2   5
ENDBRANCH   1   2
BRANCH   1  17
ATOM     17  C   UNL     1       1.210  11.494  19.013  0.00  0.00    +0.000 C 
BRANCH  17  18
ATOM     18  N   UNL     1      -0.046  10.888  19.487  0.00  0.00    +0.000 NA
ATOM     19  C   UNL     1      -0.014  10.452  20.904  0.00  0.00    +0.000 C 
ATOM     20  C   UNL     1       0.000  11.583  21.960  0.00  0.00    +0.000 C 
ATOM     21  N   UNL     1      -1.096  12.544  21.727  0.00  0.00    +0.000 N 
ATOM     22  C   UNL     1      -1.273  12.983  20.339  0.00  0.00    +0.000 C 
ATOM     23  C   UNL     1      -1.195  11.808  19.339  0.00  0.00    +0.000 C 
BRANCH  21  24
ATOM     24  C   UNL     1      -1.922  12.981  22.756  0.00  0.00    +0.000 A 
ATOM     25  C   UNL     1      -3.014  12.169  23.131  0.00  0.00    +0.000 A 
ATOM     26  C   UNL     1      -3.908  12.519  24.140  0.00  0.00    +0.000 A 
ATOM     27  C   UNL     1      -3.751  13.721  24.806  0.00  0.00    +0.000 A 
ATOM     28  C   UNL     1      -2.695  14.580  24.475  0.00  0.00    +0.000 A 
ATOM     29  C   UNL     1      -2.591  15.878  25.235  0.00  0.00    +0.000 C 
ATOM     30  C   UNL     1      -1.763  14.215  23.459  0.00  0.00    +0.000 A 
ATOM     31  C   UNL     1      -0.575  15.121  23.210  0.00  0.00    +0.000 C 
ENDBRANCH  21  24
ENDBRANCH  17  18
ENDBRANCH   1  17
TORSDOF 7
ENDMDL
