MODEL 1
REMARK VINA RESULT:      -7.4      0.000      0.000
REMARK  Name = 
REMARK  10 active torsions:
REMARK  status: ('A' for Active; 'I' for Inactive)
REMARK    1  A    between atoms: C_1  and  C_2
REMARK    2  A    between atoms: C_2  and  N_3
REMARK    3  A    between atoms: N_3  and  C_30
REMARK    4  A    between atoms: C_4  and  C_6
REMARK    5  A    between atoms: C_6  and  C_7
REMARK    6  A    between atoms: C_7  and  N_8
REMARK    7  A    between atoms: C_11  and  C_12
REMARK    8  A    between atoms: C_21  and  C_22
REMARK    9  A    between atoms: C_25  and  C_26
REMARK   10  A    between atoms: C_26  and  C_27
REMARK                            x       y       z     vdW  Elec       q    Type
REMARK                         _______ _______ _______ _____ _____    ______ ____
ROOT
ATOM      1  N   UNL     1       1.096   9.793  20.071  0.00  0.00    +0.000 N 
ATOM      2  C   UNL     1       1.444   8.472  19.799  0.00  0.00    +0.000 A 
ATOM      3  C   UNL     1       1.362   7.265  20.520  0.00  0.00    +0.000 A 
ATOM      4  C   UNL     1       1.821   6.086  19.893  0.00  0.00    +0.000 A 
ATOM      5  C   UNL     1       2.365   6.138  18.601  0.00  0.00    +0.000 A 
ATOM      6  C   UNL     1       2.460   7.345  17.908  0.00  0.00    +0.000 A 
ATOM      7  C   UNL     1       1.981   8.508  18.518  0.00  0.00    +0.000 A 
ATOM      8  N   UNL     1       1.964   9.765  18.014  0.00  0.00    +0.000 NA
ATOM      9  C   UNL     1       1.468  10.546  18.952  0.00  0.00    +0.000 A 
ENDROOT
BRANCH   4  10
ATOM     10  C   UNL     1       1.749   4.799  20.566  0.00  0.00    +0.000 A 
ATOM     11  C   UNL     1       2.555   4.247  21.590  0.00  0.00    +0.000 A 
ATOM     12  N   UNL     1       2.190   3.007  21.927  0.00  0.00    +0.000 NA
ATOM     13  N   UNL     1       1.157   2.754  21.110  0.00  0.00    +0.000 N 
ATOM     14  C   UNL     1       0.853   3.794  20.278  0.00  0.00    +0.000 A 
ATOM     15  H   UNL     1       0.704   1.847  21.179  0.00  0.00    +0.000 HD
ENDBRANCH   4  10
BRANCH   9  16
ATOM     16  C   UNL     1       1.435  12.042  18.762  0.00  0.00    +0.000 C 
ATOM     17  C   UNL     1      -0.015  12.541  18.601  0.00  0.00    +0.000 C 
ATOM     18  C   UNL     1      -0.032  14.023  18.249  0.00  0.00    +0.000 C 
ATOM     19  C   UNL     1       0.683  14.895  19.295  0.00  0.00    +0.000 C 
ATOM     20  C   UNL     1       2.055  14.324  19.687  0.00  0.00    +0.000 C 
ATOM     21  C   UNL     1       2.036  12.813  19.953  0.00  0.00    +0.000 C 
BRANCH  19  22
ATOM     22  C   UNL     1       0.785  16.332  18.740  0.00  0.00    +0.000 C 
ATOM     23  C   UNL     1       2.160  16.709  18.214  0.00  0.00    +0.000 C 
ENDBRANCH  19  22
ENDBRANCH   9  16
BRANCH   1  24
ATOM     24  C   UNL     1       0.531  10.224  21.356  0.00  0.00    +0.000 C 
BRANCH  24  25
ATOM     25  C   UNL     1      -0.874  10.806  21.293  0.00  0.00    +0.000 C 
BRANCH  25  27
ATOM     26  N   UNL     1      -2.386  12.575  22.272  0.00  0.00    +0.000 N 
ATOM     27  C   UNL     1      -1.317  11.670  22.471  0.00  0.00    +0.000 C 
ATOM     28  O   UNL     1      -0.784  11.485  23.566  0.00  0.00    +0.000 OA
BRANCH  26  29
ATOM     29  C   UNL     1      -2.691  13.159  20.926  0.00  0.00    +0.000 C 
ATOM     30  C   UNL     1      -3.920  12.628  20.163  0.00  0.00    +0.000 C 
ATOM     31  C   UNL     1      -5.252  13.244  20.592  0.00  0.00    +0.000 C 
ATOM     32  C   UNL     1      -5.212  14.768  20.645  0.00  0.00    +0.000 C 
ATOM     33  C   UNL     1      -3.996  15.315  21.389  0.00  0.00    +0.000 C 
ATOM     34  C   UNL     1      -2.691  14.697  20.910  0.00  0.00    +0.000 C 
ENDBRANCH  26  29
BRANCH  26  36
ATOM     35  C   UNL     1      -4.128  12.561  24.193  0.00  0.00    +0.000 C 
ATOM     36  C   UNL     1      -2.994  13.242  23.438  0.00  0.00    +0.000 C 
ENDBRANCH  26  36
ENDBRANCH  25  27
ENDBRANCH  24  25
ENDBRANCH   1  24
TORSDOF 8
ENDMDL
MODEL 2
REMARK VINA RESULT:      -7.2      2.468      4.942
REMARK  Name = 
REMARK  10 active torsions:
REMARK  status: ('A' for Active; 'I' for Inactive)
REMARK    1  A    between atoms: C_1  and  C_2
REMARK    2  A    between atoms: C_2  and  N_3
REMARK    3  A    between atoms: N_3  and  C_30
REMARK    4  A    between atoms: C_4  and  C_6
REMARK    5  A    between atoms: C_6  and  C_7
REMARK    6  A    between atoms: C_7  and  N_8
REMARK    7  A    between atoms: C_11  and  C_12
REMARK    8  A    between atoms: C_21  and  C_22
REMARK    9  A    between atoms: C_25  and  C_26
REMARK   10  A    between atoms: C_26  and  C_27
REMARK                            x       y       z     vdW  Elec       q    Type
REMARK                         _______ _______ _______ _____ _____    ______ ____
ROOT
ATOM      1  N   UNL     1       1.214  10.049  19.465  0.00  0.00    +0.000 N 
ATOM      2  C   UNL     1       1.761   8.776  19.324  0.00  0.00    +0.000 A 
ATOM      3  C   UNL     1       2.525   8.139  18.326  0.00  0.00    +0.000 A 
ATOM      4  C   UNL     1       2.916   6.800  18.546  0.00  0.00    +0.000 A 
ATOM      5  C   UNL     1       2.523   6.131  19.714  0.00  0.00    +0.000 A 
ATOM      6  C   UNL     1       1.748   6.768  20.682  0.00  0.00    +0.000 A 
ATOM      7  C   UNL     1       1.383   8.102  20.478  0.00  0.00    +0.000 A 
ATOM      8  N   UNL     1       0.655   8.900  21.296  0.00  0.00    +0.000 NA
ATOM      9  C   UNL     1       0.520  10.056  20.680  0.00  0.00    +0.000 A 
ENDROOT
BRANCH   4  10
ATOM     10  C   UNL     1       3.724   6.083  17.571  0.00  0.00    +0.000 A 
ATOM     11  C   UNL     1       3.813   4.699  17.286  0.00  0.00    +0.000 A 
ATOM     12  N   UNL     1       4.706   4.423  16.331  0.00  0.00    +0.000 NA
ATOM     13  N   UNL     1       5.202   5.627  16.010  0.00  0.00    +0.000 N 
ATOM     14  C   UNL     1       4.646   6.652  16.722  0.00  0.00    +0.000 A 
ATOM     15  H   UNL     1       5.918   5.673  15.292  0.00  0.00    +0.000 HD
ENDBRANCH   4  10
BRANCH   9  16
ATOM     16  C   UNL     1      -0.358  11.134  21.264  0.00  0.00    +0.000 C 
ATOM     17  C   UNL     1      -1.600  11.368  20.380  0.00  0.00    +0.000 C 
ATOM     18  C   UNL     1      -2.396  12.564  20.885  0.00  0.00    +0.000 C 
ATOM     19  C   UNL     1      -2.847  12.407  22.347  0.00  0.00    +0.000 C 
ATOM     20  C   UNL     1      -1.703  11.940  23.261  0.00  0.00    +0.000 C 
ATOM     21  C   UNL     1      -0.881  10.788  22.672  0.00  0.00    +0.000 C 
BRANCH  19  22
ATOM     22  C   UNL     1      -3.457  13.747  22.812  0.00  0.00    +0.000 C 
ATOM     23  C   UNL     1      -3.104  14.141  24.237  0.00  0.00    +0.000 C 
ENDBRANCH  19  22
ENDBRANCH   9  16
BRANCH   1  24
ATOM     24  C   UNL     1       1.328  11.089  18.434  0.00  0.00    +0.000 C 
BRANCH  24  25
ATOM     25  C   UNL     1       1.699  12.476  18.940  0.00  0.00    +0.000 C 
BRANCH  25  27
ATOM     26  N   UNL     1       0.828  14.782  19.484  0.00  0.00    +0.000 N 
ATOM     27  C   UNL     1       0.656  13.576  18.763  0.00  0.00    +0.000 C 
ATOM     28  O   UNL     1      -0.244  13.404  17.941  0.00  0.00    +0.000 OA
BRANCH  26  29
ATOM     29  C   UNL     1       1.564  14.828  20.789  0.00  0.00    +0.000 C 
ATOM     30  C   UNL     1       2.406  16.079  21.106  0.00  0.00    +0.000 C 
ATOM     31  C   UNL     1       1.609  17.262  21.658  0.00  0.00    +0.000 C 
ATOM     32  C   UNL     1       0.688  16.872  22.809  0.00  0.00    +0.000 C 
ATOM     33  C   UNL     1      -0.150  15.628  22.519  0.00  0.00    +0.000 C 
ATOM     34  C   UNL     1       0.688  14.468  22.001  0.00  0.00    +0.000 C 
ENDBRANCH  26  29
BRANCH  26  36
ATOM     35  C   UNL     1       0.483  16.989  18.168  0.00  0.00    +0.000 C 
ATOM     36  C   UNL     1      -0.017  15.946  19.157  0.00  0.00    +0.000 C 
ENDBRANCH  26  36
ENDBRANCH  25  27
ENDBRANCH  24  25
ENDBRANCH   1  24
TORSDOF 8
ENDMDL
MODEL 3
REMARK VINA RESULT:      -7.1      1.255      1.861
REMARK  Name = 
REMARK  10 active torsions:
REMARK  status: ('A' for Active; 'I' for Inactive)
REMARK    1  A    between atoms: C_1  and  C_2
REMARK    2  A    between atoms: C_2  and  N_3
REMARK    3  A    between atoms: N_3  and  C_30
REMARK    4  A    between atoms: C_4  and  C_6
REMARK    5  A    between atoms: C_6  and  C_7
REMARK    6  A    between atoms: C_7  and  N_8
REMARK    7  A    between atoms: C_11  and  C_12
REMARK    8  A    between atoms: C_21  and  C_22
REMARK    9  A    between atoms: C_25  and  C_26
REMARK   10  A    between atoms: C_26  and  C_27
REMARK                            x       y       z     vdW  Elec       q    Type
REMARK                         _______ _______ _______ _____ _____    ______ ____
ROOT
ATOM      1  N   UNL     1       0.984  10.063  20.458  0.00  0.00    +0.000 N 
ATOM      2  C   UNL     1       1.484   8.875  19.928  0.00  0.00    +0.000 A 
ATOM      3  C   UNL     1       1.720   7.588  20.451  0.00  0.00    +0.000 A 
ATOM      4  C   UNL     1       2.243   6.606  19.581  0.00  0.00    +0.000 A 
ATOM      5  C   UNL     1       2.538   6.927  18.248  0.00  0.00    +0.000 A 
ATOM      6  C   UNL     1       2.317   8.211  17.751  0.00  0.00    +0.000 A 
ATOM      7  C   UNL     1       1.775   9.177  18.604  0.00  0.00    +0.000 A 
ATOM      8  N   UNL     1       1.471  10.465  18.316  0.00  0.00    +0.000 NA
ATOM      9  C   UNL     1       1.030  11.011  19.431  0.00  0.00    +0.000 A 
ENDROOT
BRANCH   4  10
ATOM     10  C   UNL     1       2.495   5.250  20.043  0.00  0.00    +0.000 A 
ATOM     11  C   UNL     1       3.340   4.240  19.523  0.00  0.00    +0.000 A 
ATOM     12  N   UNL     1       3.272   3.100  20.215  0.00  0.00    +0.000 NA
ATOM     13  N   UNL     1       2.374   3.369  21.174  0.00  0.00    +0.000 N 
ATOM     14  C   UNL     1       1.881   4.643  21.115  0.00  0.00    +0.000 A 
ATOM     15  H   UNL     1       2.148   2.635  21.837  0.00  0.00    +0.000 HD
ENDBRANCH   4  10
BRANCH   9  16
ATOM     16  C   UNL     1       0.728  12.488  19.490  0.00  0.00    +0.000 C 
ATOM     17  C   UNL     1       1.669  13.276  18.556  0.00  0.00    +0.000 C 
ATOM     18  C   UNL     1       1.470  14.775  18.741  0.00  0.00    +0.000 C 
ATOM     19  C   UNL     1       0.021  15.222  18.482  0.00  0.00    +0.000 C 
ATOM     20  C   UNL     1      -1.000  14.325  19.199  0.00  0.00    +0.000 C 
ATOM     21  C   UNL     1      -0.710  12.826  19.051  0.00  0.00    +0.000 C 
BRANCH  19  22
ATOM     22  C   UNL     1      -0.111  16.703  18.895  0.00  0.00    +0.000 C 
ATOM     23  C   UNL     1      -0.642  17.618  17.803  0.00  0.00    +0.000 C 
ENDBRANCH  19  22
ENDBRANCH   9  16
BRANCH   1  24
ATOM     24  C   UNL     1       0.592  10.210  21.865  0.00  0.00    +0.000 C 
BRANCH  24  25
ATOM     25  C   UNL     1      -0.743  10.901  22.106  0.00  0.00    +0.000 C 
BRANCH  25  27
ATOM     26  N   UNL     1      -1.844  12.884  23.213  0.00  0.00    +0.000 N 
ATOM     27  C   UNL     1      -0.693  12.348  22.589  0.00  0.00    +0.000 C 
ATOM     28  O   UNL     1       0.371  12.962  22.492  0.00  0.00    +0.000 OA
BRANCH  26  29
ATOM     29  C   UNL     1      -3.221  12.381  22.905  0.00  0.00    +0.000 C 
ATOM     30  C   UNL     1      -4.361  12.738  23.877  0.00  0.00    +0.000 C 
ATOM     31  C   UNL     1      -4.962  14.130  23.672  0.00  0.00    +0.000 C 
ATOM     32  C   UNL     1      -5.325  14.412  22.218  0.00  0.00    +0.000 C 
ATOM     33  C   UNL     1      -4.210  14.056  21.236  0.00  0.00    +0.000 C 
ATOM     34  C   UNL     1      -3.665  12.653  21.457  0.00  0.00    +0.000 C 
ENDBRANCH  26  29
BRANCH  26  36
ATOM     35  C   UNL     1      -1.556  15.458  23.091  0.00  0.00    +0.000 C 
ATOM     36  C   UNL     1      -1.752  14.185  23.902  0.00  0.00    +0.000 C 
ENDBRANCH  26  36
ENDBRANCH  25  27
ENDBRANCH  24  25
ENDBRANCH   1  24
TORSDOF 8
ENDMDL
MODEL 4
REMARK VINA RESULT:      -7.1      1.059      1.493
REMARK  Name = 
REMARK  10 active torsions:
REMARK  status: ('A' for Active; 'I' for Inactive)
REMARK    1  A    between atoms: C_1  and  C_2
REMARK    2  A    between atoms: C_2  and  N_3
REMARK    3  A    between atoms: N_3  and  C_30
REMARK    4  A    between atoms: C_4  and  C_6
REMARK    5  A    between atoms: C_6  and  C_7
REMARK    6  A    between atoms: C_7  and  N_8
REMARK    7  A    between atoms: C_11  and  C_12
REMARK    8  A    between atoms: C_21  and  C_22
REMARK    9  A    between atoms: C_25  and  C_26
REMARK   10  A    between atoms: C_26  and  C_27
REMARK                            x       y       z     vdW  Elec       q    Type
REMARK                         _______ _______ _______ _____ _____    ______ ____
ROOT
ATOM      1  N   UNL     1       1.167   9.965  20.020  0.00  0.00    +0.000 N 
ATOM      2  C   UNL     1       1.493   8.636  19.756  0.00  0.00    +0.000 A 
ATOM      3  C   UNL     1       1.408   7.438  20.492  0.00  0.00    +0.000 A 
ATOM      4  C   UNL     1       1.840   6.247  19.869  0.00  0.00    +0.000 A 
ATOM      5  C   UNL     1       2.363   6.278  18.568  0.00  0.00    +0.000 A 
ATOM      6  C   UNL     1       2.461   7.476  17.860  0.00  0.00    +0.000 A 
ATOM      7  C   UNL     1       2.008   8.652  18.466  0.00  0.00    +0.000 A 
ATOM      8  N   UNL     1       1.999   9.904  17.948  0.00  0.00    +0.000 NA
ATOM      9  C   UNL     1       1.529  10.700  18.887  0.00  0.00    +0.000 A 
ENDROOT
BRANCH   4  10
ATOM     10  C   UNL     1       1.764   4.967  20.557  0.00  0.00    +0.000 A 
ATOM     11  C   UNL     1       2.612   4.393  21.534  0.00  0.00    +0.000 A 
ATOM     12  N   UNL     1       2.223   3.169  21.904  0.00  0.00    +0.000 NA
ATOM     13  N   UNL     1       1.131   2.950  21.157  0.00  0.00    +0.000 N 
ATOM     14  C   UNL     1       0.814   3.995  20.336  0.00  0.00    +0.000 A 
ATOM     15  H   UNL     1       0.651   2.061  21.262  0.00  0.00    +0.000 HD
ENDBRANCH   4  10
BRANCH   9  16
ATOM     16  C   UNL     1       1.513  12.194  18.681  0.00  0.00    +0.000 C 
ATOM     17  C   UNL     1       0.066  12.728  18.664  0.00  0.00    +0.000 C 
ATOM     18  C   UNL     1       0.048  14.206  18.296  0.00  0.00    +0.000 C 
ATOM     19  C   UNL     1       0.888  15.071  19.251  0.00  0.00    +0.000 C 
ATOM     20  C   UNL     1       2.279  14.470  19.506  0.00  0.00    +0.000 C 
ATOM     21  C   UNL     1       2.252  12.964  19.793  0.00  0.00    +0.000 C 
BRANCH  19  22
ATOM     22  C   UNL     1       0.966  16.499  18.669  0.00  0.00    +0.000 C 
ATOM     23  C   UNL     1       2.251  16.805  17.918  0.00  0.00    +0.000 C 
ENDBRANCH  19  22
ENDBRANCH   9  16
BRANCH   1  24
ATOM     24  C   UNL     1       0.630  10.417  21.310  0.00  0.00    +0.000 C 
BRANCH  24  25
ATOM     25  C   UNL     1      -0.783  10.981  21.272  0.00  0.00    +0.000 C 
BRANCH  25  27
ATOM     26  N   UNL     1      -1.858  12.760  22.703  0.00  0.00    +0.000 N 
ATOM     27  C   UNL     1      -1.382  11.431  22.601  0.00  0.00    +0.000 C 
ATOM     28  O   UNL     1      -1.504  10.599  23.500  0.00  0.00    +0.000 OA
BRANCH  26  29
ATOM     29  C   UNL     1      -1.297  13.870  21.869  0.00  0.00    +0.000 C 
ATOM     30  C   UNL     1      -2.281  14.860  21.216  0.00  0.00    +0.000 C 
ATOM     31  C   UNL     1      -2.774  15.974  22.141  0.00  0.00    +0.000 C 
ATOM     32  C   UNL     1      -1.640  16.680  22.876  0.00  0.00    +0.000 C 
ATOM     33  C   UNL     1      -0.646  15.717  23.523  0.00  0.00    +0.000 C 
ATOM     34  C   UNL     1      -0.161  14.645  22.559  0.00  0.00    +0.000 C 
ENDBRANCH  26  29
BRANCH  26  36
ATOM     35  C   UNL     1      -4.157  12.899  23.894  0.00  0.00    +0.000 C 
ATOM     36  C   UNL     1      -2.656  13.153  23.880  0.00  0.00    +0.000 C 
ENDBRANCH  26  36
ENDBRANCH  25  27
ENDBRANCH  24  25
ENDBRANCH   1  24
TORSDOF 8
ENDMDL
MODEL 5
REMARK VINA RESULT:      -7.1      2.171      4.743
REMARK  Name = 
REMARK  10 active torsions:
REMARK  status: ('A' for Active; 'I' for Inactive)
REMARK    1  A    between atoms: C_1  and  C_2
REMARK    2  A    between atoms: C_2  and  N_3
REMARK    3  A    between atoms: N_3  and  C_30
REMARK    4  A    between atoms: C_4  and  C_6
REMARK    5  A    between atoms: C_6  and  C_7
REMARK    6  A    between atoms: C_7  and  N_8
REMARK    7  A    between atoms: C_11  and  C_12
REMARK    8  A    between atoms: C_21  and  C_22
REMARK    9  A    between atoms: C_25  and  C_26
REMARK   10  A    between atoms: C_26  and  C_27
REMARK                            x       y       z     vdW  Elec       q    Type
REMARK                         _______ _______ _______ _____ _____    ______ ____
ROOT
ATOM      1  N   UNL     1       0.580  10.765  19.886  0.00  0.00    +0.000 N 
ATOM      2  C   UNL     1       1.111   9.479  19.810  0.00  0.00    +0.000 A 
ATOM      3  C   UNL     1       1.898   8.795  18.863  0.00  0.00    +0.000 A 
ATOM      4  C   UNL     1       2.261   7.459  19.144  0.00  0.00    +0.000 A 
ATOM      5  C   UNL     1       1.819   6.840  20.323  0.00  0.00    +0.000 A 
ATOM      6  C   UNL     1       1.023   7.524  21.240  0.00  0.00    +0.000 A 
ATOM      7  C   UNL     1       0.686   8.854  20.976  0.00  0.00    +0.000 A 
ATOM      8  N   UNL     1      -0.056   9.693  21.739  0.00  0.00    +0.000 NA
ATOM      9  C   UNL     1      -0.153  10.827  21.076  0.00  0.00    +0.000 A 
ENDROOT
BRANCH   4  10
ATOM     10  C   UNL     1       3.088   6.694  18.224  0.00  0.00    +0.000 A 
ATOM     11  C   UNL     1       3.133   5.304  17.961  0.00  0.00    +0.000 A 
ATOM     12  N   UNL     1       4.064   4.977  17.060  0.00  0.00    +0.000 NA
ATOM     13  N   UNL     1       4.628   6.154  16.752  0.00  0.00    +0.000 N 
ATOM     14  C   UNL     1       4.079   7.212  17.420  0.00  0.00    +0.000 A 
ATOM     15  H   UNL     1       5.383   6.159  16.074  0.00  0.00    +0.000 HD
ENDBRANCH   4  10
BRANCH   9  16
ATOM     16  C   UNL     1      -1.032  11.939  21.591  0.00  0.00    +0.000 C 
ATOM     17  C   UNL     1      -2.157  12.257  20.585  0.00  0.00    +0.000 C 
ATOM     18  C   UNL     1      -2.941  13.484  21.033  0.00  0.00    +0.000 C 
ATOM     19  C   UNL     1      -3.555  13.322  22.434  0.00  0.00    +0.000 C 
ATOM     20  C   UNL     1      -2.543  12.775  23.453  0.00  0.00    +0.000 C 
ATOM     21  C   UNL     1      -1.721  11.593  22.925  0.00  0.00    +0.000 C 
BRANCH  19  22
ATOM     22  C   UNL     1      -4.142  14.683  22.865  0.00  0.00    +0.000 C 
ATOM     23  C   UNL     1      -5.492  14.596  23.560  0.00  0.00    +0.000 C 
ENDBRANCH  19  22
ENDBRANCH   9  16
BRANCH   1  24
ATOM     24  C   UNL     1       0.745  11.764  18.823  0.00  0.00    +0.000 C 
BRANCH  24  25
ATOM     25  C   UNL     1       1.976  12.651  18.940  0.00  0.00    +0.000 C 
BRANCH  25  27
ATOM     26  N   UNL     1       1.429  14.742  20.244  0.00  0.00    +0.000 N 
ATOM     27  C   UNL     1       2.099  13.496  20.205  0.00  0.00    +0.000 C 
ATOM     28  O   UNL     1       2.704  13.024  21.168  0.00  0.00    +0.000 OA
BRANCH  26  29
ATOM     29  C   UNL     1       1.139  15.526  19.000  0.00  0.00    +0.000 C 
ATOM     30  C   UNL     1      -0.333  15.716  18.587  0.00  0.00    +0.000 C 
ATOM     31  C   UNL     1      -1.060  16.846  19.317  0.00  0.00    +0.000 C 
ATOM     32  C   UNL     1      -0.279  18.156  19.312  0.00  0.00    +0.000 C 
ATOM     33  C   UNL     1       1.186  17.988  19.710  0.00  0.00    +0.000 C 
ATOM     34  C   UNL     1       1.877  16.874  18.938  0.00  0.00    +0.000 C 
ENDBRANCH  26  29
BRANCH  26  36
ATOM     35  C   UNL     1       0.091  15.287  22.397  0.00  0.00    +0.000 C 
ATOM     36  C   UNL     1       1.326  15.467  21.524  0.00  0.00    +0.000 C 
ENDBRANCH  26  36
ENDBRANCH  25  27
ENDBRANCH  24  25
ENDBRANCH   1  24
TORSDOF 8
ENDMDL
MODEL 6
REMARK VINA RESULT:      -7.0      0.764      1.224
REMARK  Name = 
REMARK  10 active torsions:
REMARK  status: ('A' for Active; 'I' for Inactive)
REMARK    1  A    between atoms: C_1  and  C_2
REMARK    2  A    between atoms: C_2  and  N_3
REMARK    3  A    between atoms: N_3  and  C_30
REMARK    4  A    between atoms: C_4  and  C_6
REMARK    5  A    between atoms: C_6  and  C_7
REMARK    6  A    between atoms: C_7  and  N_8
REMARK    7  A    between atoms: C_11  and  C_12
REMARK    8  A    between atoms: C_21  and  C_22
REMARK    9  A    between atoms: C_25  and  C_26
REMARK   10  A    between atoms: C_26  and  C_27
REMARK                            x       y       z     vdW  Elec       q    Type
REMARK                         _______ _______ _______ _____ _____    ______ ____
ROOT
ATOM      1  N   UNL     1       1.036   9.883  20.105  0.00  0.00    +0.000 N 
ATOM      2  C   UNL     1       1.553   8.669  19.658  0.00  0.00    +0.000 A 
ATOM      3  C   UNL     1       1.566   7.357  20.171  0.00  0.00    +0.000 A 
ATOM      4  C   UNL     1       2.199   6.353  19.405  0.00  0.00    +0.000 A 
ATOM      5  C   UNL     1       2.814   6.675  18.187  0.00  0.00    +0.000 A 
ATOM      6  C   UNL     1       2.811   7.982  17.703  0.00  0.00    +0.000 A 
ATOM      7  C   UNL     1       2.162   8.972  18.446  0.00  0.00    +0.000 A 
ATOM      8  N   UNL     1       2.030  10.287  18.147  0.00  0.00    +0.000 NA
ATOM      9  C   UNL     1       1.388  10.845  19.153  0.00  0.00    +0.000 A 
ENDROOT
BRANCH   4  10
ATOM     10  C   UNL     1       2.235   4.971  19.860  0.00  0.00    +0.000 A 
ATOM     11  C   UNL     1       1.282   4.211  20.578  0.00  0.00    +0.000 A 
ATOM     12  N   UNL     1       1.700   2.970  20.842  0.00  0.00    +0.000 NA
ATOM     13  N   UNL     1       2.929   2.935  20.307  0.00  0.00    +0.000 N 
ATOM     14  C   UNL     1       3.295   4.106  19.706  0.00  0.00    +0.000 A 
ATOM     15  H   UNL     1       3.461   2.073  20.387  0.00  0.00    +0.000 HD
ENDBRANCH   4  10
BRANCH   9  16
ATOM     16  C   UNL     1       1.193  12.339  19.198  0.00  0.00    +0.000 C 
ATOM     17  C   UNL     1       2.352  13.064  18.484  0.00  0.00    +0.000 C 
ATOM     18  C   UNL     1       2.234  14.571  18.673  0.00  0.00    +0.000 C 
ATOM     19  C   UNL     1       0.899  15.136  18.157  0.00  0.00    +0.000 C 
ATOM     20  C   UNL     1      -0.305  14.313  18.641  0.00  0.00    +0.000 C 
ATOM     21  C   UNL     1      -0.105  12.799  18.505  0.00  0.00    +0.000 C 
BRANCH  19  22
ATOM     22  C   UNL     1       0.804  16.617  18.583  0.00  0.00    +0.000 C 
ATOM     23  C   UNL     1      -0.388  17.364  18.006  0.00  0.00    +0.000 C 
ENDBRANCH  19  22
ENDBRANCH   9  16
BRANCH   1  24
ATOM     24  C   UNL     1       0.344  10.033  21.392  0.00  0.00    +0.000 C 
BRANCH  24  25
ATOM     25  C   UNL     1      -0.989  10.765  21.338  0.00  0.00    +0.000 C 
BRANCH  25  27
ATOM     26  N   UNL     1      -2.455  12.499  22.442  0.00  0.00    +0.000 N 
ATOM     27  C   UNL     1      -1.367  11.601  22.558  0.00  0.00    +0.000 C 
ATOM     28  O   UNL     1      -0.767  11.400  23.614  0.00  0.00    +0.000 OA
BRANCH  26  29
ATOM     29  C   UNL     1      -2.846  13.105  21.129  0.00  0.00    +0.000 C 
ATOM     30  C   UNL     1      -4.082  12.539  20.405  0.00  0.00    +0.000 C 
ATOM     31  C   UNL     1      -5.421  13.079  20.909  0.00  0.00    +0.000 C 
ATOM     32  C   UNL     1      -5.449  14.600  21.007  0.00  0.00    +0.000 C 
ATOM     33  C   UNL     1      -4.227  15.184  21.714  0.00  0.00    +0.000 C 
ATOM     34  C   UNL     1      -2.918  14.642  21.160  0.00  0.00    +0.000 C 
ENDBRANCH  26  29
BRANCH  26  36
ATOM     35  C   UNL     1      -4.157  12.487  24.398  0.00  0.00    +0.000 C 
ATOM     36  C   UNL     1      -2.997  13.137  23.656  0.00  0.00    +0.000 C 
ENDBRANCH  26  36
ENDBRANCH  25  27
ENDBRANCH  24  25
ENDBRANCH   1  24
TORSDOF 8
ENDMDL
MODEL 7
REMARK VINA RESULT:      -7.0      1.338      2.106
REMARK  Name = 
REMARK  10 active torsions:
REMARK  status: ('A' for Active; 'I' for Inactive)
REMARK    1  A    between atoms: C_1  and  C_2
REMARK    2  A    between atoms: C_2  and  N_3
REMARK    3  A    between atoms: N_3  and  C_30
REMARK    4  A    between atoms: C_4  and  C_6
REMARK    5  A    between atoms: C_6  and  C_7
REMARK    6  A    between atoms: C_7  and  N_8
REMARK    7  A    between atoms: C_11  and  C_12
REMARK    8  A    between atoms: C_21  and  C_22
REMARK    9  A    between atoms: C_25  and  C_26
REMARK   10  A    between atoms: C_26  and  C_27
REMARK                            x       y       z     vdW  Elec       q    Type
REMARK                         _______ _______ _______ _____ _____    ______ ____
ROOT
ATOM      1  N   UNL     1       0.948  10.072  20.404  0.00  0.00    +0.000 N 
ATOM      2  C   UNL     1       1.454   8.886  19.876  0.00  0.00    +0.000 A 
ATOM      3  C   UNL     1       1.607   7.576  20.371  0.00  0.00    +0.000 A 
ATOM      4  C   UNL     1       2.171   6.606  19.513  0.00  0.00    +0.000 A 
ATOM      5  C   UNL     1       2.585   6.961  18.220  0.00  0.00    +0.000 A 
ATOM      6  C   UNL     1       2.446   8.267  17.753  0.00  0.00    +0.000 A 
ATOM      7  C   UNL     1       1.864   9.222  18.592  0.00  0.00    +0.000 A 
ATOM      8  N   UNL     1       1.624  10.528  18.326  0.00  0.00    +0.000 NA
ATOM      9  C   UNL     1       1.108  11.052  19.419  0.00  0.00    +0.000 A 
ENDROOT
BRANCH   4  10
ATOM     10  C   UNL     1       2.342   5.228  19.945  0.00  0.00    +0.000 A 
ATOM     11  C   UNL     1       1.500   4.391  20.716  0.00  0.00    +0.000 A 
ATOM     12  N   UNL     1       2.028   3.184  20.934  0.00  0.00    +0.000 NA
ATOM     13  N   UNL     1       3.217   3.246  20.316  0.00  0.00    +0.000 N 
ATOM     14  C   UNL     1       3.451   4.447  19.708  0.00  0.00    +0.000 A 
ATOM     15  H   UNL     1       3.816   2.427  20.349  0.00  0.00    +0.000 HD
ENDBRANCH   4  10
BRANCH   9  16
ATOM     16  C   UNL     1       0.847  12.535  19.505  0.00  0.00    +0.000 C 
ATOM     17  C   UNL     1       2.158  13.331  19.342  0.00  0.00    +0.000 C 
ATOM     18  C   UNL     1       1.914  14.814  19.591  0.00  0.00    +0.000 C 
ATOM     19  C   UNL     1       0.848  15.410  18.655  0.00  0.00    +0.000 C 
ATOM     20  C   UNL     1      -0.413  14.536  18.581  0.00  0.00    +0.000 C 
ATOM     21  C   UNL     1      -0.113  13.041  18.412  0.00  0.00    +0.000 C 
BRANCH  19  22
ATOM     22  C   UNL     1       0.538  16.846  19.129  0.00  0.00    +0.000 C 
ATOM     23  C   UNL     1      -0.652  17.495  18.439  0.00  0.00    +0.000 C 
ENDBRANCH  19  22
ENDBRANCH   9  16
BRANCH   1  24
ATOM     24  C   UNL     1       0.444  10.186  21.779  0.00  0.00    +0.000 C 
BRANCH  24  25
ATOM     25  C   UNL     1      -0.058  11.565  22.183  0.00  0.00    +0.000 C 
BRANCH  25  27
ATOM     26  N   UNL     1      -1.916  12.884  23.268  0.00  0.00    +0.000 N 
ATOM     27  C   UNL     1      -1.341  11.618  23.008  0.00  0.00    +0.000 C 
ATOM     28  O   UNL     1      -1.868  10.555  23.340  0.00  0.00    +0.000 OA
BRANCH  26  29
ATOM     29  C   UNL     1      -1.091  14.133  23.324  0.00  0.00    +0.000 C 
ATOM     30  C   UNL     1      -0.998  15.002  22.055  0.00  0.00    +0.000 C 
ATOM     31  C   UNL     1      -2.183  15.945  21.838  0.00  0.00    +0.000 C 
ATOM     32  C   UNL     1      -2.527  16.761  23.079  0.00  0.00    +0.000 C 
ATOM     33  C   UNL     1      -2.614  15.921  24.351  0.00  0.00    +0.000 C 
ATOM     34  C   UNL     1      -1.402  15.021  24.541  0.00  0.00    +0.000 C 
ENDBRANCH  26  29
BRANCH  26  36
ATOM     35  C   UNL     1      -4.485  12.975  22.929  0.00  0.00    +0.000 C 
ATOM     36  C   UNL     1      -3.271  12.957  23.847  0.00  0.00    +0.000 C 
ENDBRANCH  26  36
ENDBRANCH  25  27
ENDBRANCH  24  25
ENDBRANCH   1  24
TORSDOF 8
ENDMDL
MODEL 8
REMARK VINA RESULT:      -7.0      2.732      4.736
REMARK  Name = 
REMARK  10 active torsions:
REMARK  status: ('A' for Active; 'I' for Inactive)
REMARK    1  A    between atoms: C_1  and  C_2
REMARK    2  A    between atoms: C_2  and  N_3
REMARK    3  A    between atoms: N_3  and  C_30
REMARK    4  A    between atoms: C_4  and  C_6
REMARK    5  A    between atoms: C_6  and  C_7
REMARK    6  A    between atoms: C_7  and  N_8
REMARK    7  A    between atoms: C_11  and  C_12
REMARK    8  A    between atoms: C_21  and  C_22
REMARK    9  A    between atoms: C_25  and  C_26
REMARK   10  A    between atoms: C_26  and  C_27
REMARK                            x       y       z     vdW  Elec       q    Type
REMARK                         _______ _______ _______ _____ _____    ______ ____
ROOT
ATOM      1  N   UNL     1      -0.379  11.164  20.305  0.00  0.00    +0.000 N 
ATOM      2  C   UNL     1       0.380   9.995  20.317  0.00  0.00    +0.000 A 
ATOM      3  C   UNL     1       1.089   9.272  19.337  0.00  0.00    +0.000 A 
ATOM      4  C   UNL     1       1.766   8.100  19.740  0.00  0.00    +0.000 A 
ATOM      5  C   UNL     1       1.701   7.668  21.072  0.00  0.00    +0.000 A 
ATOM      6  C   UNL     1       0.977   8.383  22.026  0.00  0.00    +0.000 A 
ATOM      7  C   UNL     1       0.328   9.558  21.635  0.00  0.00    +0.000 A 
ATOM      8  N   UNL     1      -0.405  10.399  22.402  0.00  0.00    +0.000 NA
ATOM      9  C   UNL     1      -0.861  11.344  21.605  0.00  0.00    +0.000 A 
ENDROOT
BRANCH   4  10
ATOM     10  C   UNL     1       2.536   7.312  18.789  0.00  0.00    +0.000 A 
ATOM     11  C   UNL     1       3.382   7.715  17.728  0.00  0.00    +0.000 A 
ATOM     12  N   UNL     1       3.891   6.683  17.050  0.00  0.00    +0.000 NA
ATOM     13  N   UNL     1       3.362   5.615  17.665  0.00  0.00    +0.000 N 
ATOM     14  C   UNL     1       2.546   5.938  18.712  0.00  0.00    +0.000 A 
ATOM     15  H   UNL     1       3.605   4.693  17.315  0.00  0.00    +0.000 HD
ENDBRANCH   4  10
BRANCH   9  16
ATOM     16  C   UNL     1      -1.832  12.376  22.122  0.00  0.00    +0.000 C 
ATOM     17  C   UNL     1      -2.545  11.868  23.392  0.00  0.00    +0.000 C 
ATOM     18  C   UNL     1      -3.637  12.843  23.814  0.00  0.00    +0.000 C 
ATOM     19  C   UNL     1      -3.103  14.262  24.076  0.00  0.00    +0.000 C 
ATOM     20  C   UNL     1      -2.180  14.751  22.949  0.00  0.00    +0.000 C 
ATOM     21  C   UNL     1      -1.151  13.705  22.503  0.00  0.00    +0.000 C 
BRANCH  19  22
ATOM     22  C   UNL     1      -4.309  15.200  24.292  0.00  0.00    +0.000 C 
ATOM     23  C   UNL     1      -5.636  14.649  23.794  0.00  0.00    +0.000 C 
ENDBRANCH  19  22
ENDBRANCH   9  16
BRANCH   1  24
ATOM     24  C   UNL     1      -0.635  11.940  19.084  0.00  0.00    +0.000 C 
BRANCH  24  25
ATOM     25  C   UNL     1      -1.997  12.615  19.009  0.00  0.00    +0.000 C 
BRANCH  25  27
ATOM     26  N   UNL     1      -4.466  12.102  18.913  0.00  0.00    +0.000 N 
ATOM     27  C   UNL     1      -3.157  11.772  18.488  0.00  0.00    +0.000 C 
ATOM     28  O   UNL     1      -2.917  10.896  17.657  0.00  0.00    +0.000 OA
BRANCH  26  29
ATOM     29  C   UNL     1      -4.728  12.774  20.226  0.00  0.00    +0.000 C 
ATOM     30  C   UNL     1      -4.847  14.310  20.247  0.00  0.00    +0.000 C 
ATOM     31  C   UNL     1      -6.219  14.850  19.841  0.00  0.00    +0.000 C 
ATOM     32  C   UNL     1      -7.367  14.166  20.575  0.00  0.00    +0.000 C 
ATOM     33  C   UNL     1      -7.264  12.642  20.574  0.00  0.00    +0.000 C 
ATOM     34  C   UNL     1      -5.894  12.150  21.013  0.00  0.00    +0.000 C 
ENDBRANCH  26  29
BRANCH  26  36
ATOM     35  C   UNL     1      -6.373  12.228  17.161  0.00  0.00    +0.000 C 
ATOM     36  C   UNL     1      -5.621  11.472  18.247  0.00  0.00    +0.000 C 
ENDBRANCH  26  36
ENDBRANCH  25  27
ENDBRANCH  24  25
ENDBRANCH   1  24
TORSDOF 8
ENDMDL
MODEL 9
REMARK VINA RESULT:      -7.0      2.292      6.032
REMARK  Name = 
REMARK  10 active torsions:
REMARK  status: ('A' for Active; 'I' for Inactive)
REMARK    1  A    between atoms: C_1  and  C_2
REMARK    2  A    between atoms: C_2  and  N_3
REMARK    3  A    between atoms: N_3  and  C_30
REMARK    4  A    between atoms: C_4  and  C_6
REMARK    5  A    between atoms: C_6  and  C_7
REMARK    6  A    between atoms: C_7  and  N_8
REMARK    7  A    between atoms: C_11  and  C_12
REMARK    8  A    between atoms: C_21  and  C_22
REMARK    9  A    between atoms: C_25  and  C_26
REMARK   10  A    between atoms: C_26  and  C_27
REMARK                            x       y       z     vdW  Elec       q    Type
REMARK                         _______ _______ _______ _____ _____    ______ ____
ROOT
ATOM      1  N   UNL     1      -0.908  11.753  20.710  0.00  0.00    +0.000 N 
ATOM      2  C   UNL     1      -0.106  10.620  20.829  0.00  0.00    +0.000 A 
ATOM      3  C   UNL     1       0.532   9.766  19.908  0.00  0.00    +0.000 A 
ATOM      4  C   UNL     1       1.293   8.691  20.418  0.00  0.00    +0.000 A 
ATOM      5  C   UNL     1       1.377   8.479  21.802  0.00  0.00    +0.000 A 
ATOM      6  C   UNL     1       0.722   9.321  22.700  0.00  0.00    +0.000 A 
ATOM      7  C   UNL     1      -0.009  10.401  22.197  0.00  0.00    +0.000 A 
ATOM      8  N   UNL     1      -0.697  11.337  22.894  0.00  0.00    +0.000 NA
ATOM      9  C   UNL     1      -1.267  12.129  22.009  0.00  0.00    +0.000 A 
ENDROOT
BRANCH   4  10
ATOM     10  C   UNL     1       1.996   7.779  19.530  0.00  0.00    +0.000 A 
ATOM     11  C   UNL     1       2.404   6.437  19.720  0.00  0.00    +0.000 A 
ATOM     12  N   UNL     1       3.065   5.942  18.670  0.00  0.00    +0.000 NA
ATOM     13  N   UNL     1       3.096   6.969  17.808  0.00  0.00    +0.000 N 
ATOM     14  C   UNL     1       2.469   8.090  18.275  0.00  0.00    +0.000 A 
ATOM     15  H   UNL     1       3.561   6.831  16.916  0.00  0.00    +0.000 HD
ENDBRANCH   4  10
BRANCH   9  16
ATOM     16  C   UNL     1      -2.223  13.207  22.454  0.00  0.00    +0.000 C 
ATOM     17  C   UNL     1      -3.383  12.606  23.273  0.00  0.00    +0.000 C 
ATOM     18  C   UNL     1      -4.427  13.672  23.580  0.00  0.00    +0.000 C 
ATOM     19  C   UNL     1      -3.847  14.874  24.345  0.00  0.00    +0.000 C 
ATOM     20  C   UNL     1      -2.542  15.387  23.716  0.00  0.00    +0.000 C 
ATOM     21  C   UNL     1      -1.558  14.270  23.350  0.00  0.00    +0.000 C 
BRANCH  19  22
ATOM     22  C   UNL     1      -4.931  15.970  24.419  0.00  0.00    +0.000 C 
ATOM     23  C   UNL     1      -4.493  17.245  25.121  0.00  0.00    +0.000 C 
ENDBRANCH  19  22
ENDBRANCH   9  16
BRANCH   1  24
ATOM     24  C   UNL     1      -1.315  12.315  19.416  0.00  0.00    +0.000 C 
BRANCH  24  25
ATOM     25  C   UNL     1      -0.261  13.150  18.702  0.00  0.00    +0.000 C 
BRANCH  25  27
ATOM     26  N   UNL     1       1.069  15.294  18.771  0.00  0.00    +0.000 N 
ATOM     27  C   UNL     1      -0.097  14.595  19.165  0.00  0.00    +0.000 C 
ATOM     28  O   UNL     1      -1.021  15.119  19.788  0.00  0.00    +0.000 OA
BRANCH  26  29
ATOM     29  C   UNL     1       2.356  14.587  18.477  0.00  0.00    +0.000 C 
ATOM     30  C   UNL     1       3.399  15.308  17.601  0.00  0.00    +0.000 C 
ATOM     31  C   UNL     1       4.271  16.319  18.347  0.00  0.00    +0.000 C 
ATOM     32  C   UNL     1       4.876  15.750  19.626  0.00  0.00    +0.000 C 
ATOM     33  C   UNL     1       3.861  15.023  20.505  0.00  0.00    +0.000 C 
ATOM     34  C   UNL     1       3.038  14.007  19.728  0.00  0.00    +0.000 C 
ENDBRANCH  26  29
BRANCH  26  36
ATOM     35  C   UNL     1       0.601  17.705  17.937  0.00  0.00    +0.000 C 
ATOM     36  C   UNL     1       1.146  16.750  18.991  0.00  0.00    +0.000 C 
ENDBRANCH  26  36
ENDBRANCH  25  27
ENDBRANCH  24  25
ENDBRANCH   1  24
TORSDOF 8
ENDMDL
