MODEL 1
REMARK VINA RESULT:      -8.5      0.000      0.000
REMARK  Name = 
REMARK  7 active torsions:
REMARK  status: ('A' for Active; 'I' for Inactive)
REMARK    1  A    between atoms: C_2  and  C_3
REMARK    2  A    between atoms: C_6  and  C_7
REMARK    3  A    between atoms: N_9  and  C_10
REMARK    4  A    between atoms: C_10  and  C_11
REMARK    5  A    between atoms: C_15  and  C_16
REMARK    6  A    between atoms: C_20  and  C_21
REMARK    7  A    between atoms: C_21  and  N_22
REMARK                            x       y       z     vdW  Elec       q    Type
REMARK                         _______ _______ _______ _____ _____    ______ ____
ROOT
ATOM      1  C   UNL     1       0.867   9.453  21.378  0.00  0.00    +0.000 A 
ATOM      2  C   UNL     1       0.798  10.275  20.249  0.00  0.00    +0.000 A 
ATOM      3  C   UNL     1       1.182   9.787  18.998  0.00  0.00    +0.000 A 
ATOM      4  C   UNL     1       1.649   8.476  18.857  0.00  0.00    +0.000 A 
ATOM      5  C   UNL     1       1.756   7.624  19.967  0.00  0.00    +0.000 A 
ATOM      6  C   UNL     1       1.368   8.147  21.223  0.00  0.00    +0.000 A 
ENDROOT
BRANCH   5   7
ATOM      7  C   UNL     1       2.215   6.219  19.849  0.00  0.00    +0.000 A 
ATOM      8  C   UNL     1       1.836   5.218  20.758  0.00  0.00    +0.000 A 
ATOM      9  C   UNL     1       2.356   3.920  20.665  0.00  0.00    +0.000 A 
ATOM     10  C   UNL     1       3.283   3.599  19.671  0.00  0.00    +0.000 A 
ATOM     11  C   UNL     1       3.690   4.567  18.745  0.00  0.00    +0.000 A 
ATOM     12  C   UNL     1       3.110   5.845  18.826  0.00  0.00    +0.000 A 
BRANCH  11  13
ATOM     13  C   UNL     1       4.675   4.220  17.636  0.00  0.00    +0.000 C 
BRANCH  13  14
ATOM     14  N   UNL     1       4.740   5.222  16.556  0.00  0.00    +0.000 NA
ATOM     15  C   UNL     1       5.583   6.390  16.883  0.00  0.00    +0.000 C 
ATOM     16  C   UNL     1       7.104   6.140  16.829  0.00  0.00    +0.000 C 
ATOM     17  N   UNL     1       7.568   5.517  15.584  0.00  0.00    +0.000 NA
ATOM     18  C   UNL     1       6.724   4.388  15.178  0.00  0.00    +0.000 C 
ATOM     19  C   UNL     1       5.205   4.652  15.278  0.00  0.00    +0.000 C 
ATOM     20  H   UNL     1       8.529   5.199  15.702  0.00  0.00    +0.000 HD
ENDBRANCH  13  14
ENDBRANCH  11  13
ENDBRANCH   5   7
BRANCH   1  21
ATOM     21  C   UNL     1       0.341   9.915  22.716  0.00  0.00    +0.000 C 
BRANCH  21  24
ATOM     22  C   UNL     1      -1.253  11.771  22.785  0.00  0.00    +0.000 C 
ATOM     23  O   UNL     1      -0.345  12.581  22.953  0.00  0.00    +0.000 OA
ATOM     24  N   UNL     1      -1.019  10.410  22.671  0.00  0.00    +0.000 N 
ATOM     25  H   UNL     1      -1.724   9.796  22.291  0.00  0.00    +0.000 HD
BRANCH  22  29
ATOM     26  C   UNL     1      -5.367  13.097  22.634  0.00  0.00    +0.000 A 
ATOM     27  C   UNL     1      -4.787  12.702  23.839  0.00  0.00    +0.000 A 
ATOM     28  C   UNL     1      -3.445  12.287  23.867  0.00  0.00    +0.000 A 
ATOM     29  C   UNL     1      -2.669  12.261  22.692  0.00  0.00    +0.000 A 
ATOM     30  C   UNL     1      -3.267  12.650  21.489  0.00  0.00    +0.000 A 
ATOM     31  C   UNL     1      -4.606  13.070  21.462  0.00  0.00    +0.000 A 
BRANCH  26  33
ATOM     32  N   UNL     1      -7.855  13.847  22.565  0.00  0.00    +0.000 NA
ATOM     33  C   UNL     1      -6.740  13.515  22.588  0.00  0.00    +0.000 C 
ENDBRANCH  26  33
ENDBRANCH  22  29
ENDBRANCH  21  24
ENDBRANCH   1  21
TORSDOF 7
ENDMDL
MODEL 2
REMARK VINA RESULT:      -8.2      0.822      1.485
REMARK  Name = 
REMARK  7 active torsions:
REMARK  status: ('A' for Active; 'I' for Inactive)
REMARK    1  A    between atoms: C_2  and  C_3
REMARK    2  A    between atoms: C_6  and  C_7
REMARK    3  A    between atoms: N_9  and  C_10
REMARK    4  A    between atoms: C_10  and  C_11
REMARK    5  A    between atoms: C_15  and  C_16
REMARK    6  A    between atoms: C_20  and  C_21
REMARK    7  A    between atoms: C_21  and  N_22
REMARK                            x       y       z     vdW  Elec       q    Type
REMARK                         _______ _______ _______ _____ _____    ______ ____
ROOT
ATOM      1  C   UNL     1       1.068   9.671  20.634  0.00  0.00    +0.000 A 
ATOM      2  C   UNL     1       1.037  10.483  19.495  0.00  0.00    +0.000 A 
ATOM      3  C   UNL     1       1.427   9.973  18.255  0.00  0.00    +0.000 A 
ATOM      4  C   UNL     1       1.863   8.648  18.135  0.00  0.00    +0.000 A 
ATOM      5  C   UNL     1       1.931   7.806  19.255  0.00  0.00    +0.000 A 
ATOM      6  C   UNL     1       1.538   8.352  20.499  0.00  0.00    +0.000 A 
ENDROOT
BRANCH   5   7
ATOM      7  C   UNL     1       2.356   6.388  19.159  0.00  0.00    +0.000 A 
ATOM      8  C   UNL     1       2.193   5.474  20.212  0.00  0.00    +0.000 A 
ATOM      9  C   UNL     1       2.683   4.165  20.117  0.00  0.00    +0.000 A 
ATOM     10  C   UNL     1       3.365   3.746  18.972  0.00  0.00    +0.000 A 
ATOM     11  C   UNL     1       3.552   4.626  17.900  0.00  0.00    +0.000 A 
ATOM     12  C   UNL     1       3.002   5.916  17.997  0.00  0.00    +0.000 A 
BRANCH  11  13
ATOM     13  C   UNL     1       4.267   4.171  16.632  0.00  0.00    +0.000 C 
BRANCH  13  14
ATOM     14  N   UNL     1       5.683   3.817  16.837  0.00  0.00    +0.000 NA
ATOM     15  C   UNL     1       6.437   3.646  15.578  0.00  0.00    +0.000 C 
ATOM     16  C   UNL     1       6.802   4.955  14.846  0.00  0.00    +0.000 C 
ATOM     17  N   UNL     1       7.460   5.955  15.694  0.00  0.00    +0.000 NA
ATOM     18  C   UNL     1       6.787   6.118  16.988  0.00  0.00    +0.000 C 
ATOM     19  C   UNL     1       6.397   4.793  17.681  0.00  0.00    +0.000 C 
ATOM     20  H   UNL     1       7.483   6.850  15.207  0.00  0.00    +0.000 HD
ENDBRANCH  13  14
ENDBRANCH  11  13
ENDBRANCH   5   7
BRANCH   1  21
ATOM     21  C   UNL     1       0.534  10.161  21.959  0.00  0.00    +0.000 C 
BRANCH  21  24
ATOM     22  C   UNL     1      -1.163  11.855  22.450  0.00  0.00    +0.000 C 
ATOM     23  O   UNL     1      -0.331  12.563  23.014  0.00  0.00    +0.000 OA
ATOM     24  N   UNL     1      -0.837  10.625  21.902  0.00  0.00    +0.000 N 
ATOM     25  H   UNL     1      -1.451  10.178  21.239  0.00  0.00    +0.000 HD
BRANCH  22  29
ATOM     26  C   UNL     1      -5.212  13.310  22.011  0.00  0.00    +0.000 A 
ATOM     27  C   UNL     1      -4.374  13.184  20.904  0.00  0.00    +0.000 A 
ATOM     28  C   UNL     1      -3.066  12.697  21.068  0.00  0.00    +0.000 A 
ATOM     29  C   UNL     1      -2.582  12.332  22.340  0.00  0.00    +0.000 A 
ATOM     30  C   UNL     1      -3.430  12.473  23.442  0.00  0.00    +0.000 A 
ATOM     31  C   UNL     1      -4.738  12.954  23.278  0.00  0.00    +0.000 A 
BRANCH  26  33
ATOM     32  N   UNL     1      -7.626  14.236  21.745  0.00  0.00    +0.000 NA
ATOM     33  C   UNL     1      -6.548  13.814  21.860  0.00  0.00    +0.000 C 
ENDBRANCH  26  33
ENDBRANCH  22  29
ENDBRANCH  21  24
ENDBRANCH   1  21
TORSDOF 7
ENDMDL
MODEL 3
REMARK VINA RESULT:      -8.1      4.064      5.915
REMARK  Name = 
REMARK  7 active torsions:
REMARK  status: ('A' for Active; 'I' for Inactive)
REMARK    1  A    between atoms: C_2  and  C_3
REMARK    2  A    between atoms: C_6  and  C_7
REMARK    3  A    between atoms: N_9  and  C_10
REMARK    4  A    between atoms: C_10  and  C_11
REMARK    5  A    between atoms: C_15  and  C_16
REMARK    6  A    between atoms: C_20  and  C_21
REMARK    7  A    between atoms: C_21  and  N_22
REMARK                            x       y       z     vdW  Elec       q    Type
REMARK                         _______ _______ _______ _____ _____    ______ ____
ROOT
ATOM      1  C   UNL     1       0.979  10.098  19.478  0.00  0.00    +0.000 A 
ATOM      2  C   UNL     1       0.683  10.476  20.792  0.00  0.00    +0.000 A 
ATOM      3  C   UNL     1       0.833   9.564  21.839  0.00  0.00    +0.000 A 
ATOM      4  C   UNL     1       1.273   8.259  21.589  0.00  0.00    +0.000 A 
ATOM      5  C   UNL     1       1.560   7.831  20.285  0.00  0.00    +0.000 A 
ATOM      6  C   UNL     1       1.390   8.773  19.243  0.00  0.00    +0.000 A 
ENDROOT
BRANCH   5   7
ATOM      7  C   UNL     1       2.059   6.466  19.987  0.00  0.00    +0.000 A 
ATOM      8  C   UNL     1       1.933   5.399  20.891  0.00  0.00    +0.000 A 
ATOM      9  C   UNL     1       2.491   4.144  20.611  0.00  0.00    +0.000 A 
ATOM     10  C   UNL     1       3.207   3.935  19.429  0.00  0.00    +0.000 A 
ATOM     11  C   UNL     1       3.358   4.973  18.503  0.00  0.00    +0.000 A 
ATOM     12  C   UNL     1       2.740   6.204  18.780  0.00  0.00    +0.000 A 
BRANCH  11  13
ATOM     13  C   UNL     1       4.107   4.748  17.195  0.00  0.00    +0.000 C 
BRANCH  13  14
ATOM     14  N   UNL     1       5.100   5.794  16.885  0.00  0.00    +0.000 NA
ATOM     15  C   UNL     1       6.229   5.837  17.836  0.00  0.00    +0.000 C 
ATOM     16  C   UNL     1       7.270   4.710  17.674  0.00  0.00    +0.000 C 
ATOM     17  N   UNL     1       7.771   4.546  16.305  0.00  0.00    +0.000 NA
ATOM     18  C   UNL     1       6.692   4.561  15.311  0.00  0.00    +0.000 C 
ATOM     19  C   UNL     1       5.642   5.676  15.519  0.00  0.00    +0.000 C 
ATOM     20  H   UNL     1       8.287   3.670  16.236  0.00  0.00    +0.000 HD
ENDBRANCH  13  14
ENDBRANCH  11  13
ENDBRANCH   5   7
BRANCH   1  21
ATOM     21  C   UNL     1       0.945  11.100  18.349  0.00  0.00    +0.000 C 
BRANCH  21  24
ATOM     22  C   UNL     1       1.717  13.396  18.696  0.00  0.00    +0.000 C 
ATOM     23  O   UNL     1       0.567  13.782  18.892  0.00  0.00    +0.000 OA
ATOM     24  N   UNL     1       2.014  12.075  18.399  0.00  0.00    +0.000 N 
ATOM     25  H   UNL     1       2.956  11.727  18.486  0.00  0.00    +0.000 HD
BRANCH  22  29
ATOM     26  C   UNL     1       4.955  16.235  19.098  0.00  0.00    +0.000 A 
ATOM     27  C   UNL     1       4.618  15.382  20.148  0.00  0.00    +0.000 A 
ATOM     28  C   UNL     1       3.571  14.459  19.991  0.00  0.00    +0.000 A 
ATOM     29  C   UNL     1       2.849  14.379  18.784  0.00  0.00    +0.000 A 
ATOM     30  C   UNL     1       3.191  15.247  17.743  0.00  0.00    +0.000 A 
ATOM     31  C   UNL     1       4.240  16.166  17.898  0.00  0.00    +0.000 A 
BRANCH  26  33
ATOM     32  N   UNL     1       6.876  17.967  19.354  0.00  0.00    +0.000 NA
ATOM     33  C   UNL     1       6.016  17.191  19.248  0.00  0.00    +0.000 C 
ENDBRANCH  26  33
ENDBRANCH  22  29
ENDBRANCH  21  24
ENDBRANCH   1  21
TORSDOF 7
ENDMDL
MODEL 4
REMARK VINA RESULT:      -8.1      0.755      1.330
REMARK  Name = 
REMARK  7 active torsions:
REMARK  status: ('A' for Active; 'I' for Inactive)
REMARK    1  A    between atoms: C_2  and  C_3
REMARK    2  A    between atoms: C_6  and  C_7
REMARK    3  A    between atoms: N_9  and  C_10
REMARK    4  A    between atoms: C_10  and  C_11
REMARK    5  A    between atoms: C_15  and  C_16
REMARK    6  A    between atoms: C_20  and  C_21
REMARK    7  A    between atoms: C_21  and  N_22
REMARK                            x       y       z     vdW  Elec       q    Type
REMARK                         _______ _______ _______ _____ _____    ______ ____
ROOT
ATOM      1  C   UNL     1       0.763   9.399  21.649  0.00  0.00    +0.000 A 
ATOM      2  C   UNL     1       0.668  10.234  20.531  0.00  0.00    +0.000 A 
ATOM      3  C   UNL     1       1.058   9.773  19.272  0.00  0.00    +0.000 A 
ATOM      4  C   UNL     1       1.557   8.475  19.112  0.00  0.00    +0.000 A 
ATOM      5  C   UNL     1       1.690   7.611  20.209  0.00  0.00    +0.000 A 
ATOM      6  C   UNL     1       1.295   8.109  21.474  0.00  0.00    +0.000 A 
ENDROOT
BRANCH   5   7
ATOM      7  C   UNL     1       2.183   6.220  20.071  0.00  0.00    +0.000 A 
ATOM      8  C   UNL     1       1.428   5.104  20.467  0.00  0.00    +0.000 A 
ATOM      9  C   UNL     1       1.959   3.809  20.399  0.00  0.00    +0.000 A 
ATOM     10  C   UNL     1       3.267   3.603  19.953  0.00  0.00    +0.000 A 
ATOM     11  C   UNL     1       4.055   4.687  19.551  0.00  0.00    +0.000 A 
ATOM     12  C   UNL     1       3.479   5.970  19.574  0.00  0.00    +0.000 A 
BRANCH  11  13
ATOM     13  C   UNL     1       5.471   4.472  19.032  0.00  0.00    +0.000 C 
BRANCH  13  14
ATOM     14  N   UNL     1       5.541   4.151  17.594  0.00  0.00    +0.000 NA
ATOM     15  C   UNL     1       4.541   4.871  16.779  0.00  0.00    +0.000 C 
ATOM     16  C   UNL     1       4.847   6.362  16.527  0.00  0.00    +0.000 C 
ATOM     17  N   UNL     1       6.196   6.621  16.013  0.00  0.00    +0.000 NA
ATOM     18  C   UNL     1       7.225   5.877  16.748  0.00  0.00    +0.000 C 
ATOM     19  C   UNL     1       6.877   4.397  17.021  0.00  0.00    +0.000 C 
ATOM     20  H   UNL     1       6.394   7.620  16.066  0.00  0.00    +0.000 HD
ENDBRANCH  13  14
ENDBRANCH  11  13
ENDBRANCH   5   7
BRANCH   1  21
ATOM     21  C   UNL     1       0.231   9.830  22.995  0.00  0.00    +0.000 C 
BRANCH  21  24
ATOM     22  C   UNL     1      -1.325  11.719  22.971  0.00  0.00    +0.000 C 
ATOM     23  O   UNL     1      -0.397  12.519  23.052  0.00  0.00    +0.000 OA
ATOM     24  N   UNL     1      -1.120  10.348  22.953  0.00  0.00    +0.000 N 
ATOM     25  H   UNL     1      -1.848   9.723  22.640  0.00  0.00    +0.000 HD
BRANCH  22  29
ATOM     26  C   UNL     1      -5.341  13.282  22.600  0.00  0.00    +0.000 A 
ATOM     27  C   UNL     1      -4.494  13.217  21.494  0.00  0.00    +0.000 A 
ATOM     28  C   UNL     1      -3.198  12.694  21.635  0.00  0.00    +0.000 A 
ATOM     29  C   UNL     1      -2.734  12.231  22.882  0.00  0.00    +0.000 A 
ATOM     30  C   UNL     1      -3.590  12.311  23.984  0.00  0.00    +0.000 A 
ATOM     31  C   UNL     1      -4.887  12.829  23.843  0.00  0.00    +0.000 A 
BRANCH  26  33
ATOM     32  N   UNL     1      -7.740  14.260  22.386  0.00  0.00    +0.000 NA
ATOM     33  C   UNL     1      -6.665  13.823  22.474  0.00  0.00    +0.000 C 
ENDBRANCH  26  33
ENDBRANCH  22  29
ENDBRANCH  21  24
ENDBRANCH   1  21
TORSDOF 7
ENDMDL
MODEL 5
REMARK VINA RESULT:      -8.0      4.025      5.828
REMARK  Name = 
REMARK  7 active torsions:
REMARK  status: ('A' for Active; 'I' for Inactive)
REMARK    1  A    between atoms: C_2  and  C_3
REMARK    2  A    between atoms: C_6  and  C_7
REMARK    3  A    between atoms: N_9  and  C_10
REMARK    4  A    between atoms: C_10  and  C_11
REMARK    5  A    between atoms: C_15  and  C_16
REMARK    6  A    between atoms: C_20  and  C_21
REMARK    7  A    between atoms: C_21  and  N_22
REMARK                            x       y       z     vdW  Elec       q    Type
REMARK                         _______ _______ _______ _____ _____    ______ ____
ROOT
ATOM      1  C   UNL     1       1.245   9.799  19.084  0.00  0.00    +0.000 A 
ATOM      2  C   UNL     1       0.854  10.161  20.377  0.00  0.00    +0.000 A 
ATOM      3  C   UNL     1       0.931   9.238  21.422  0.00  0.00    +0.000 A 
ATOM      4  C   UNL     1       1.392   7.937  21.190  0.00  0.00    +0.000 A 
ATOM      5  C   UNL     1       1.774   7.524  19.904  0.00  0.00    +0.000 A 
ATOM      6  C   UNL     1       1.676   8.478  18.864  0.00  0.00    +0.000 A 
ENDROOT
BRANCH   5   7
ATOM      7  C   UNL     1       2.298   6.165  19.628  0.00  0.00    +0.000 A 
ATOM      8  C   UNL     1       2.275   5.135  20.582  0.00  0.00    +0.000 A 
ATOM      9  C   UNL     1       2.855   3.887  20.315  0.00  0.00    +0.000 A 
ATOM     10  C   UNL     1       3.490   3.649  19.093  0.00  0.00    +0.000 A 
ATOM     11  C   UNL     1       3.538   4.649  18.115  0.00  0.00    +0.000 A 
ATOM     12  C   UNL     1       2.898   5.872  18.386  0.00  0.00    +0.000 A 
BRANCH  11  13
ATOM     13  C   UNL     1       4.198   4.391  16.767  0.00  0.00    +0.000 C 
BRANCH  13  14
ATOM     14  N   UNL     1       5.587   3.905  16.862  0.00  0.00    +0.000 NA
ATOM     15  C   UNL     1       6.214   3.647  15.550  0.00  0.00    +0.000 C 
ATOM     16  C   UNL     1       6.641   4.905  14.765  0.00  0.00    +0.000 C 
ATOM     17  N   UNL     1       7.458   5.848  15.538  0.00  0.00    +0.000 NA
ATOM     18  C   UNL     1       6.912   6.090  16.878  0.00  0.00    +0.000 C 
ATOM     19  C   UNL     1       6.457   4.817  17.627  0.00  0.00    +0.000 C 
ATOM     20  H   UNL     1       7.525   6.731  15.032  0.00  0.00    +0.000 HD
ENDBRANCH  13  14
ENDBRANCH  11  13
ENDBRANCH   5   7
BRANCH   1  21
ATOM     21  C   UNL     1       1.289  10.814  17.967  0.00  0.00    +0.000 C 
BRANCH  21  24
ATOM     22  C   UNL     1       1.730  13.186  18.379  0.00  0.00    +0.000 C 
ATOM     23  O   UNL     1       0.531  13.447  18.320  0.00  0.00    +0.000 OA
ATOM     24  N   UNL     1       2.217  11.901  18.199  0.00  0.00    +0.000 N 
ATOM     25  H   UNL     1       3.152  11.659  18.492  0.00  0.00    +0.000 HD
BRANCH  22  29
ATOM     26  C   UNL     1       4.526  16.343  19.340  0.00  0.00    +0.000 A 
ATOM     27  C   UNL     1       4.277  15.309  20.242  0.00  0.00    +0.000 A 
ATOM     28  C   UNL     1       3.375  14.287  19.904  0.00  0.00    +0.000 A 
ATOM     29  C   UNL     1       2.711  14.288  18.662  0.00  0.00    +0.000 A 
ATOM     30  C   UNL     1       2.962  15.336  17.771  0.00  0.00    +0.000 A 
ATOM     31  C   UNL     1       3.868  16.354  18.106  0.00  0.00    +0.000 A 
BRANCH  26  33
ATOM     32  N   UNL     1       6.168  18.265  19.945  0.00  0.00    +0.000 NA
ATOM     33  C   UNL     1       5.439  17.399  19.676  0.00  0.00    +0.000 C 
ENDBRANCH  26  33
ENDBRANCH  22  29
ENDBRANCH  21  24
ENDBRANCH   1  21
TORSDOF 7
ENDMDL
MODEL 6
REMARK VINA RESULT:      -8.0      4.167     10.063
REMARK  Name = 
REMARK  7 active torsions:
REMARK  status: ('A' for Active; 'I' for Inactive)
REMARK    1  A    between atoms: C_2  and  C_3
REMARK    2  A    between atoms: C_6  and  C_7
REMARK    3  A    between atoms: N_9  and  C_10
REMARK    4  A    between atoms: C_10  and  C_11
REMARK    5  A    between atoms: C_15  and  C_16
REMARK    6  A    between atoms: C_20  and  C_21
REMARK    7  A    between atoms: C_21  and  N_22
REMARK                            x       y       z     vdW  Elec       q    Type
REMARK                         _______ _______ _______ _____ _____    ______ ____
ROOT
ATOM      1  C   UNL     1       5.444   5.527  17.063  0.00  0.00    +0.000 A 
ATOM      2  C   UNL     1       4.841   4.361  16.579  0.00  0.00    +0.000 A 
ATOM      3  C   UNL     1       3.515   4.067  16.904  0.00  0.00    +0.000 A 
ATOM      4  C   UNL     1       2.775   4.927  17.723  0.00  0.00    +0.000 A 
ATOM      5  C   UNL     1       3.347   6.095  18.249  0.00  0.00    +0.000 A 
ATOM      6  C   UNL     1       4.694   6.363  17.910  0.00  0.00    +0.000 A 
ENDROOT
BRANCH   5   7
ATOM      7  C   UNL     1       2.582   7.045  19.093  0.00  0.00    +0.000 A 
ATOM      8  C   UNL     1       2.104   6.710  20.369  0.00  0.00    +0.000 A 
ATOM      9  C   UNL     1       1.313   7.604  21.104  0.00  0.00    +0.000 A 
ATOM     10  C   UNL     1       0.966   8.847  20.568  0.00  0.00    +0.000 A 
ATOM     11  C   UNL     1       1.420   9.220  19.298  0.00  0.00    +0.000 A 
ATOM     12  C   UNL     1       2.259   8.328  18.606  0.00  0.00    +0.000 A 
BRANCH  11  13
ATOM     13  C   UNL     1       1.076  10.585  18.716  0.00  0.00    +0.000 C 
BRANCH  13  14
ATOM     14  N   UNL     1       0.497  11.526  19.693  0.00  0.00    +0.000 NA
ATOM     15  C   UNL     1       1.455  12.544  20.171  0.00  0.00    +0.000 C 
ATOM     16  C   UNL     1       1.766  13.676  19.169  0.00  0.00    +0.000 C 
ATOM     17  N   UNL     1       0.576  14.327  18.608  0.00  0.00    +0.000 NA
ATOM     18  C   UNL     1      -0.438  13.358  18.176  0.00  0.00    +0.000 C 
ATOM     19  C   UNL     1      -0.702  12.213  19.180  0.00  0.00    +0.000 C 
ATOM     20  H   UNL     1       0.850  14.909  17.817  0.00  0.00    +0.000 HD
ENDBRANCH  13  14
ENDBRANCH  11  13
ENDBRANCH   5   7
BRANCH   1  21
ATOM     21  C   UNL     1       6.832   5.929  16.624  0.00  0.00    +0.000 C 
BRANCH  21  24
ATOM     22  C   UNL     1       7.939   7.604  18.023  0.00  0.00    +0.000 C 
ATOM     23  O   UNL     1       8.340   6.735  18.794  0.00  0.00    +0.000 OA
ATOM     24  N   UNL     1       7.161   7.309  16.915  0.00  0.00    +0.000 N 
ATOM     25  H   UNL     1       7.052   7.979  16.169  0.00  0.00    +0.000 HD
BRANCH  22  29
ATOM     26  C   UNL     1       8.971  11.763  18.608  0.00  0.00    +0.000 A 
ATOM     27  C   UNL     1       8.134  11.375  17.563  0.00  0.00    +0.000 A 
ATOM     28  C   UNL     1       7.802  10.020  17.400  0.00  0.00    +0.000 A 
ATOM     29  C   UNL     1       8.303   9.039  18.277  0.00  0.00    +0.000 A 
ATOM     30  C   UNL     1       9.149   9.441  19.315  0.00  0.00    +0.000 A 
ATOM     31  C   UNL     1       9.478  10.795  19.481  0.00  0.00    +0.000 A 
BRANCH  26  33
ATOM     32  N   UNL     1       9.612  14.264  18.909  0.00  0.00    +0.000 NA
ATOM     33  C   UNL     1       9.328  13.144  18.782  0.00  0.00    +0.000 C 
ENDBRANCH  26  33
ENDBRANCH  22  29
ENDBRANCH  21  24
ENDBRANCH   1  21
TORSDOF 7
ENDMDL
MODEL 7
REMARK VINA RESULT:      -8.0      3.038     11.295
REMARK  Name = 
REMARK  7 active torsions:
REMARK  status: ('A' for Active; 'I' for Inactive)
REMARK    1  A    between atoms: C_2  and  C_3
REMARK    2  A    between atoms: C_6  and  C_7
REMARK    3  A    between atoms: N_9  and  C_10
REMARK    4  A    between atoms: C_10  and  C_11
REMARK    5  A    between atoms: C_15  and  C_16
REMARK    6  A    between atoms: C_20  and  C_21
REMARK    7  A    between atoms: C_21  and  N_22
REMARK                            x       y       z     vdW  Elec       q    Type
REMARK                         _______ _______ _______ _____ _____    ______ ____
ROOT
ATOM      1  C   UNL     1       0.819   9.545  20.283  0.00  0.00    +0.000 A 
ATOM      2  C   UNL     1       1.213  10.727  20.919  0.00  0.00    +0.000 A 
ATOM      3  C   UNL     1       0.541  11.924  20.662  0.00  0.00    +0.000 A 
ATOM      4  C   UNL     1      -0.528  11.961  19.760  0.00  0.00    +0.000 A 
ATOM      5  C   UNL     1      -0.942  10.804  19.083  0.00  0.00    +0.000 A 
ATOM      6  C   UNL     1      -0.237   9.608  19.356  0.00  0.00    +0.000 A 
ENDROOT
BRANCH   5   7
ATOM      7  C   UNL     1      -2.091  10.800  18.145  0.00  0.00    +0.000 A 
ATOM      8  C   UNL     1      -2.024  10.229  16.865  0.00  0.00    +0.000 A 
ATOM      9  C   UNL     1      -3.102  10.317  15.974  0.00  0.00    +0.000 A 
ATOM     10  C   UNL     1      -4.267  10.998  16.339  0.00  0.00    +0.000 A 
ATOM     11  C   UNL     1      -4.375  11.584  17.605  0.00  0.00    +0.000 A 
ATOM     12  C   UNL     1      -3.301  11.432  18.500  0.00  0.00    +0.000 A 
BRANCH  11  13
ATOM     13  C   UNL     1      -5.652  12.301  18.027  0.00  0.00    +0.000 C 
BRANCH  13  14
ATOM     14  N   UNL     1      -5.484  13.193  19.189  0.00  0.00    +0.000 NA
ATOM     15  C   UNL     1      -6.485  14.277  19.251  0.00  0.00    +0.000 C 
ATOM     16  C   UNL     1      -7.896  13.846  19.705  0.00  0.00    +0.000 C 
ATOM     17  N   UNL     1      -7.916  13.068  20.949  0.00  0.00    +0.000 NA
ATOM     18  C   UNL     1      -6.894  12.016  20.967  0.00  0.00    +0.000 C 
ATOM     19  C   UNL     1      -5.501  12.464  20.471  0.00  0.00    +0.000 C 
ATOM     20  H   UNL     1      -8.838  12.651  21.073  0.00  0.00    +0.000 HD
ENDBRANCH  13  14
ENDBRANCH  11  13
ENDBRANCH   5   7
BRANCH   1  21
ATOM     21  C   UNL     1       1.447   8.219  20.638  0.00  0.00    +0.000 C 
BRANCH  21  24
ATOM     22  C   UNL     1       2.471   6.300  19.517  0.00  0.00    +0.000 C 
ATOM     23  O   UNL     1       1.964   5.524  20.322  0.00  0.00    +0.000 OA
ATOM     24  N   UNL     1       2.289   7.672  19.595  0.00  0.00    +0.000 N 
ATOM     25  H   UNL     1       2.495   8.264  18.806  0.00  0.00    +0.000 HD
BRANCH  22  29
ATOM     26  C   UNL     1       4.883   4.862  16.226  0.00  0.00    +0.000 A 
ATOM     27  C   UNL     1       4.832   6.221  16.536  0.00  0.00    +0.000 A 
ATOM     28  C   UNL     1       4.052   6.664  17.617  0.00  0.00    +0.000 A 
ATOM     29  C   UNL     1       3.314   5.755  18.400  0.00  0.00    +0.000 A 
ATOM     30  C   UNL     1       3.366   4.397  18.072  0.00  0.00    +0.000 A 
ATOM     31  C   UNL     1       4.149   3.953  16.995  0.00  0.00    +0.000 A 
BRANCH  26  33
ATOM     32  N   UNL     1       6.312   4.009  14.230  0.00  0.00    +0.000 NA
ATOM     33  C   UNL     1       5.668   4.395  15.119  0.00  0.00    +0.000 C 
ENDBRANCH  26  33
ENDBRANCH  22  29
ENDBRANCH  21  24
ENDBRANCH   1  21
TORSDOF 7
ENDMDL
MODEL 8
REMARK VINA RESULT:      -8.0      4.305      6.541
REMARK  Name = 
REMARK  7 active torsions:
REMARK  status: ('A' for Active; 'I' for Inactive)
REMARK    1  A    between atoms: C_2  and  C_3
REMARK    2  A    between atoms: C_6  and  C_7
REMARK    3  A    between atoms: N_9  and  C_10
REMARK    4  A    between atoms: C_10  and  C_11
REMARK    5  A    between atoms: C_15  and  C_16
REMARK    6  A    between atoms: C_20  and  C_21
REMARK    7  A    between atoms: C_21  and  N_22
REMARK                            x       y       z     vdW  Elec       q    Type
REMARK                         _______ _______ _______ _____ _____    ______ ____
ROOT
ATOM      1  C   UNL     1      -0.296  11.623  21.826  0.00  0.00    +0.000 A 
ATOM      2  C   UNL     1      -0.829  10.952  22.931  0.00  0.00    +0.000 A 
ATOM      3  C   UNL     1      -0.646   9.575  23.076  0.00  0.00    +0.000 A 
ATOM      4  C   UNL     1       0.065   8.846  22.116  0.00  0.00    +0.000 A 
ATOM      5  C   UNL     1       0.598   9.475  20.980  0.00  0.00    +0.000 A 
ATOM      6  C   UNL     1       0.389  10.869  20.855  0.00  0.00    +0.000 A 
ENDROOT
BRANCH   5   7
ATOM      7  C   UNL     1       1.384   8.740  19.960  0.00  0.00    +0.000 A 
ATOM      8  C   UNL     1       1.569   9.220  18.654  0.00  0.00    +0.000 A 
ATOM      9  C   UNL     1       2.247   8.460  17.691  0.00  0.00    +0.000 A 
ATOM     10  C   UNL     1       2.738   7.191  18.010  0.00  0.00    +0.000 A 
ATOM     11  C   UNL     1       2.574   6.673  19.300  0.00  0.00    +0.000 A 
ATOM     12  C   UNL     1       1.941   7.480  20.261  0.00  0.00    +0.000 A 
BRANCH  11  13
ATOM     13  C   UNL     1       3.134   5.305  19.669  0.00  0.00    +0.000 C 
BRANCH  13  14
ATOM     14  N   UNL     1       2.112   4.247  19.772  0.00  0.00    +0.000 NA
ATOM     15  C   UNL     1       1.486   3.901  18.479  0.00  0.00    +0.000 C 
ATOM     16  C   UNL     1       2.359   3.055  17.530  0.00  0.00    +0.000 C 
ATOM     17  N   UNL     1       2.932   1.854  18.149  0.00  0.00    +0.000 NA
ATOM     18  C   UNL     1       3.511   2.129  19.469  0.00  0.00    +0.000 C 
ATOM     19  C   UNL     1       2.634   3.011  20.385  0.00  0.00    +0.000 C 
ATOM     20  H   UNL     1       3.648   1.465  17.537  0.00  0.00    +0.000 HD
ENDBRANCH  13  14
ENDBRANCH  11  13
ENDBRANCH   5   7
BRANCH   1  21
ATOM     21  C   UNL     1      -0.373  13.126  21.711  0.00  0.00    +0.000 C 
BRANCH  21  24
ATOM     22  C   UNL     1       1.438  14.772  21.744  0.00  0.00    +0.000 C 
ATOM     23  O   UNL     1       1.039  15.231  22.811  0.00  0.00    +0.000 OA
ATOM     24  N   UNL     1       0.793  13.728  21.100  0.00  0.00    +0.000 N 
ATOM     25  H   UNL     1       1.259  13.205  20.374  0.00  0.00    +0.000 HD
BRANCH  22  29
ATOM     26  C   UNL     1       4.903  16.539  19.852  0.00  0.00    +0.000 A 
ATOM     27  C   UNL     1       3.793  17.317  20.179  0.00  0.00    +0.000 A 
ATOM     28  C   UNL     1       2.683  16.724  20.805  0.00  0.00    +0.000 A 
ATOM     29  C   UNL     1       2.671  15.349  21.109  0.00  0.00    +0.000 A 
ATOM     30  C   UNL     1       3.787  14.579  20.766  0.00  0.00    +0.000 A 
ATOM     31  C   UNL     1       4.897  15.172  20.145  0.00  0.00    +0.000 A 
BRANCH  26  33
ATOM     32  N   UNL     1       6.971  17.598  18.686  0.00  0.00    +0.000 NA
ATOM     33  C   UNL     1       6.040  17.129  19.203  0.00  0.00    +0.000 C 
ENDBRANCH  26  33
ENDBRANCH  22  29
ENDBRANCH  21  24
ENDBRANCH   1  21
TORSDOF 7
ENDMDL
MODEL 9
REMARK VINA RESULT:      -7.9      4.348      6.702
REMARK  Name = 
REMARK  7 active torsions:
REMARK  status: ('A' for Active; 'I' for Inactive)
REMARK    1  A    between atoms: C_2  and  C_3
REMARK    2  A    between atoms: C_6  and  C_7
REMARK    3  A    between atoms: N_9  and  C_10
REMARK    4  A    between atoms: C_10  and  C_11
REMARK    5  A    between atoms: C_15  and  C_16
REMARK    6  A    between atoms: C_20  and  C_21
REMARK    7  A    between atoms: C_21  and  N_22
REMARK                            x       y       z     vdW  Elec       q    Type
REMARK                         _______ _______ _______ _____ _____    ______ ____
ROOT
ATOM      1  C   UNL     1      -0.225  11.333  21.209  0.00  0.00    +0.000 A 
ATOM      2  C   UNL     1      -0.779  10.721  22.337  0.00  0.00    +0.000 A 
ATOM      3  C   UNL     1      -0.539   9.369  22.595  0.00  0.00    +0.000 A 
ATOM      4  C   UNL     1       0.250   8.607  21.726  0.00  0.00    +0.000 A 
ATOM      5  C   UNL     1       0.808   9.175  20.571  0.00  0.00    +0.000 A 
ATOM      6  C   UNL     1       0.540  10.544  20.330  0.00  0.00    +0.000 A 
ENDROOT
BRANCH   5   7
ATOM      7  C   UNL     1       1.675   8.407  19.646  0.00  0.00    +0.000 A 
ATOM      8  C   UNL     1       1.858   8.767  18.301  0.00  0.00    +0.000 A 
ATOM      9  C   UNL     1       2.618   7.970  17.435  0.00  0.00    +0.000 A 
ATOM     10  C   UNL     1       3.197   6.782  17.890  0.00  0.00    +0.000 A 
ATOM     11  C   UNL     1       3.038   6.385  19.223  0.00  0.00    +0.000 A 
ATOM     12  C   UNL     1       2.319   7.231  20.085  0.00  0.00    +0.000 A 
BRANCH  11  13
ATOM     13  C   UNL     1       3.692   5.109  19.740  0.00  0.00    +0.000 C 
BRANCH  13  14
ATOM     14  N   UNL     1       3.064   3.870  19.244  0.00  0.00    +0.000 NA
ATOM     15  C   UNL     1       3.313   2.696  20.105  0.00  0.00    +0.000 C 
ATOM     16  C   UNL     1       2.503   2.658  21.418  0.00  0.00    +0.000 C 
ATOM     17  N   UNL     1       1.060   2.855  21.240  0.00  0.00    +0.000 NA
ATOM     18  C   UNL     1       0.756   3.972  20.339  0.00  0.00    +0.000 C 
ATOM     19  C   UNL     1       1.608   4.009  19.050  0.00  0.00    +0.000 C 
ATOM     20  H   UNL     1       0.627   3.021  22.148  0.00  0.00    +0.000 HD
ENDBRANCH  13  14
ENDBRANCH  11  13
ENDBRANCH   5   7
BRANCH   1  21
ATOM     21  C   UNL     1      -0.366  12.818  20.976  0.00  0.00    +0.000 C 
BRANCH  21  24
ATOM     22  C   UNL     1       0.993  14.320  19.602  0.00  0.00    +0.000 C 
ATOM     23  O   UNL     1       0.063  14.485  18.816  0.00  0.00    +0.000 OA
ATOM     24  N   UNL     1       0.888  13.491  20.707  0.00  0.00    +0.000 N 
ATOM     25  H   UNL     1       1.551  13.556  21.464  0.00  0.00    +0.000 HD
BRANCH  22  29
ATOM     26  C   UNL     1       4.747  16.406  19.086  0.00  0.00    +0.000 A 
ATOM     27  C   UNL     1       4.510  15.629  20.220  0.00  0.00    +0.000 A 
ATOM     28  C   UNL     1       3.288  14.950  20.360  0.00  0.00    +0.000 A 
ATOM     29  C   UNL     1       2.290  15.040  19.371  0.00  0.00    +0.000 A 
ATOM     30  C   UNL     1       2.536  15.830  18.244  0.00  0.00    +0.000 A 
ATOM     31  C   UNL     1       3.759  16.505  18.101  0.00  0.00    +0.000 A 
BRANCH  26  33
ATOM     32  N   UNL     1       6.998  17.677  18.817  0.00  0.00    +0.000 NA
ATOM     33  C   UNL     1       5.987  17.113  18.932  0.00  0.00    +0.000 C 
ENDBRANCH  26  33
ENDBRANCH  22  29
ENDBRANCH  21  24
ENDBRANCH   1  21
TORSDOF 7
ENDMDL
