MODEL 1
REMARK VINA RESULT:      -8.5      0.000      0.000
REMARK  Name = 
REMARK  13 active torsions:
REMARK  status: ('A' for Active; 'I' for Inactive)
REMARK    1  A    between atoms: C_1  and  C_2
REMARK    2  A    between atoms: C_4  and  C_5
REMARK    3  A    between atoms: N_7  and  N_8
REMARK    4  A    between atoms: C_9  and  C_10
REMARK    5  A    between atoms: C_12  and  C_13
REMARK    6  A    between atoms: C_13  and  C_14
REMARK    7  A    between atoms: C_13  and  C_15
REMARK    8  A    between atoms: C_13  and  C_16
REMARK    9  A    between atoms: C_17  and  O_18
REMARK   10  A    between atoms: C_19  and  C_20
REMARK   11  A    between atoms: C_20  and  C_21
REMARK   12  A    between atoms: C_20  and  C_22
REMARK   13  A    between atoms: C_20  and  C_23
REMARK                            x       y       z     vdW  Elec       q    Type
REMARK                         _______ _______ _______ _____ _____    ______ ____
ROOT
ATOM      1  C   UNL     1       3.284   6.679  17.919  0.00  0.00    +0.000 A 
ATOM      2  C   UNL     1       2.670   5.470  18.200  0.00  0.00    +0.000 A 
ATOM      3  C   UNL     1       3.391   4.342  18.612  0.00  0.00    +0.000 A 
ATOM      4  C   UNL     1       4.797   4.496  18.663  0.00  0.00    +0.000 A 
ATOM      5  C   UNL     1       5.469   5.657  18.206  0.00  0.00    +0.000 A 
ATOM      6  C   UNL     1       4.662   6.753  17.844  0.00  0.00    +0.000 A 
ENDROOT
BRANCH   3   7
ATOM      7  C   UNL     1       2.613   3.052  18.967  0.00  0.00    +0.000 C 
ATOM      8  C   UNL     1       2.608   2.861  20.506  0.00  0.00    +0.000 C 
ATOM      9  C   UNL     1       1.154   3.156  18.476  0.00  0.00    +0.000 C 
ATOM     10  C   UNL     1       3.180   1.738  18.389  0.00  0.00    +0.000 C 
ENDBRANCH   3   7
BRANCH   5  11
ATOM     11  C   UNL     1       7.013   5.763  18.069  0.00  0.00    +0.000 C 
ATOM     12  C   UNL     1       7.551   4.605  17.198  0.00  0.00    +0.000 C 
ATOM     13  C   UNL     1       7.390   7.109  17.401  0.00  0.00    +0.000 C 
ATOM     14  C   UNL     1       7.805   5.703  19.395  0.00  0.00    +0.000 C 
ENDBRANCH   5  11
BRANCH   1  16
ATOM     15  N   UNL     1       1.787   8.549  18.602  0.00  0.00    +0.000 NA
ATOM     16  C   UNL     1       2.471   7.897  17.728  0.00  0.00    +0.000 C 
BRANCH  15  19
ATOM     17  C   UNL     1       1.182   8.947  20.930  0.00  0.00    +0.000 C 
ATOM     18  O   UNL     1       1.194   8.588  22.093  0.00  0.00    +0.000 OA
ATOM     19  N   UNL     1       1.851   8.213  19.936  0.00  0.00    +0.000 N 
ATOM     20  H   UNL     1       2.401   7.409  20.216  0.00  0.00    +0.000 HD
BRANCH  17  24
ATOM     21  C   UNL     1      -0.596  13.545  19.716  0.00  0.00    +0.000 C 
ATOM     22  C   UNL     1      -0.331  12.095  19.862  0.00  0.00    +0.000 A 
ATOM     23  C   UNL     1       0.758  11.467  20.492  0.00  0.00    +0.000 A 
ATOM     24  C   UNL     1       0.492  10.106  20.425  0.00  0.00    +0.000 A 
ATOM     25  N   UNL     1      -0.653  10.027  19.681  0.00  0.00    +0.000 N 
ATOM     26  N   UNL     1      -1.198  11.206  19.362  0.00  0.00    +0.000 NA
ATOM     27  H   UNL     1      -1.137   9.162  19.459  0.00  0.00    +0.000 HD
ENDBRANCH  17  24
ENDBRANCH  15  19
ENDBRANCH   1  16
BRANCH   4  28
ATOM     28  O   UNL     1       5.541   3.523  19.266  0.00  0.00    +0.000 OA
ATOM     29  H   UNL     1       6.020   3.054  18.569  0.00  0.00    +0.000 HD
ENDBRANCH   4  28
TORSDOF 6
ENDMDL
MODEL 2
REMARK VINA RESULT:      -8.4      0.096      1.176
REMARK  Name = 
REMARK  13 active torsions:
REMARK  status: ('A' for Active; 'I' for Inactive)
REMARK    1  A    between atoms: C_1  and  C_2
REMARK    2  A    between atoms: C_4  and  C_5
REMARK    3  A    between atoms: N_7  and  N_8
REMARK    4  A    between atoms: C_9  and  C_10
REMARK    5  A    between atoms: C_12  and  C_13
REMARK    6  A    between atoms: C_13  and  C_14
REMARK    7  A    between atoms: C_13  and  C_15
REMARK    8  A    between atoms: C_13  and  C_16
REMARK    9  A    between atoms: C_17  and  O_18
REMARK   10  A    between atoms: C_19  and  C_20
REMARK   11  A    between atoms: C_20  and  C_21
REMARK   12  A    between atoms: C_20  and  C_22
REMARK   13  A    between atoms: C_20  and  C_23
REMARK                            x       y       z     vdW  Elec       q    Type
REMARK                         _______ _______ _______ _____ _____    ______ ____
ROOT
ATOM      1  C   UNL     1       3.273   6.653  17.917  0.00  0.00    +0.000 A 
ATOM      2  C   UNL     1       2.647   5.453  18.213  0.00  0.00    +0.000 A 
ATOM      3  C   UNL     1       3.359   4.322  18.633  0.00  0.00    +0.000 A 
ATOM      4  C   UNL     1       4.767   4.463  18.677  0.00  0.00    +0.000 A 
ATOM      5  C   UNL     1       5.449   5.612  18.204  0.00  0.00    +0.000 A 
ATOM      6  C   UNL     1       4.650   6.713  17.835  0.00  0.00    +0.000 A 
ENDROOT
BRANCH   3   7
ATOM      7  C   UNL     1       2.570   3.043  19.005  0.00  0.00    +0.000 C 
ATOM      8  C   UNL     1       1.087   3.214  18.589  0.00  0.00    +0.000 C 
ATOM      9  C   UNL     1       3.155   1.823  18.265  0.00  0.00    +0.000 C 
ATOM     10  C   UNL     1       2.541   2.678  20.505  0.00  0.00    +0.000 C 
ENDBRANCH   3   7
BRANCH   5  11
ATOM     11  C   UNL     1       6.992   5.702  18.059  0.00  0.00    +0.000 C 
ATOM     12  C   UNL     1       7.385   7.015  17.343  0.00  0.00    +0.000 C 
ATOM     13  C   UNL     1       7.654   5.680  19.461  0.00  0.00    +0.000 C 
ATOM     14  C   UNL     1       7.654   4.561  17.253  0.00  0.00    +0.000 C 
ENDBRANCH   5  11
BRANCH   1  16
ATOM     15  N   UNL     1       1.796   8.543  18.588  0.00  0.00    +0.000 NA
ATOM     16  C   UNL     1       2.471   7.877  17.717  0.00  0.00    +0.000 C 
BRANCH  15  19
ATOM     17  C   UNL     1       1.215   8.978  20.916  0.00  0.00    +0.000 C 
ATOM     18  O   UNL     1       1.227   8.630  22.082  0.00  0.00    +0.000 OA
ATOM     19  N   UNL     1       1.862   8.219  19.924  0.00  0.00    +0.000 N 
ATOM     20  H   UNL     1       2.395   7.406  20.209  0.00  0.00    +0.000 HD
BRANCH  17  24
ATOM     21  C   UNL     1      -0.454  13.601  19.646  0.00  0.00    +0.000 C 
ATOM     22  C   UNL     1      -0.229  12.148  19.818  0.00  0.00    +0.000 A 
ATOM     23  C   UNL     1       0.857  11.499  20.432  0.00  0.00    +0.000 A 
ATOM     24  C   UNL     1       0.547  10.146  20.403  0.00  0.00    +0.000 A 
ATOM     25  N   UNL     1      -0.621  10.087  19.693  0.00  0.00    +0.000 N 
ATOM     26  N   UNL     1      -1.138  11.275  19.363  0.00  0.00    +0.000 NA
ATOM     27  H   UNL     1      -1.137   9.233  19.505  0.00  0.00    +0.000 HD
ENDBRANCH  17  24
ENDBRANCH  15  19
ENDBRANCH   1  16
BRANCH   4  28
ATOM     28  O   UNL     1       5.504   3.488  19.285  0.00  0.00    +0.000 OA
ATOM     29  H   UNL     1       6.049   3.918  19.959  0.00  0.00    +0.000 HD
ENDBRANCH   4  28
TORSDOF 6
ENDMDL
MODEL 3
REMARK VINA RESULT:      -8.3      0.738      1.436
REMARK  Name = 
REMARK  13 active torsions:
REMARK  status: ('A' for Active; 'I' for Inactive)
REMARK    1  A    between atoms: C_1  and  C_2
REMARK    2  A    between atoms: C_4  and  C_5
REMARK    3  A    between atoms: N_7  and  N_8
REMARK    4  A    between atoms: C_9  and  C_10
REMARK    5  A    between atoms: C_12  and  C_13
REMARK    6  A    between atoms: C_13  and  C_14
REMARK    7  A    between atoms: C_13  and  C_15
REMARK    8  A    between atoms: C_13  and  C_16
REMARK    9  A    between atoms: C_17  and  O_18
REMARK   10  A    between atoms: C_19  and  C_20
REMARK   11  A    between atoms: C_20  and  C_21
REMARK   12  A    between atoms: C_20  and  C_22
REMARK   13  A    between atoms: C_20  and  C_23
REMARK                            x       y       z     vdW  Elec       q    Type
REMARK                         _______ _______ _______ _____ _____    ______ ____
ROOT
ATOM      1  C   UNL     1       3.229   6.625  17.908  0.00  0.00    +0.000 A 
ATOM      2  C   UNL     1       2.630   5.408  18.186  0.00  0.00    +0.000 A 
ATOM      3  C   UNL     1       3.366   4.288  18.593  0.00  0.00    +0.000 A 
ATOM      4  C   UNL     1       4.770   4.460  18.642  0.00  0.00    +0.000 A 
ATOM      5  C   UNL     1       5.427   5.631  18.187  0.00  0.00    +0.000 A 
ATOM      6  C   UNL     1       4.605   6.718  17.831  0.00  0.00    +0.000 A 
ENDROOT
BRANCH   3   7
ATOM      7  C   UNL     1       2.606   2.986  18.945  0.00  0.00    +0.000 C 
ATOM      8  C   UNL     1       3.252   1.794  18.194  0.00  0.00    +0.000 C 
ATOM      9  C   UNL     1       2.685   2.717  20.462  0.00  0.00    +0.000 C 
ATOM     10  C   UNL     1       1.109   2.953  18.568  0.00  0.00    +0.000 C 
ENDBRANCH   3   7
BRANCH   5  11
ATOM     11  C   UNL     1       6.969   5.758  18.049  0.00  0.00    +0.000 C 
ATOM     12  C   UNL     1       7.636   5.690  19.442  0.00  0.00    +0.000 C 
ATOM     13  C   UNL     1       7.515   4.599  17.176  0.00  0.00    +0.000 C 
ATOM     14  C   UNL     1       7.475   7.065  17.396  0.00  0.00    +0.000 C 
ENDBRANCH   5  11
BRANCH   1  16
ATOM     15  N   UNL     1       1.751   8.504  18.609  0.00  0.00    +0.000 NA
ATOM     16  C   UNL     1       2.400   7.834  17.722  0.00  0.00    +0.000 C 
BRANCH  15  19
ATOM     17  C   UNL     1       1.238   8.952  20.950  0.00  0.00    +0.000 C 
ATOM     18  O   UNL     1       1.305   8.623  22.120  0.00  0.00    +0.000 OA
ATOM     19  N   UNL     1       1.877   8.203  19.946  0.00  0.00    +0.000 N 
ATOM     20  H   UNL     1       2.451   7.415  20.223  0.00  0.00    +0.000 HD
BRANCH  17  24
ATOM     21  C   UNL     1      -2.144  12.372  19.325  0.00  0.00    +0.000 C 
ATOM     22  C   UNL     1      -0.929  11.621  19.718  0.00  0.00    +0.000 A 
ATOM     23  C   UNL     1      -0.845  10.391  20.394  0.00  0.00    +0.000 A 
ATOM     24  C   UNL     1       0.509  10.087  20.446  0.00  0.00    +0.000 A 
ATOM     25  N   UNL     1       1.117  11.187  19.907  0.00  0.00    +0.000 N 
ATOM     26  N   UNL     1       0.281  12.110  19.420  0.00  0.00    +0.000 NA
ATOM     27  H   UNL     1       2.120  11.282  19.774  0.00  0.00    +0.000 HD
ENDBRANCH  17  24
ENDBRANCH  15  19
ENDBRANCH   1  16
BRANCH   4  28
ATOM     28  O   UNL     1       5.528   3.495  19.240  0.00  0.00    +0.000 OA
ATOM     29  H   UNL     1       5.813   3.841  20.097  0.00  0.00    +0.000 HD
ENDBRANCH   4  28
TORSDOF 6
ENDMDL
MODEL 4
REMARK VINA RESULT:      -8.2      1.268      3.853
REMARK  Name = 
REMARK  13 active torsions:
REMARK  status: ('A' for Active; 'I' for Inactive)
REMARK    1  A    between atoms: C_1  and  C_2
REMARK    2  A    between atoms: C_4  and  C_5
REMARK    3  A    between atoms: N_7  and  N_8
REMARK    4  A    between atoms: C_9  and  C_10
REMARK    5  A    between atoms: C_12  and  C_13
REMARK    6  A    between atoms: C_13  and  C_14
REMARK    7  A    between atoms: C_13  and  C_15
REMARK    8  A    between atoms: C_13  and  C_16
REMARK    9  A    between atoms: C_17  and  O_18
REMARK   10  A    between atoms: C_19  and  C_20
REMARK   11  A    between atoms: C_20  and  C_21
REMARK   12  A    between atoms: C_20  and  C_22
REMARK   13  A    between atoms: C_20  and  C_23
REMARK                            x       y       z     vdW  Elec       q    Type
REMARK                         _______ _______ _______ _____ _____    ______ ____
ROOT
ATOM      1  C   UNL     1       3.178   6.823  18.030  0.00  0.00    +0.000 A 
ATOM      2  C   UNL     1       4.561   6.828  17.977  0.00  0.00    +0.000 A 
ATOM      3  C   UNL     1       5.325   5.692  18.273  0.00  0.00    +0.000 A 
ATOM      4  C   UNL     1       4.597   4.553  18.692  0.00  0.00    +0.000 A 
ATOM      5  C   UNL     1       3.200   4.569  18.936  0.00  0.00    +0.000 A 
ATOM      6  C   UNL     1       2.510   5.743  18.576  0.00  0.00    +0.000 A 
ENDROOT
BRANCH   3   7
ATOM      7  C   UNL     1       6.864   5.771  18.123  0.00  0.00    +0.000 C 
ATOM      8  C   UNL     1       7.349   4.631  17.190  0.00  0.00    +0.000 C 
ATOM      9  C   UNL     1       7.270   7.124  17.505  0.00  0.00    +0.000 C 
ATOM     10  C   UNL     1       7.680   5.617  19.424  0.00  0.00    +0.000 C 
ENDBRANCH   3   7
BRANCH   5  11
ATOM     11  C   UNL     1       2.423   3.391  19.585  0.00  0.00    +0.000 C 
ATOM     12  C   UNL     1       1.044   3.876  20.089  0.00  0.00    +0.000 C 
ATOM     13  C   UNL     1       2.208   2.266  18.541  0.00  0.00    +0.000 C 
ATOM     14  C   UNL     1       3.112   2.727  20.799  0.00  0.00    +0.000 C 
ENDBRANCH   5  11
BRANCH   1  16
ATOM     15  N   UNL     1       1.692   8.820  18.109  0.00  0.00    +0.000 NA
ATOM     16  C   UNL     1       2.410   7.959  17.479  0.00  0.00    +0.000 C 
BRANCH  15  19
ATOM     17  C   UNL     1       0.709   9.573  20.210  0.00  0.00    +0.000 C 
ATOM     18  O   UNL     1       0.661   9.516  21.425  0.00  0.00    +0.000 OA
ATOM     19  N   UNL     1       1.665   8.840  19.485  0.00  0.00    +0.000 N 
ATOM     20  H   UNL     1       2.360   8.310  19.999  0.00  0.00    +0.000 HD
BRANCH  17  24
ATOM     21  C   UNL     1      -2.939  11.415  17.199  0.00  0.00    +0.000 C 
ATOM     22  C   UNL     1      -1.751  11.199  18.055  0.00  0.00    +0.000 A 
ATOM     23  C   UNL     1      -1.432  10.075  18.837  0.00  0.00    +0.000 A 
ATOM     24  C   UNL     1      -0.180  10.341  19.377  0.00  0.00    +0.000 A 
ATOM     25  N   UNL     1       0.093  11.618  18.972  0.00  0.00    +0.000 N 
ATOM     26  N   UNL     1      -0.810  12.149  18.141  0.00  0.00    +0.000 NA
ATOM     27  H   UNL     1       0.953  12.115  19.181  0.00  0.00    +0.000 HD
ENDBRANCH  17  24
ENDBRANCH  15  19
ENDBRANCH   1  16
BRANCH   4  28
ATOM     28  O   UNL     1       5.246   3.355  18.779  0.00  0.00    +0.000 OA
ATOM     29  H   UNL     1       4.592   2.691  19.037  0.00  0.00    +0.000 HD
ENDBRANCH   4  28
TORSDOF 6
ENDMDL
MODEL 5
REMARK VINA RESULT:      -8.2      3.121      7.290
REMARK  Name = 
REMARK  13 active torsions:
REMARK  status: ('A' for Active; 'I' for Inactive)
REMARK    1  A    between atoms: C_1  and  C_2
REMARK    2  A    between atoms: C_4  and  C_5
REMARK    3  A    between atoms: N_7  and  N_8
REMARK    4  A    between atoms: C_9  and  C_10
REMARK    5  A    between atoms: C_12  and  C_13
REMARK    6  A    between atoms: C_13  and  C_14
REMARK    7  A    between atoms: C_13  and  C_15
REMARK    8  A    between atoms: C_13  and  C_16
REMARK    9  A    between atoms: C_17  and  O_18
REMARK   10  A    between atoms: C_19  and  C_20
REMARK   11  A    between atoms: C_20  and  C_21
REMARK   12  A    between atoms: C_20  and  C_22
REMARK   13  A    between atoms: C_20  and  C_23
REMARK                            x       y       z     vdW  Elec       q    Type
REMARK                         _______ _______ _______ _____ _____    ______ ____
ROOT
ATOM      1  C   UNL     1       3.415   6.771  17.927  0.00  0.00    +0.000 A 
ATOM      2  C   UNL     1       2.690   7.654  18.709  0.00  0.00    +0.000 A 
ATOM      3  C   UNL     1       1.930   7.231  19.808  0.00  0.00    +0.000 A 
ATOM      4  C   UNL     1       1.899   5.834  20.032  0.00  0.00    +0.000 A 
ATOM      5  C   UNL     1       2.474   4.890  19.144  0.00  0.00    +0.000 A 
ATOM      6  C   UNL     1       3.249   5.409  18.088  0.00  0.00    +0.000 A 
ENDROOT
BRANCH   3   7
ATOM      7  C   UNL     1       1.205   8.297  20.665  0.00  0.00    +0.000 C 
ATOM      8  C   UNL     1       1.067   9.607  19.848  0.00  0.00    +0.000 C 
ATOM      9  C   UNL     1      -0.204   7.802  21.049  0.00  0.00    +0.000 C 
ATOM     10  C   UNL     1       1.906   8.700  21.980  0.00  0.00    +0.000 C 
ENDBRANCH   3   7
BRANCH   5  11
ATOM     11  C   UNL     1       2.276   3.355  19.269  0.00  0.00    +0.000 C 
ATOM     12  C   UNL     1       2.689   2.656  17.952  0.00  0.00    +0.000 C 
ATOM     13  C   UNL     1       3.152   2.805  20.423  0.00  0.00    +0.000 C 
ATOM     14  C   UNL     1       0.832   2.891  19.564  0.00  0.00    +0.000 C 
ENDBRANCH   5  11
BRANCH   1  16
ATOM     15  N   UNL     1       5.661   7.100  16.903  0.00  0.00    +0.000 NA
ATOM     16  C   UNL     1       4.387   7.281  16.939  0.00  0.00    +0.000 C 
BRANCH  15  19
ATOM     17  C   UNL     1       6.929   5.071  17.369  0.00  0.00    +0.000 C 
ATOM     18  O   UNL     1       7.526   4.365  18.161  0.00  0.00    +0.000 OA
ATOM     19  N   UNL     1       6.273   6.241  17.787  0.00  0.00    +0.000 N 
ATOM     20  H   UNL     1       6.252   6.455  18.778  0.00  0.00    +0.000 HD
BRANCH  17  24
ATOM     21  C   UNL     1       6.041   3.438  12.644  0.00  0.00    +0.000 C 
ATOM     22  C   UNL     1       6.482   4.159  13.860  0.00  0.00    +0.000 A 
ATOM     23  C   UNL     1       6.067   3.963  15.189  0.00  0.00    +0.000 A 
ATOM     24  C   UNL     1       6.835   4.833  15.951  0.00  0.00    +0.000 A 
ATOM     25  N   UNL     1       7.553   5.541  15.026  0.00  0.00    +0.000 N 
ATOM     26  N   UNL     1       7.396   5.133  13.763  0.00  0.00    +0.000 NA
ATOM     27  H   UNL     1       8.238   6.255  15.254  0.00  0.00    +0.000 HD
ENDBRANCH  17  24
ENDBRANCH  15  19
ENDBRANCH   1  16
BRANCH   4  28
ATOM     28  O   UNL     1       1.371   5.370  21.202  0.00  0.00    +0.000 OA
ATOM     29  H   UNL     1       0.410   5.352  21.098  0.00  0.00    +0.000 HD
ENDBRANCH   4  28
TORSDOF 6
ENDMDL
MODEL 6
REMARK VINA RESULT:      -8.2      1.246      3.847
REMARK  Name = 
REMARK  13 active torsions:
REMARK  status: ('A' for Active; 'I' for Inactive)
REMARK    1  A    between atoms: C_1  and  C_2
REMARK    2  A    between atoms: C_4  and  C_5
REMARK    3  A    between atoms: N_7  and  N_8
REMARK    4  A    between atoms: C_9  and  C_10
REMARK    5  A    between atoms: C_12  and  C_13
REMARK    6  A    between atoms: C_13  and  C_14
REMARK    7  A    between atoms: C_13  and  C_15
REMARK    8  A    between atoms: C_13  and  C_16
REMARK    9  A    between atoms: C_17  and  O_18
REMARK   10  A    between atoms: C_19  and  C_20
REMARK   11  A    between atoms: C_20  and  C_21
REMARK   12  A    between atoms: C_20  and  C_22
REMARK   13  A    between atoms: C_20  and  C_23
REMARK                            x       y       z     vdW  Elec       q    Type
REMARK                         _______ _______ _______ _____ _____    ______ ____
ROOT
ATOM      1  C   UNL     1       3.208   6.831  18.060  0.00  0.00    +0.000 A 
ATOM      2  C   UNL     1       4.592   6.810  18.010  0.00  0.00    +0.000 A 
ATOM      3  C   UNL     1       5.333   5.654  18.284  0.00  0.00    +0.000 A 
ATOM      4  C   UNL     1       4.582   4.521  18.678  0.00  0.00    +0.000 A 
ATOM      5  C   UNL     1       3.185   4.559  18.919  0.00  0.00    +0.000 A 
ATOM      6  C   UNL     1       2.519   5.753  18.581  0.00  0.00    +0.000 A 
ENDROOT
BRANCH   3   7
ATOM      7  C   UNL     1       6.874   5.707  18.139  0.00  0.00    +0.000 C 
ATOM      8  C   UNL     1       7.281   7.038  17.459  0.00  0.00    +0.000 C 
ATOM      9  C   UNL     1       7.542   5.635  19.528  0.00  0.00    +0.000 C 
ATOM     10  C   UNL     1       7.512   4.591  17.284  0.00  0.00    +0.000 C 
ENDBRANCH   3   7
BRANCH   5  11
ATOM     11  C   UNL     1       2.385   3.383  19.542  0.00  0.00    +0.000 C 
ATOM     12  C   UNL     1       3.150   2.800  20.752  0.00  0.00    +0.000 C 
ATOM     13  C   UNL     1       0.999   3.886  20.021  0.00  0.00    +0.000 C 
ATOM     14  C   UNL     1       2.108   2.191  18.597  0.00  0.00    +0.000 C 
ENDBRANCH   5  11
BRANCH   1  16
ATOM     15  N   UNL     1       1.726   8.829  18.170  0.00  0.00    +0.000 NA
ATOM     16  C   UNL     1       2.464   7.992  17.530  0.00  0.00    +0.000 C 
BRANCH  15  19
ATOM     17  C   UNL     1       0.669   9.494  20.264  0.00  0.00    +0.000 C 
ATOM     18  O   UNL     1       0.577   9.386  21.473  0.00  0.00    +0.000 OA
ATOM     19  N   UNL     1       1.651   8.792  19.544  0.00  0.00    +0.000 N 
ATOM     20  H   UNL     1       2.326   8.240  20.060  0.00  0.00    +0.000 HD
BRANCH  17  24
ATOM     21  C   UNL     1      -2.903  11.480  17.253  0.00  0.00    +0.000 C 
ATOM     22  C   UNL     1      -1.726  11.218  18.111  0.00  0.00    +0.000 A 
ATOM     23  C   UNL     1      -1.448  10.079  18.888  0.00  0.00    +0.000 A 
ATOM     24  C   UNL     1      -0.191  10.297  19.433  0.00  0.00    +0.000 A 
ATOM     25  N   UNL     1       0.129  11.567  19.036  0.00  0.00    +0.000 N 
ATOM     26  N   UNL     1      -0.752  12.133  18.205  0.00  0.00    +0.000 NA
ATOM     27  H   UNL     1       1.005  12.032  19.250  0.00  0.00    +0.000 HD
ENDBRANCH  17  24
ENDBRANCH  15  19
ENDBRANCH   1  16
BRANCH   4  28
ATOM     28  O   UNL     1       5.208   3.309  18.742  0.00  0.00    +0.000 OA
ATOM     29  H   UNL     1       6.145   3.459  18.558  0.00  0.00    +0.000 HD
ENDBRANCH   4  28
TORSDOF 6
ENDMDL
MODEL 7
REMARK VINA RESULT:      -8.1      3.127      7.283
REMARK  Name = 
REMARK  13 active torsions:
REMARK  status: ('A' for Active; 'I' for Inactive)
REMARK    1  A    between atoms: C_1  and  C_2
REMARK    2  A    between atoms: C_4  and  C_5
REMARK    3  A    between atoms: N_7  and  N_8
REMARK    4  A    between atoms: C_9  and  C_10
REMARK    5  A    between atoms: C_12  and  C_13
REMARK    6  A    between atoms: C_13  and  C_14
REMARK    7  A    between atoms: C_13  and  C_15
REMARK    8  A    between atoms: C_13  and  C_16
REMARK    9  A    between atoms: C_17  and  O_18
REMARK   10  A    between atoms: C_19  and  C_20
REMARK   11  A    between atoms: C_20  and  C_21
REMARK   12  A    between atoms: C_20  and  C_22
REMARK   13  A    between atoms: C_20  and  C_23
REMARK                            x       y       z     vdW  Elec       q    Type
REMARK                         _______ _______ _______ _____ _____    ______ ____
ROOT
ATOM      1  C   UNL     1       3.404   6.754  17.982  0.00  0.00    +0.000 A 
ATOM      2  C   UNL     1       2.651   7.657  18.713  0.00  0.00    +0.000 A 
ATOM      3  C   UNL     1       1.933   7.281  19.856  0.00  0.00    +0.000 A 
ATOM      4  C   UNL     1       1.974   5.904  20.182  0.00  0.00    +0.000 A 
ATOM      5  C   UNL     1       2.579   4.926  19.353  0.00  0.00    +0.000 A 
ATOM      6  C   UNL     1       3.308   5.401  18.245  0.00  0.00    +0.000 A 
ENDROOT
BRANCH   3   7
ATOM      7  C   UNL     1       1.171   8.371  20.648  0.00  0.00    +0.000 C 
ATOM      8  C   UNL     1       1.969   8.728  21.928  0.00  0.00    +0.000 C 
ATOM      9  C   UNL     1       1.017   9.643  19.790  0.00  0.00    +0.000 C 
ATOM     10  C   UNL     1      -0.244   7.991  21.134  0.00  0.00    +0.000 C 
ENDBRANCH   3   7
BRANCH   5  11
ATOM     11  C   UNL     1       2.459   3.396  19.594  0.00  0.00    +0.000 C 
ATOM     12  C   UNL     1       1.030   2.914  19.253  0.00  0.00    +0.000 C 
ATOM     13  C   UNL     1       3.470   2.642  18.694  0.00  0.00    +0.000 C 
ATOM     14  C   UNL     1       2.734   2.925  21.040  0.00  0.00    +0.000 C 
ENDBRANCH   5  11
BRANCH   1  16
ATOM     15  N   UNL     1       5.603   7.054  16.854  0.00  0.00    +0.000 NA
ATOM     16  C   UNL     1       4.332   7.235  16.939  0.00  0.00    +0.000 C 
BRANCH  15  19
ATOM     17  C   UNL     1       6.946   5.073  17.316  0.00  0.00    +0.000 C 
ATOM     18  O   UNL     1       7.576   4.393  18.106  0.00  0.00    +0.000 OA
ATOM     19  N   UNL     1       6.255   6.222  17.736  0.00  0.00    +0.000 N 
ATOM     20  H   UNL     1       6.237   6.442  18.725  0.00  0.00    +0.000 HD
BRANCH  17  24
ATOM     21  C   UNL     1       6.035   3.400  12.610  0.00  0.00    +0.000 C 
ATOM     22  C   UNL     1       6.481   4.132  13.818  0.00  0.00    +0.000 A 
ATOM     23  C   UNL     1       6.074   3.946  15.151  0.00  0.00    +0.000 A 
ATOM     24  C   UNL     1       6.845   4.823  15.901  0.00  0.00    +0.000 A 
ATOM     25  N   UNL     1       7.556   5.525  14.967  0.00  0.00    +0.000 N 
ATOM     26  N   UNL     1       7.393   5.106  13.707  0.00  0.00    +0.000 NA
ATOM     27  H   UNL     1       8.241   6.241  15.185  0.00  0.00    +0.000 HD
ENDBRANCH  17  24
ENDBRANCH  15  19
ENDBRANCH   1  16
BRANCH   4  28
ATOM     28  O   UNL     1       1.491   5.503  21.394  0.00  0.00    +0.000 OA
ATOM     29  H   UNL     1       1.828   6.121  22.057  0.00  0.00    +0.000 HD
ENDBRANCH   4  28
TORSDOF 6
ENDMDL
MODEL 8
REMARK VINA RESULT:      -8.1      0.759      3.652
REMARK  Name = 
REMARK  13 active torsions:
REMARK  status: ('A' for Active; 'I' for Inactive)
REMARK    1  A    between atoms: C_1  and  C_2
REMARK    2  A    between atoms: C_4  and  C_5
REMARK    3  A    between atoms: N_7  and  N_8
REMARK    4  A    between atoms: C_9  and  C_10
REMARK    5  A    between atoms: C_12  and  C_13
REMARK    6  A    between atoms: C_13  and  C_14
REMARK    7  A    between atoms: C_13  and  C_15
REMARK    8  A    between atoms: C_13  and  C_16
REMARK    9  A    between atoms: C_17  and  O_18
REMARK   10  A    between atoms: C_19  and  C_20
REMARK   11  A    between atoms: C_20  and  C_21
REMARK   12  A    between atoms: C_20  and  C_22
REMARK   13  A    between atoms: C_20  and  C_23
REMARK                            x       y       z     vdW  Elec       q    Type
REMARK                         _______ _______ _______ _____ _____    ______ ____
ROOT
ATOM      1  C   UNL     1       3.134   6.911  17.993  0.00  0.00    +0.000 A 
ATOM      2  C   UNL     1       4.468   6.840  17.632  0.00  0.00    +0.000 A 
ATOM      3  C   UNL     1       5.167   5.627  17.583  0.00  0.00    +0.000 A 
ATOM      4  C   UNL     1       4.440   4.482  17.987  0.00  0.00    +0.000 A 
ATOM      5  C   UNL     1       3.135   4.544  18.538  0.00  0.00    +0.000 A 
ATOM      6  C   UNL     1       2.498   5.800  18.514  0.00  0.00    +0.000 A 
ENDROOT
BRANCH   3   7
ATOM      7  C   UNL     1       6.639   5.636  17.105  0.00  0.00    +0.000 C 
ATOM      8  C   UNL     1       6.696   5.237  15.608  0.00  0.00    +0.000 C 
ATOM      9  C   UNL     1       7.244   7.045  17.266  0.00  0.00    +0.000 C 
ATOM     10  C   UNL     1       7.592   4.661  17.830  0.00  0.00    +0.000 C 
ENDBRANCH   3   7
BRANCH   5  11
ATOM     11  C   UNL     1       2.405   3.326  19.169  0.00  0.00    +0.000 C 
ATOM     12  C   UNL     1       3.285   2.692  20.272  0.00  0.00    +0.000 C 
ATOM     13  C   UNL     1       1.066   3.785  19.799  0.00  0.00    +0.000 C 
ATOM     14  C   UNL     1       2.053   2.181  18.192  0.00  0.00    +0.000 C 
ENDBRANCH   5  11
BRANCH   1  16
ATOM     15  N   UNL     1       1.691   8.829  18.659  0.00  0.00    +0.000 NA
ATOM     16  C   UNL     1       2.378   8.165  17.796  0.00  0.00    +0.000 C 
BRANCH  15  19
ATOM     17  C   UNL     1       0.955   9.166  20.958  0.00  0.00    +0.000 C 
ATOM     18  O   UNL     1       0.918   8.784  22.114  0.00  0.00    +0.000 OA
ATOM     19  N   UNL     1       1.696   8.470  19.987  0.00  0.00    +0.000 N 
ATOM     20  H   UNL     1       2.254   7.677  20.281  0.00  0.00    +0.000 HD
BRANCH  17  24
ATOM     21  C   UNL     1      -0.936  13.728  19.784  0.00  0.00    +0.000 C 
ATOM     22  C   UNL     1      -0.609  12.288  19.888  0.00  0.00    +0.000 A 
ATOM     23  C   UNL     1       0.441  11.681  20.599  0.00  0.00    +0.000 A 
ATOM     24  C   UNL     1       0.259  10.314  20.439  0.00  0.00    +0.000 A 
ATOM     25  N   UNL     1      -0.797  10.219  19.575  0.00  0.00    +0.000 N 
ATOM     26  N   UNL     1      -1.370  11.384  19.257  0.00  0.00    +0.000 NA
ATOM     27  H   UNL     1      -1.207   9.344  19.262  0.00  0.00    +0.000 HD
ENDBRANCH  17  24
ENDBRANCH  15  19
ENDBRANCH   1  16
BRANCH   4  28
ATOM     28  O   UNL     1       4.976   3.249  17.754  0.00  0.00    +0.000 OA
ATOM     29  H   UNL     1       5.938   3.346  17.765  0.00  0.00    +0.000 HD
ENDBRANCH   4  28
TORSDOF 6
ENDMDL
MODEL 9
REMARK VINA RESULT:      -8.0      0.702      3.654
REMARK  Name = 
REMARK  13 active torsions:
REMARK  status: ('A' for Active; 'I' for Inactive)
REMARK    1  A    between atoms: C_1  and  C_2
REMARK    2  A    between atoms: C_4  and  C_5
REMARK    3  A    between atoms: N_7  and  N_8
REMARK    4  A    between atoms: C_9  and  C_10
REMARK    5  A    between atoms: C_12  and  C_13
REMARK    6  A    between atoms: C_13  and  C_14
REMARK    7  A    between atoms: C_13  and  C_15
REMARK    8  A    between atoms: C_13  and  C_16
REMARK    9  A    between atoms: C_17  and  O_18
REMARK   10  A    between atoms: C_19  and  C_20
REMARK   11  A    between atoms: C_20  and  C_21
REMARK   12  A    between atoms: C_20  and  C_22
REMARK   13  A    between atoms: C_20  and  C_23
REMARK                            x       y       z     vdW  Elec       q    Type
REMARK                         _______ _______ _______ _____ _____    ______ ____
ROOT
ATOM      1  C   UNL     1       3.243   6.789  18.155  0.00  0.00    +0.000 A 
ATOM      2  C   UNL     1       4.626   6.780  18.084  0.00  0.00    +0.000 A 
ATOM      3  C   UNL     1       5.377   5.615  18.283  0.00  0.00    +0.000 A 
ATOM      4  C   UNL     1       4.638   4.457  18.625  0.00  0.00    +0.000 A 
ATOM      5  C   UNL     1       3.245   4.473  18.887  0.00  0.00    +0.000 A 
ATOM      6  C   UNL     1       2.567   5.680  18.626  0.00  0.00    +0.000 A 
ENDROOT
BRANCH   3   7
ATOM      7  C   UNL     1       6.915   5.685  18.120  0.00  0.00    +0.000 C 
ATOM      8  C   UNL     1       7.299   7.023  17.439  0.00  0.00    +0.000 C 
ATOM      9  C   UNL     1       7.601   5.616  19.499  0.00  0.00    +0.000 C 
ATOM     10  C   UNL     1       7.555   4.579  17.253  0.00  0.00    +0.000 C 
ENDBRANCH   3   7
BRANCH   5  11
ATOM     11  C   UNL     1       2.459   3.260  19.455  0.00  0.00    +0.000 C 
ATOM     12  C   UNL     1       2.352   2.148  18.386  0.00  0.00    +0.000 C 
ATOM     13  C   UNL     1       3.194   2.692  20.696  0.00  0.00    +0.000 C 
ATOM     14  C   UNL     1       1.012   3.556  19.909  0.00  0.00    +0.000 C 
ENDBRANCH   5  11
BRANCH   1  16
ATOM     15  N   UNL     1       1.706   8.736  18.385  0.00  0.00    +0.000 NA
ATOM     16  C   UNL     1       2.485   7.973  17.701  0.00  0.00    +0.000 C 
BRANCH  15  19
ATOM     17  C   UNL     1       0.894   9.496  20.554  0.00  0.00    +0.000 C 
ATOM     18  O   UNL     1       0.743   9.298  21.746  0.00  0.00    +0.000 OA
ATOM     19  N   UNL     1       1.591   8.580  19.748  0.00  0.00    +0.000 N 
ATOM     20  H   UNL     1       2.023   7.777  20.190  0.00  0.00    +0.000 HD
BRANCH  17  24
ATOM     21  C   UNL     1      -0.261  14.021  18.563  0.00  0.00    +0.000 C 
ATOM     22  C   UNL     1      -0.166  12.588  18.924  0.00  0.00    +0.000 A 
ATOM     23  C   UNL     1       0.783  11.957  19.749  0.00  0.00    +0.000 A 
ATOM     24  C   UNL     1       0.383  10.630  19.829  0.00  0.00    +0.000 A 
ATOM     25  N   UNL     1      -0.685  10.553  18.978  0.00  0.00    +0.000 N 
ATOM     26  N   UNL     1      -1.068  11.720  18.450  0.00  0.00    +0.000 NA
ATOM     27  H   UNL     1      -1.232   9.713  18.818  0.00  0.00    +0.000 HD
ENDBRANCH  17  24
ENDBRANCH  15  19
ENDBRANCH   1  16
BRANCH   4  28
ATOM     28  O   UNL     1       5.271   3.248  18.612  0.00  0.00    +0.000 OA
ATOM     29  H   UNL     1       6.161   3.392  18.263  0.00  0.00    +0.000 HD
ENDBRANCH   4  28
TORSDOF 6
ENDMDL
