MODEL 1
REMARK VINA RESULT:      -6.4      0.000      0.000
REMARK  Name = 
REMARK  5 active torsions:
REMARK  status: ('A' for Active; 'I' for Inactive)
REMARK    1  A    between atoms: C_1  and  C_2
REMARK    2  A    between atoms: C_5  and  S_6
REMARK    3  A    between atoms: S_6  and  S_7
REMARK    4  A    between atoms: S_7  and  C_8
REMARK    5  A    between atoms: C_13  and  N_14
REMARK                            x       y       z     vdW  Elec       q    Type
REMARK                         _______ _______ _______ _____ _____    ______ ____
ROOT
ATOM      1  C   UNL     1       3.492   4.257  19.714  0.00  0.00    +0.000 A 
ATOM      2  C   UNL     1       2.535   5.220  20.075  0.00  0.00    +0.000 A 
ATOM      3  C   UNL     1       1.340   4.853  20.707  0.00  0.00    +0.000 A 
ATOM      4  C   UNL     1       1.077   3.515  20.997  0.00  0.00    +0.000 A 
ATOM      5  C   UNL     1       2.005   2.539  20.648  0.00  0.00    +0.000 A 
ATOM      6  C   UNL     1       3.200   2.918  20.011  0.00  0.00    +0.000 A 
ENDROOT
BRANCH   6   7
ATOM      7  N   UNL     1       4.120   1.852  19.665  0.00  0.00    +0.000 N 
ATOM      8  O   UNL     1       3.919   1.242  18.607  0.00  0.00    +0.000 OA
ATOM      9  O   UNL     1       5.078   1.671  20.430  0.00  0.00    +0.000 OA
ENDBRANCH   6   7
BRANCH   1  10
ATOM     10  S   UNL     1       5.002   4.836  18.948  0.00  0.00    +0.000 S 
BRANCH  10  11
ATOM     11  S   UNL     1       4.295   5.866  17.315  0.00  0.00    +0.000 S 
BRANCH  11  16
ATOM     12  C   UNL     1       5.877   3.618  12.965  0.00  0.00    +0.000 C 
ATOM     13  C   UNL     1       6.129   4.374  14.219  0.00  0.00    +0.000 A 
ATOM     14  C   UNL     1       7.360   4.727  14.737  0.00  0.00    +0.000 A 
ATOM     15  S   UNL     1       7.158   5.549  16.228  0.00  0.00    +0.000 S 
ATOM     16  C   UNL     1       5.453   5.389  16.076  0.00  0.00    +0.000 A 
ATOM     17  N   UNL     1       5.044   4.768  14.989  0.00  0.00    +0.000 NA
ENDBRANCH  11  16
ENDBRANCH  10  11
ENDBRANCH   1  10
TORSDOF 4
ENDMDL
MODEL 2
REMARK VINA RESULT:      -6.3      3.047      6.470
REMARK  Name = 
REMARK  5 active torsions:
REMARK  status: ('A' for Active; 'I' for Inactive)
REMARK    1  A    between atoms: C_1  and  C_2
REMARK    2  A    between atoms: C_5  and  S_6
REMARK    3  A    between atoms: S_6  and  S_7
REMARK    4  A    between atoms: S_7  and  C_8
REMARK    5  A    between atoms: C_13  and  N_14
REMARK                            x       y       z     vdW  Elec       q    Type
REMARK                         _______ _______ _______ _____ _____    ______ ____
ROOT
ATOM      1  C   UNL     1       5.748   5.135  17.566  0.00  0.00    +0.000 A 
ATOM      2  C   UNL     1       5.142   4.090  16.849  0.00  0.00    +0.000 A 
ATOM      3  C   UNL     1       5.596   3.728  15.574  0.00  0.00    +0.000 A 
ATOM      4  C   UNL     1       6.667   4.400  14.988  0.00  0.00    +0.000 A 
ATOM      5  C   UNL     1       7.284   5.442  15.673  0.00  0.00    +0.000 A 
ATOM      6  C   UNL     1       6.820   5.799  16.951  0.00  0.00    +0.000 A 
ENDROOT
BRANCH   6   7
ATOM      7  N   UNL     1       7.499   6.900  17.608  0.00  0.00    +0.000 N 
ATOM      8  O   UNL     1       8.142   6.645  18.634  0.00  0.00    +0.000 OA
ATOM      9  O   UNL     1       7.431   8.006  17.055  0.00  0.00    +0.000 OA
ENDBRANCH   6   7
BRANCH   1  10
ATOM     10  S   UNL     1       5.119   5.490  19.203  0.00  0.00    +0.000 S 
BRANCH  10  11
ATOM     11  S   UNL     1       3.221   6.172  18.801  0.00  0.00    +0.000 S 
BRANCH  11  16
ATOM     12  C   UNL     1       1.344   2.486  21.861  0.00  0.00    +0.000 C 
ATOM     13  C   UNL     1       1.484   3.150  20.540  0.00  0.00    +0.000 A 
ATOM     14  C   UNL     1       0.991   2.696  19.332  0.00  0.00    +0.000 A 
ATOM     15  S   UNL     1       1.443   3.767  18.072  0.00  0.00    +0.000 S 
ATOM     16  C   UNL     1       2.250   4.762  19.217  0.00  0.00    +0.000 A 
ATOM     17  N   UNL     1       2.194   4.339  20.464  0.00  0.00    +0.000 NA
ENDBRANCH  11  16
ENDBRANCH  10  11
ENDBRANCH   1  10
TORSDOF 4
ENDMDL
MODEL 3
REMARK VINA RESULT:      -6.0      2.161      2.446
REMARK  Name = 
REMARK  5 active torsions:
REMARK  status: ('A' for Active; 'I' for Inactive)
REMARK    1  A    between atoms: C_1  and  C_2
REMARK    2  A    between atoms: C_5  and  S_6
REMARK    3  A    between atoms: S_6  and  S_7
REMARK    4  A    between atoms: S_7  and  C_8
REMARK    5  A    between atoms: C_13  and  N_14
REMARK                            x       y       z     vdW  Elec       q    Type
REMARK                         _______ _______ _______ _____ _____    ______ ____
ROOT
ATOM      1  C   UNL     1       3.246   3.965  19.037  0.00  0.00    +0.000 A 
ATOM      2  C   UNL     1       3.333   3.218  17.851  0.00  0.00    +0.000 A 
ATOM      3  C   UNL     1       2.419   2.193  17.571  0.00  0.00    +0.000 A 
ATOM      4  C   UNL     1       1.395   1.896  18.468  0.00  0.00    +0.000 A 
ATOM      5  C   UNL     1       1.286   2.618  19.653  0.00  0.00    +0.000 A 
ATOM      6  C   UNL     1       2.210   3.642  19.926  0.00  0.00    +0.000 A 
ENDROOT
BRANCH   6   7
ATOM      7  N   UNL     1       2.047   4.349  21.181  0.00  0.00    +0.000 N 
ATOM      8  O   UNL     1       1.641   5.517  21.132  0.00  0.00    +0.000 OA
ATOM      9  O   UNL     1       2.272   3.707  22.217  0.00  0.00    +0.000 OA
ENDBRANCH   6   7
BRANCH   1  10
ATOM     10  S   UNL     1       4.438   5.278  19.279  0.00  0.00    +0.000 S 
BRANCH  10  11
ATOM     11  S   UNL     1       4.170   6.425  17.593  0.00  0.00    +0.000 S 
BRANCH  11  16
ATOM     12  C   UNL     1       5.971   3.881  13.499  0.00  0.00    +0.000 C 
ATOM     13  C   UNL     1       6.162   4.619  14.774  0.00  0.00    +0.000 A 
ATOM     14  C   UNL     1       7.351   4.802  15.452  0.00  0.00    +0.000 A 
ATOM     15  S   UNL     1       7.075   5.676  16.901  0.00  0.00    +0.000 S 
ATOM     16  C   UNL     1       5.400   5.760  16.522  0.00  0.00    +0.000 A 
ATOM     17  N   UNL     1       5.053   5.181  15.391  0.00  0.00    +0.000 NA
ENDBRANCH  11  16
ENDBRANCH  10  11
ENDBRANCH   1  10
TORSDOF 4
ENDMDL
MODEL 4
REMARK VINA RESULT:      -6.0      0.979      1.056
REMARK  Name = 
REMARK  5 active torsions:
REMARK  status: ('A' for Active; 'I' for Inactive)
REMARK    1  A    between atoms: C_1  and  C_2
REMARK    2  A    between atoms: C_5  and  S_6
REMARK    3  A    between atoms: S_6  and  S_7
REMARK    4  A    between atoms: S_7  and  C_8
REMARK    5  A    between atoms: C_13  and  N_14
REMARK                            x       y       z     vdW  Elec       q    Type
REMARK                         _______ _______ _______ _____ _____    ______ ____
ROOT
ATOM      1  C   UNL     1       2.592   3.522  18.877  0.00  0.00    +0.000 A 
ATOM      2  C   UNL     1       1.546   4.387  19.236  0.00  0.00    +0.000 A 
ATOM      3  C   UNL     1       0.957   4.325  20.506  0.00  0.00    +0.000 A 
ATOM      4  C   UNL     1       1.403   3.399  21.447  0.00  0.00    +0.000 A 
ATOM      5  C   UNL     1       2.436   2.527  21.118  0.00  0.00    +0.000 A 
ATOM      6  C   UNL     1       3.019   2.596  19.840  0.00  0.00    +0.000 A 
ENDROOT
BRANCH   6   7
ATOM      7  N   UNL     1       4.084   1.653  19.557  0.00  0.00    +0.000 N 
ATOM      8  O   UNL     1       3.916   0.864  18.619  0.00  0.00    +0.000 OA
ATOM      9  O   UNL     1       5.111   1.748  20.244  0.00  0.00    +0.000 OA
ENDBRANCH   6   7
BRANCH   1  10
ATOM     10  S   UNL     1       3.302   3.712  17.245  0.00  0.00    +0.000 S 
BRANCH  10  11
ATOM     11  S   UNL     1       5.188   4.413  17.670  0.00  0.00    +0.000 S 
BRANCH  11  16
ATOM     12  C   UNL     1       5.653   3.425  12.642  0.00  0.00    +0.000 C 
ATOM     13  C   UNL     1       6.091   4.093  13.895  0.00  0.00    +0.000 A 
ATOM     14  C   UNL     1       7.228   4.858  14.068  0.00  0.00    +0.000 A 
ATOM     15  S   UNL     1       7.344   5.380  15.696  0.00  0.00    +0.000 S 
ATOM     16  C   UNL     1       5.874   4.565  16.055  0.00  0.00    +0.000 A 
ATOM     17  N   UNL     1       5.318   3.941  15.036  0.00  0.00    +0.000 NA
ENDBRANCH  11  16
ENDBRANCH  10  11
ENDBRANCH   1  10
TORSDOF 4
ENDMDL
MODEL 5
REMARK VINA RESULT:      -6.0      2.487      3.280
REMARK  Name = 
REMARK  5 active torsions:
REMARK  status: ('A' for Active; 'I' for Inactive)
REMARK    1  A    between atoms: C_1  and  C_2
REMARK    2  A    between atoms: C_5  and  S_6
REMARK    3  A    between atoms: S_6  and  S_7
REMARK    4  A    between atoms: S_7  and  C_8
REMARK    5  A    between atoms: C_13  and  N_14
REMARK                            x       y       z     vdW  Elec       q    Type
REMARK                         _______ _______ _______ _____ _____    ______ ____
ROOT
ATOM      1  C   UNL     1       3.282   4.832  18.649  0.00  0.00    +0.000 A 
ATOM      2  C   UNL     1       3.149   6.230  18.620  0.00  0.00    +0.000 A 
ATOM      3  C   UNL     1       2.407   6.908  19.596  0.00  0.00    +0.000 A 
ATOM      4  C   UNL     1       1.785   6.205  20.626  0.00  0.00    +0.000 A 
ATOM      5  C   UNL     1       1.897   4.818  20.679  0.00  0.00    +0.000 A 
ATOM      6  C   UNL     1       2.641   4.147  19.693  0.00  0.00    +0.000 A 
ENDROOT
BRANCH   6   7
ATOM      7  N   UNL     1       2.711   2.703  19.799  0.00  0.00    +0.000 N 
ATOM      8  O   UNL     1       3.654   2.220  20.438  0.00  0.00    +0.000 OA
ATOM      9  O   UNL     1       1.783   2.060  19.288  0.00  0.00    +0.000 OA
ENDBRANCH   6   7
BRANCH   1  10
ATOM     10  S   UNL     1       4.285   4.069  17.379  0.00  0.00    +0.000 S 
BRANCH  10  11
ATOM     11  S   UNL     1       4.907   5.693  16.282  0.00  0.00    +0.000 S 
BRANCH  11  16
ATOM     12  C   UNL     1       8.383   9.125  17.898  0.00  0.00    +0.000 C 
ATOM     13  C   UNL     1       7.739   7.787  17.945  0.00  0.00    +0.000 A 
ATOM     14  C   UNL     1       8.144   6.703  18.698  0.00  0.00    +0.000 A 
ATOM     15  S   UNL     1       7.126   5.359  18.390  0.00  0.00    +0.000 S 
ATOM     16  C   UNL     1       6.213   6.312  17.289  0.00  0.00    +0.000 A 
ATOM     17  N   UNL     1       6.626   7.555  17.150  0.00  0.00    +0.000 NA
ENDBRANCH  11  16
ENDBRANCH  10  11
ENDBRANCH   1  10
TORSDOF 4
ENDMDL
MODEL 6
REMARK VINA RESULT:      -6.0      1.637      1.880
REMARK  Name = 
REMARK  5 active torsions:
REMARK  status: ('A' for Active; 'I' for Inactive)
REMARK    1  A    between atoms: C_1  and  C_2
REMARK    2  A    between atoms: C_5  and  S_6
REMARK    3  A    between atoms: S_6  and  S_7
REMARK    4  A    between atoms: S_7  and  C_8
REMARK    5  A    between atoms: C_13  and  N_14
REMARK                            x       y       z     vdW  Elec       q    Type
REMARK                         _______ _______ _______ _____ _____    ______ ____
ROOT
ATOM      1  C   UNL     1       3.760   4.022  18.733  0.00  0.00    +0.000 A 
ATOM      2  C   UNL     1       2.953   4.689  17.796  0.00  0.00    +0.000 A 
ATOM      3  C   UNL     1       1.587   4.399  17.680  0.00  0.00    +0.000 A 
ATOM      4  C   UNL     1       0.996   3.439  18.500  0.00  0.00    +0.000 A 
ATOM      5  C   UNL     1       1.772   2.759  19.434  0.00  0.00    +0.000 A 
ATOM      6  C   UNL     1       3.142   3.056  19.541  0.00  0.00    +0.000 A 
ENDROOT
BRANCH   6   7
ATOM      7  N   UNL     1       3.897   2.306  20.526  0.00  0.00    +0.000 N 
ATOM      8  O   UNL     1       4.953   1.777  20.158  0.00  0.00    +0.000 OA
ATOM      9  O   UNL     1       3.453   2.301  21.683  0.00  0.00    +0.000 OA
ENDBRANCH   6   7
BRANCH   1  10
ATOM     10  S   UNL     1       5.483   4.496  18.828  0.00  0.00    +0.000 S 
BRANCH  10  11
ATOM     11  S   UNL     1       5.584   6.042  17.476  0.00  0.00    +0.000 S 
BRANCH  11  16
ATOM     12  C   UNL     1       8.138   5.449  13.049  0.00  0.00    +0.000 C 
ATOM     13  C   UNL     1       7.191   4.977  14.092  0.00  0.00    +0.000 A 
ATOM     14  C   UNL     1       6.421   3.831  14.049  0.00  0.00    +0.000 A 
ATOM     15  S   UNL     1       5.444   3.725  15.453  0.00  0.00    +0.000 S 
ATOM     16  C   UNL     1       6.118   5.200  16.024  0.00  0.00    +0.000 A 
ATOM     17  N   UNL     1       7.017   5.747  15.232  0.00  0.00    +0.000 NA
ENDBRANCH  11  16
ENDBRANCH  10  11
ENDBRANCH   1  10
TORSDOF 4
ENDMDL
MODEL 7
REMARK VINA RESULT:      -6.0      3.497      5.940
REMARK  Name = 
REMARK  5 active torsions:
REMARK  status: ('A' for Active; 'I' for Inactive)
REMARK    1  A    between atoms: C_1  and  C_2
REMARK    2  A    between atoms: C_5  and  S_6
REMARK    3  A    between atoms: S_6  and  S_7
REMARK    4  A    between atoms: S_7  and  C_8
REMARK    5  A    between atoms: C_13  and  N_14
REMARK                            x       y       z     vdW  Elec       q    Type
REMARK                         _______ _______ _______ _____ _____    ______ ____
ROOT
ATOM      1  C   UNL     1       5.660   4.894  17.595  0.00  0.00    +0.000 A 
ATOM      2  C   UNL     1       6.101   4.749  18.921  0.00  0.00    +0.000 A 
ATOM      3  C   UNL     1       7.157   5.521  19.422  0.00  0.00    +0.000 A 
ATOM      4  C   UNL     1       7.794   6.458  18.611  0.00  0.00    +0.000 A 
ATOM      5  C   UNL     1       7.381   6.622  17.292  0.00  0.00    +0.000 A 
ATOM      6  C   UNL     1       6.322   5.840  16.798  0.00  0.00    +0.000 A 
ENDROOT
BRANCH   6   7
ATOM      7  N   UNL     1       5.946   6.051  15.413  0.00  0.00    +0.000 N 
ATOM      8  O   UNL     1       5.069   6.893  15.179  0.00  0.00    +0.000 OA
ATOM      9  O   UNL     1       6.577   5.412  14.560  0.00  0.00    +0.000 OA
ENDBRANCH   6   7
BRANCH   1  10
ATOM     10  S   UNL     1       4.277   3.889  17.067  0.00  0.00    +0.000 S 
BRANCH  10  11
ATOM     11  S   UNL     1       3.227   3.641  18.817  0.00  0.00    +0.000 S 
BRANCH  11  16
ATOM     12  C   UNL     1       2.388   8.599  17.730  0.00  0.00    +0.000 C 
ATOM     13  C   UNL     1       2.326   7.426  18.639  0.00  0.00    +0.000 A 
ATOM     14  C   UNL     1       1.924   7.427  19.960  0.00  0.00    +0.000 A 
ATOM     15  S   UNL     1       2.066   5.851  20.620  0.00  0.00    +0.000 S 
ATOM     16  C   UNL     1       2.639   5.276  19.104  0.00  0.00    +0.000 A 
ATOM     17  N   UNL     1       2.723   6.188  18.157  0.00  0.00    +0.000 NA
ENDBRANCH  11  16
ENDBRANCH  10  11
ENDBRANCH   1  10
TORSDOF 4
ENDMDL
MODEL 8
REMARK VINA RESULT:      -6.0      2.835      6.287
REMARK  Name = 
REMARK  5 active torsions:
REMARK  status: ('A' for Active; 'I' for Inactive)
REMARK    1  A    between atoms: C_1  and  C_2
REMARK    2  A    between atoms: C_5  and  S_6
REMARK    3  A    between atoms: S_6  and  S_7
REMARK    4  A    between atoms: S_7  and  C_8
REMARK    5  A    between atoms: C_13  and  N_14
REMARK                            x       y       z     vdW  Elec       q    Type
REMARK                         _______ _______ _______ _____ _____    ______ ____
ROOT
ATOM      1  C   UNL     1       5.443   5.444  17.221  0.00  0.00    +0.000 A 
ATOM      2  C   UNL     1       4.740   4.791  16.196  0.00  0.00    +0.000 A 
ATOM      3  C   UNL     1       5.399   4.311  15.056  0.00  0.00    +0.000 A 
ATOM      4  C   UNL     1       6.777   4.470  14.918  0.00  0.00    +0.000 A 
ATOM      5  C   UNL     1       7.499   5.116  15.917  0.00  0.00    +0.000 A 
ATOM      6  C   UNL     1       6.827   5.596  17.055  0.00  0.00    +0.000 A 
ENDROOT
BRANCH   6   7
ATOM      7  N   UNL     1       7.635   6.269  18.054  0.00  0.00    +0.000 N 
ATOM      8  O   UNL     1       7.818   7.486  17.919  0.00  0.00    +0.000 OA
ATOM      9  O   UNL     1       8.035   5.582  19.004  0.00  0.00    +0.000 OA
ENDBRANCH   6   7
BRANCH   1  10
ATOM     10  S   UNL     1       4.512   5.982  18.652  0.00  0.00    +0.000 S 
BRANCH  10  11
ATOM     11  S   UNL     1       2.569   5.769  18.011  0.00  0.00    +0.000 S 
BRANCH  11  16
ATOM     12  C   UNL     1       1.416   2.540  21.848  0.00  0.00    +0.000 C 
ATOM     13  C   UNL     1       1.678   2.837  20.417  0.00  0.00    +0.000 A 
ATOM     14  C   UNL     1       1.774   1.920  19.388  0.00  0.00    +0.000 A 
ATOM     15  S   UNL     1       2.137   2.722  17.917  0.00  0.00    +0.000 S 
ATOM     16  C   UNL     1       2.129   4.229  18.744  0.00  0.00    +0.000 A 
ATOM     17  N   UNL     1       1.873   4.157  20.034  0.00  0.00    +0.000 NA
ENDBRANCH  11  16
ENDBRANCH  10  11
ENDBRANCH   1  10
TORSDOF 4
ENDMDL
MODEL 9
REMARK VINA RESULT:      -5.9      2.610      3.455
REMARK  Name = 
REMARK  5 active torsions:
REMARK  status: ('A' for Active; 'I' for Inactive)
REMARK    1  A    between atoms: C_1  and  C_2
REMARK    2  A    between atoms: C_5  and  S_6
REMARK    3  A    between atoms: S_6  and  S_7
REMARK    4  A    between atoms: S_7  and  C_8
REMARK    5  A    between atoms: C_13  and  N_14
REMARK                            x       y       z     vdW  Elec       q    Type
REMARK                         _______ _______ _______ _____ _____    ______ ____
ROOT
ATOM      1  C   UNL     1       2.414   5.119  18.903  0.00  0.00    +0.000 A 
ATOM      2  C   UNL     1       2.636   6.344  18.255  0.00  0.00    +0.000 A 
ATOM      3  C   UNL     1       2.349   7.561  18.887  0.00  0.00    +0.000 A 
ATOM      4  C   UNL     1       1.837   7.581  20.183  0.00  0.00    +0.000 A 
ATOM      5  C   UNL     1       1.603   6.381  20.849  0.00  0.00    +0.000 A 
ATOM      6  C   UNL     1       1.892   5.165  20.205  0.00  0.00    +0.000 A 
ENDROOT
BRANCH   6   7
ATOM      7  N   UNL     1       1.617   3.952  20.949  0.00  0.00    +0.000 N 
ATOM      8  O   UNL     1       2.301   3.730  21.957  0.00  0.00    +0.000 OA
ATOM      9  O   UNL     1       0.674   3.254  20.551  0.00  0.00    +0.000 OA
ENDBRANCH   6   7
BRANCH   1  10
ATOM     10  S   UNL     1       2.852   3.624  18.023  0.00  0.00    +0.000 S 
BRANCH  10  11
ATOM     11  S   UNL     1       4.736   3.229  18.747  0.00  0.00    +0.000 S 
BRANCH  11  16
ATOM     12  C   UNL     1       7.580   7.366  17.616  0.00  0.00    +0.000 C 
ATOM     13  C   UNL     1       6.911   6.092  17.247  0.00  0.00    +0.000 A 
ATOM     14  C   UNL     1       6.810   5.550  15.981  0.00  0.00    +0.000 A 
ATOM     15  S   UNL     1       5.907   4.094  16.034  0.00  0.00    +0.000 S 
ATOM     16  C   UNL     1       5.724   4.278  17.733  0.00  0.00    +0.000 A 
ATOM     17  N   UNL     1       6.295   5.349  18.244  0.00  0.00    +0.000 NA
ENDBRANCH  11  16
ENDBRANCH  10  11
ENDBRANCH   1  10
TORSDOF 4
ENDMDL
