MODEL 1
REMARK VINA RESULT:      -6.6      0.000      0.000
REMARK  Name = 
REMARK  9 active torsions:
REMARK  status: ('A' for Active; 'I' for Inactive)
REMARK    1  A    between atoms: C_1  and  O_2
REMARK    2  A    between atoms: O_2  and  C_3
REMARK    3  A    between atoms: C_3  and  O_4
REMARK    4  A    between atoms: C_3  and  C_6
REMARK    5  A    between atoms: O_4  and  C_5
REMARK    6  A    between atoms: C_12  and  O_13
REMARK    7  A    between atoms: O_13  and  C_14
REMARK    8  A    between atoms: N_19  and  C_20
REMARK    9  A    between atoms: C_20  and  C_21
REMARK                            x       y       z     vdW  Elec       q    Type
REMARK                         _______ _______ _______ _____ _____    ______ ____
ROOT
ATOM      1  C   UNL     1      -2.592  10.751  17.854  0.00  0.00    +0.000 A 
ATOM      2  C   UNL     1      -1.346  10.189  17.615  0.00  0.00    +0.000 A 
ATOM      3  C   UNL     1      -0.341  10.711  18.501  0.00  0.00    +0.000 A 
ATOM      4  C   UNL     1      -0.821  11.803  19.183  0.00  0.00    +0.000 A 
ATOM      5  S   UNL     1      -2.441  12.160  18.832  0.00  0.00    +0.000 S 
ATOM      6  C   UNL     1      -0.072  12.454  20.284  0.00  0.00    +0.000 C 
ATOM      7  C   UNL     1       1.437  12.160  20.170  0.00  0.00    +0.000 C 
ATOM      8  O   UNL     1       1.857  10.889  19.664  0.00  0.00    +0.000 OA
ATOM      9  C   UNL     1       0.945  10.029  18.943  0.00  0.00    +0.000 C 
ATOM     10  C   UNL     1       0.511   8.930  19.931  0.00  0.00    +0.000 C 
ATOM     11  C   UNL     1       1.531   7.843  20.241  0.00  0.00    +0.000 C 
ATOM     12  N   UNL     1       2.384   7.374  19.155  0.00  0.00    +0.000 NA
ATOM     13  C   UNL     1       2.818   8.429  18.244  0.00  0.00    +0.000 C 
ATOM     14  C   UNL     1       1.739   9.414  17.776  0.00  0.00    +0.000 C 
ENDROOT
BRANCH   7  15
ATOM     15  O   UNL     1       2.060  13.233  19.448  0.00  0.00    +0.000 OA
ATOM     16  C   UNL     1       2.688  12.774  18.257  0.00  0.00    +0.000 C 
ENDBRANCH   7  15
BRANCH   1  17
ATOM     17  C   UNL     1      -3.962  10.261  17.455  0.00  0.00    +0.000 C 
BRANCH  17  19
ATOM     18  C   UNL     1      -6.051  11.208  18.002  0.00  0.00    +0.000 C 
ATOM     19  O   UNL     1      -4.889  10.555  18.500  0.00  0.00    +0.000 OA
ENDBRANCH  17  19
BRANCH  17  20
ATOM     20  O   UNL     1      -4.337  10.831  16.188  0.00  0.00    +0.000 OA
ATOM     21  C   UNL     1      -3.672  10.286  15.057  0.00  0.00    +0.000 C 
ENDBRANCH  17  20
ENDBRANCH   1  17
BRANCH  12  22
ATOM     22  C   UNL     1       1.943   6.105  18.576  0.00  0.00    +0.000 C 
BRANCH  22  23
ATOM     23  C   UNL     1       2.169   4.891  19.459  0.00  0.00    +0.000 A 
ATOM     24  C   UNL     1       3.411   4.246  19.515  0.00  0.00    +0.000 A 
ATOM     25  C   UNL     1       3.588   3.119  20.337  0.00  0.00    +0.000 A 
ATOM     26  C   UNL     1       2.536   2.642  21.093  0.00  0.00    +0.000 A 
ATOM     27  C   UNL     1       1.301   3.285  21.066  0.00  0.00    +0.000 A 
ATOM     28  C   UNL     1       1.120   4.403  20.253  0.00  0.00    +0.000 A 
ENDBRANCH  22  23
ENDBRANCH  12  22
TORSDOF 6
ENDMDL
MODEL 2
REMARK VINA RESULT:      -6.5      1.104      1.365
REMARK  Name = 
REMARK  9 active torsions:
REMARK  status: ('A' for Active; 'I' for Inactive)
REMARK    1  A    between atoms: C_1  and  O_2
REMARK    2  A    between atoms: O_2  and  C_3
REMARK    3  A    between atoms: C_3  and  O_4
REMARK    4  A    between atoms: C_3  and  C_6
REMARK    5  A    between atoms: O_4  and  C_5
REMARK    6  A    between atoms: C_12  and  O_13
REMARK    7  A    between atoms: O_13  and  C_14
REMARK    8  A    between atoms: N_19  and  C_20
REMARK    9  A    between atoms: C_20  and  C_21
REMARK                            x       y       z     vdW  Elec       q    Type
REMARK                         _______ _______ _______ _____ _____    ______ ____
ROOT
ATOM      1  C   UNL     1      -2.538  10.808  17.823  0.00  0.00    +0.000 A 
ATOM      2  C   UNL     1      -1.390  10.039  17.695  0.00  0.00    +0.000 A 
ATOM      3  C   UNL     1      -0.253  10.662  18.317  0.00  0.00    +0.000 A 
ATOM      4  C   UNL     1      -0.542  11.961  18.657  0.00  0.00    +0.000 A 
ATOM      5  S   UNL     1      -2.140  12.411  18.310  0.00  0.00    +0.000 S 
ATOM      6  C   UNL     1       0.376  12.804  19.460  0.00  0.00    +0.000 C 
ATOM      7  C   UNL     1       1.826  12.290  19.353  0.00  0.00    +0.000 C 
ATOM      8  O   UNL     1       2.054  10.883  19.237  0.00  0.00    +0.000 OA
ATOM      9  C   UNL     1       0.988   9.977  18.870  0.00  0.00    +0.000 C 
ATOM     10  C   UNL     1       0.534   9.289  20.172  0.00  0.00    +0.000 C 
ATOM     11  C   UNL     1       1.454   8.218  20.740  0.00  0.00    +0.000 C 
ATOM     12  N   UNL     1       2.142   7.337  19.802  0.00  0.00    +0.000 NA
ATOM     13  C   UNL     1       2.598   8.006  18.587  0.00  0.00    +0.000 C 
ATOM     14  C   UNL     1       1.593   8.942  17.903  0.00  0.00    +0.000 C 
ENDROOT
BRANCH   7  15
ATOM     15  O   UNL     1       2.490  13.007  18.300  0.00  0.00    +0.000 OA
ATOM     16  C   UNL     1       2.331  14.414  18.439  0.00  0.00    +0.000 C 
ENDBRANCH   7  15
BRANCH   1  17
ATOM     17  C   UNL     1      -3.986  10.410  17.675  0.00  0.00    +0.000 C 
BRANCH  17  19
ATOM     18  C   UNL     1      -6.130  10.700  18.610  0.00  0.00    +0.000 C 
ATOM     19  O   UNL     1      -4.740  10.973  18.747  0.00  0.00    +0.000 OA
ENDBRANCH  17  19
BRANCH  17  20
ATOM     20  O   UNL     1      -4.470  10.795  16.377  0.00  0.00    +0.000 OA
ATOM     21  C   UNL     1      -3.584  10.540  15.296  0.00  0.00    +0.000 C 
ENDBRANCH  17  20
ENDBRANCH   1  17
BRANCH  12  22
ATOM     22  C   UNL     1       1.511   6.024  19.668  0.00  0.00    +0.000 C 
BRANCH  22  23
ATOM     23  C   UNL     1       2.366   4.976  18.980  0.00  0.00    +0.000 A 
ATOM     24  C   UNL     1       3.652   4.662  19.439  0.00  0.00    +0.000 A 
ATOM     25  C   UNL     1       4.423   3.691  18.776  0.00  0.00    +0.000 A 
ATOM     26  C   UNL     1       3.916   3.041  17.668  0.00  0.00    +0.000 A 
ATOM     27  C   UNL     1       2.631   3.325  17.213  0.00  0.00    +0.000 A 
ATOM     28  C   UNL     1       1.861   4.287  17.867  0.00  0.00    +0.000 A 
ENDBRANCH  22  23
ENDBRANCH  12  22
TORSDOF 6
ENDMDL
MODEL 3
REMARK VINA RESULT:      -6.5      0.557      1.072
REMARK  Name = 
REMARK  9 active torsions:
REMARK  status: ('A' for Active; 'I' for Inactive)
REMARK    1  A    between atoms: C_1  and  O_2
REMARK    2  A    between atoms: O_2  and  C_3
REMARK    3  A    between atoms: C_3  and  O_4
REMARK    4  A    between atoms: C_3  and  C_6
REMARK    5  A    between atoms: O_4  and  C_5
REMARK    6  A    between atoms: C_12  and  O_13
REMARK    7  A    between atoms: O_13  and  C_14
REMARK    8  A    between atoms: N_19  and  C_20
REMARK    9  A    between atoms: C_20  and  C_21
REMARK                            x       y       z     vdW  Elec       q    Type
REMARK                         _______ _______ _______ _____ _____    ______ ____
ROOT
ATOM      1  C   UNL     1      -2.639  10.989  18.087  0.00  0.00    +0.000 A 
ATOM      2  C   UNL     1      -1.417  10.398  17.804  0.00  0.00    +0.000 A 
ATOM      3  C   UNL     1      -0.370  10.889  18.658  0.00  0.00    +0.000 A 
ATOM      4  C   UNL     1      -0.799  11.989  19.360  0.00  0.00    +0.000 A 
ATOM      5  S   UNL     1      -2.420  12.389  19.065  0.00  0.00    +0.000 S 
ATOM      6  C   UNL     1       0.003  12.616  20.439  0.00  0.00    +0.000 C 
ATOM      7  C   UNL     1       1.499  12.285  20.273  0.00  0.00    +0.000 C 
ATOM      8  O   UNL     1       1.870  11.007  19.747  0.00  0.00    +0.000 OA
ATOM      9  C   UNL     1       0.913  10.174  19.054  0.00  0.00    +0.000 C 
ATOM     10  C   UNL     1       0.485   9.080  20.050  0.00  0.00    +0.000 C 
ATOM     11  C   UNL     1       1.487   7.966  20.322  0.00  0.00    +0.000 C 
ATOM     12  N   UNL     1       2.291   7.482  19.206  0.00  0.00    +0.000 NA
ATOM     13  C   UNL     1       2.721   8.531  18.285  0.00  0.00    +0.000 C 
ATOM     14  C   UNL     1       1.651   9.545  17.857  0.00  0.00    +0.000 C 
ENDROOT
BRANCH   7  15
ATOM     15  O   UNL     1       2.125  13.346  19.535  0.00  0.00    +0.000 OA
ATOM     16  C   UNL     1       2.702  14.319  20.397  0.00  0.00    +0.000 C 
ENDBRANCH   7  15
BRANCH   1  17
ATOM     17  C   UNL     1      -4.034  10.536  17.733  0.00  0.00    +0.000 C 
BRANCH  17  19
ATOM     18  C   UNL     1      -6.273  10.547  18.473  0.00  0.00    +0.000 C 
ATOM     19  O   UNL     1      -4.941  10.967  18.747  0.00  0.00    +0.000 OA
ENDBRANCH  17  19
BRANCH  17  20
ATOM     20  O   UNL     1      -4.385  11.010  16.420  0.00  0.00    +0.000 OA
ATOM     21  C   UNL     1      -3.690  10.394  15.345  0.00  0.00    +0.000 C 
ENDBRANCH  17  20
ENDBRANCH   1  17
BRANCH  12  22
ATOM     22  C   UNL     1       1.799   6.227  18.636  0.00  0.00    +0.000 C 
BRANCH  22  23
ATOM     23  C   UNL     1       2.104   4.991  19.463  0.00  0.00    +0.000 A 
ATOM     24  C   UNL     1       1.188   4.490  20.397  0.00  0.00    +0.000 A 
ATOM     25  C   UNL     1       1.502   3.347  21.153  0.00  0.00    +0.000 A 
ATOM     26  C   UNL     1       2.716   2.713  20.978  0.00  0.00    +0.000 A 
ATOM     27  C   UNL     1       3.628   3.184  20.038  0.00  0.00    +0.000 A 
ATOM     28  C   UNL     1       3.322   4.318  19.285  0.00  0.00    +0.000 A 
ENDBRANCH  22  23
ENDBRANCH  12  22
TORSDOF 6
ENDMDL
MODEL 4
REMARK VINA RESULT:      -6.4      4.643      7.438
REMARK  Name = 
REMARK  9 active torsions:
REMARK  status: ('A' for Active; 'I' for Inactive)
REMARK    1  A    between atoms: C_1  and  O_2
REMARK    2  A    between atoms: O_2  and  C_3
REMARK    3  A    between atoms: C_3  and  O_4
REMARK    4  A    between atoms: C_3  and  C_6
REMARK    5  A    between atoms: O_4  and  C_5
REMARK    6  A    between atoms: C_12  and  O_13
REMARK    7  A    between atoms: O_13  and  C_14
REMARK    8  A    between atoms: N_19  and  C_20
REMARK    9  A    between atoms: C_20  and  C_21
REMARK                            x       y       z     vdW  Elec       q    Type
REMARK                         _______ _______ _______ _____ _____    ______ ____
ROOT
ATOM      1  C   UNL     1       1.789   7.783  19.948  0.00  0.00    +0.000 A 
ATOM      2  C   UNL     1       2.981   7.133  19.661  0.00  0.00    +0.000 A 
ATOM      3  C   UNL     1       2.844   5.704  19.731  0.00  0.00    +0.000 A 
ATOM      4  C   UNL     1       1.642   5.363  20.301  0.00  0.00    +0.000 A 
ATOM      5  S   UNL     1       0.672   6.700  20.683  0.00  0.00    +0.000 S 
ATOM      6  C   UNL     1       1.148   3.966  20.358  0.00  0.00    +0.000 C 
ATOM      7  C   UNL     1       2.318   2.966  20.257  0.00  0.00    +0.000 C 
ATOM      8  O   UNL     1       3.444   3.301  19.441  0.00  0.00    +0.000 OA
ATOM      9  C   UNL     1       3.677   4.659  19.003  0.00  0.00    +0.000 C 
ATOM     10  C   UNL     1       3.226   4.725  17.531  0.00  0.00    +0.000 C 
ATOM     11  C   UNL     1       4.140   4.075  16.502  0.00  0.00    +0.000 C 
ATOM     12  N   UNL     1       5.581   4.191  16.696  0.00  0.00    +0.000 NA
ATOM     13  C   UNL     1       6.002   4.093  18.091  0.00  0.00    +0.000 C 
ATOM     14  C   UNL     1       5.193   4.910  19.107  0.00  0.00    +0.000 C 
ENDROOT
BRANCH   7  15
ATOM     15  O   UNL     1       2.732   2.609  21.585  0.00  0.00    +0.000 OA
ATOM     16  C   UNL     1       1.621   2.302  22.419  0.00  0.00    +0.000 C 
ENDBRANCH   7  15
BRANCH   1  17
ATOM     17  C   UNL     1       1.365   9.198  19.638  0.00  0.00    +0.000 C 
BRANCH  17  19
ATOM     18  C   UNL     1      -0.160   9.983  18.020  0.00  0.00    +0.000 C 
ATOM     19  O   UNL     1       1.073   9.308  18.246  0.00  0.00    +0.000 OA
ENDBRANCH  17  19
BRANCH  17  20
ATOM     20  O   UNL     1       0.261   9.575  20.481  0.00  0.00    +0.000 OA
ATOM     21  C   UNL     1       0.585  10.449  21.553  0.00  0.00    +0.000 C 
ENDBRANCH  17  20
ENDBRANCH   1  17
BRANCH  12  22
ATOM     22  C   UNL     1       6.198   5.224  15.863  0.00  0.00    +0.000 C 
BRANCH  22  23
ATOM     23  C   UNL     1       6.495   4.797  14.437  0.00  0.00    +0.000 A 
ATOM     24  C   UNL     1       5.748   3.798  13.800  0.00  0.00    +0.000 A 
ATOM     25  C   UNL     1       6.052   3.420  12.481  0.00  0.00    +0.000 A 
ATOM     26  C   UNL     1       7.089   4.031  11.806  0.00  0.00    +0.000 A 
ATOM     27  C   UNL     1       7.827   5.042  12.416  0.00  0.00    +0.000 A 
ATOM     28  C   UNL     1       7.530   5.422  13.725  0.00  0.00    +0.000 A 
ENDBRANCH  22  23
ENDBRANCH  12  22
TORSDOF 6
ENDMDL
MODEL 5
REMARK VINA RESULT:      -6.3      1.211      1.641
REMARK  Name = 
REMARK  9 active torsions:
REMARK  status: ('A' for Active; 'I' for Inactive)
REMARK    1  A    between atoms: C_1  and  O_2
REMARK    2  A    between atoms: O_2  and  C_3
REMARK    3  A    between atoms: C_3  and  O_4
REMARK    4  A    between atoms: C_3  and  C_6
REMARK    5  A    between atoms: O_4  and  C_5
REMARK    6  A    between atoms: C_12  and  O_13
REMARK    7  A    between atoms: O_13  and  C_14
REMARK    8  A    between atoms: N_19  and  C_20
REMARK    9  A    between atoms: C_20  and  C_21
REMARK                            x       y       z     vdW  Elec       q    Type
REMARK                         _______ _______ _______ _____ _____    ______ ____
ROOT
ATOM      1  C   UNL     1      -2.280  10.677  17.639  0.00  0.00    +0.000 A 
ATOM      2  C   UNL     1      -1.134   9.917  17.825  0.00  0.00    +0.000 A 
ATOM      3  C   UNL     1      -0.280  10.470  18.840  0.00  0.00    +0.000 A 
ATOM      4  C   UNL     1      -0.698  11.733  19.184  0.00  0.00    +0.000 A 
ATOM      5  S   UNL     1      -2.105  12.223  18.374  0.00  0.00    +0.000 S 
ATOM      6  C   UNL     1      -0.114  12.491  20.317  0.00  0.00    +0.000 C 
ATOM      7  C   UNL     1       1.304  11.981  20.645  0.00  0.00    +0.000 C 
ATOM      8  O   UNL     1       1.593  10.589  20.482  0.00  0.00    +0.000 OA
ATOM      9  C   UNL     1       0.729   9.729  19.704  0.00  0.00    +0.000 C 
ATOM     10  C   UNL     1      -0.108   8.923  20.716  0.00  0.00    +0.000 C 
ATOM     11  C   UNL     1       0.603   7.797  21.454  0.00  0.00    +0.000 C 
ATOM     12  N   UNL     1       1.582   7.006  20.717  0.00  0.00    +0.000 NA
ATOM     13  C   UNL     1       2.394   7.785  19.786  0.00  0.00    +0.000 C 
ATOM     14  C   UNL     1       1.643   8.787  18.899  0.00  0.00    +0.000 C 
ENDROOT
BRANCH   7  15
ATOM     15  O   UNL     1       2.256  12.791  19.939  0.00  0.00    +0.000 OA
ATOM     16  C   UNL     1       2.610  13.954  20.678  0.00  0.00    +0.000 C 
ENDBRANCH   7  15
BRANCH   1  17
ATOM     17  C   UNL     1      -3.589  10.302  16.989  0.00  0.00    +0.000 C 
BRANCH  17  19
ATOM     18  C   UNL     1      -5.573  11.484  17.464  0.00  0.00    +0.000 C 
ATOM     19  O   UNL     1      -4.347  11.486  16.742  0.00  0.00    +0.000 OA
ENDBRANCH  17  19
BRANCH  17  20
ATOM     20  O   UNL     1      -3.343   9.528  15.801  0.00  0.00    +0.000 OA
ATOM     21  C   UNL     1      -3.341  10.264  14.585  0.00  0.00    +0.000 C 
ENDBRANCH  17  20
ENDBRANCH   1  17
BRANCH  12  22
ATOM     22  C   UNL     1       1.063   5.715  20.263  0.00  0.00    +0.000 C 
BRANCH  22  23
ATOM     23  C   UNL     1       2.043   4.887  19.453  0.00  0.00    +0.000 A 
ATOM     24  C   UNL     1       1.847   4.647  18.087  0.00  0.00    +0.000 A 
ATOM     25  C   UNL     1       2.769   3.870  17.365  0.00  0.00    +0.000 A 
ATOM     26  C   UNL     1       3.873   3.337  17.999  0.00  0.00    +0.000 A 
ATOM     27  C   UNL     1       4.096   3.585  19.351  0.00  0.00    +0.000 A 
ATOM     28  C   UNL     1       3.185   4.356  20.073  0.00  0.00    +0.000 A 
ENDBRANCH  22  23
ENDBRANCH  12  22
TORSDOF 6
ENDMDL
MODEL 6
REMARK VINA RESULT:      -6.3      4.569      6.553
REMARK  Name = 
REMARK  9 active torsions:
REMARK  status: ('A' for Active; 'I' for Inactive)
REMARK    1  A    between atoms: C_1  and  O_2
REMARK    2  A    between atoms: O_2  and  C_3
REMARK    3  A    between atoms: C_3  and  O_4
REMARK    4  A    between atoms: C_3  and  C_6
REMARK    5  A    between atoms: O_4  and  C_5
REMARK    6  A    between atoms: C_12  and  O_13
REMARK    7  A    between atoms: O_13  and  C_14
REMARK    8  A    between atoms: N_19  and  C_20
REMARK    9  A    between atoms: C_20  and  C_21
REMARK                            x       y       z     vdW  Elec       q    Type
REMARK                         _______ _______ _______ _____ _____    ______ ____
ROOT
ATOM      1  C   UNL     1      -5.671  12.156  20.127  0.00  0.00    +0.000 A 
ATOM      2  C   UNL     1      -4.446  12.801  20.224  0.00  0.00    +0.000 A 
ATOM      3  C   UNL     1      -4.146  13.187  21.576  0.00  0.00    +0.000 A 
ATOM      4  C   UNL     1      -5.254  13.040  22.375  0.00  0.00    +0.000 A 
ATOM      5  S   UNL     1      -6.595  12.398  21.559  0.00  0.00    +0.000 S 
ATOM      6  C   UNL     1      -5.209  13.203  23.848  0.00  0.00    +0.000 C 
ATOM      7  C   UNL     1      -4.010  14.079  24.266  0.00  0.00    +0.000 C 
ATOM      8  O   UNL     1      -2.797  13.996  23.511  0.00  0.00    +0.000 OA
ATOM      9  C   UNL     1      -2.772  13.400  22.193  0.00  0.00    +0.000 C 
ATOM     10  C   UNL     1      -2.174  11.991  22.363  0.00  0.00    +0.000 C 
ATOM     11  C   UNL     1      -0.671  11.906  22.597  0.00  0.00    +0.000 C 
ATOM     12  N   UNL     1       0.187  12.842  21.880  0.00  0.00    +0.000 NA
ATOM     13  C   UNL     1      -0.374  14.184  21.754  0.00  0.00    +0.000 C 
ATOM     14  C   UNL     1      -1.845  14.272  21.326  0.00  0.00    +0.000 C 
ENDROOT
BRANCH   7  15
ATOM     15  O   UNL     1      -4.453  15.439  24.379  0.00  0.00    +0.000 OA
ATOM     16  C   UNL     1      -3.360  16.350  24.406  0.00  0.00    +0.000 C 
ENDBRANCH   7  15
BRANCH   1  17
ATOM     17  C   UNL     1      -6.209  11.270  19.031  0.00  0.00    +0.000 C 
BRANCH  17  19
ATOM     18  C   UNL     1      -7.051   9.135  19.568  0.00  0.00    +0.000 C 
ATOM     19  O   UNL     1      -7.323  10.531  19.528  0.00  0.00    +0.000 OA
ENDBRANCH  17  19
BRANCH  17  20
ATOM     20  O   UNL     1      -6.526  12.062  17.872  0.00  0.00    +0.000 OA
ATOM     21  C   UNL     1      -7.569  13.010  18.050  0.00  0.00    +0.000 C 
ENDBRANCH  17  20
ENDBRANCH   1  17
BRANCH  12  22
ATOM     22  C   UNL     1       0.836  12.256  20.707  0.00  0.00    +0.000 C 
BRANCH  22  23
ATOM     23  C   UNL     1      -0.119  11.727  19.652  0.00  0.00    +0.000 A 
ATOM     24  C   UNL     1      -0.715  12.576  18.711  0.00  0.00    +0.000 A 
ATOM     25  C   UNL     1      -1.601  12.057  17.750  0.00  0.00    +0.000 A 
ATOM     26  C   UNL     1      -1.888  10.707  17.730  0.00  0.00    +0.000 A 
ATOM     27  C   UNL     1      -1.286   9.846  18.643  0.00  0.00    +0.000 A 
ATOM     28  C   UNL     1      -0.406  10.354  19.599  0.00  0.00    +0.000 A 
ENDBRANCH  22  23
ENDBRANCH  12  22
TORSDOF 6
ENDMDL
MODEL 7
REMARK VINA RESULT:      -6.3      4.925      8.141
REMARK  Name = 
REMARK  9 active torsions:
REMARK  status: ('A' for Active; 'I' for Inactive)
REMARK    1  A    between atoms: C_1  and  O_2
REMARK    2  A    between atoms: O_2  and  C_3
REMARK    3  A    between atoms: C_3  and  O_4
REMARK    4  A    between atoms: C_3  and  C_6
REMARK    5  A    between atoms: O_4  and  C_5
REMARK    6  A    between atoms: C_12  and  O_13
REMARK    7  A    between atoms: O_13  and  C_14
REMARK    8  A    between atoms: N_19  and  C_20
REMARK    9  A    between atoms: C_20  and  C_21
REMARK                            x       y       z     vdW  Elec       q    Type
REMARK                         _______ _______ _______ _____ _____    ______ ____
ROOT
ATOM      1  C   UNL     1       1.571  12.482  18.852  0.00  0.00    +0.000 A 
ATOM      2  C   UNL     1       2.825  12.939  18.472  0.00  0.00    +0.000 A 
ATOM      3  C   UNL     1       2.900  14.375  18.480  0.00  0.00    +0.000 A 
ATOM      4  C   UNL     1       1.647  14.921  18.621  0.00  0.00    +0.000 A 
ATOM      5  S   UNL     1       0.422  13.763  18.805  0.00  0.00    +0.000 S 
ATOM      6  C   UNL     1       1.423  16.372  18.826  0.00  0.00    +0.000 C 
ATOM      7  C   UNL     1       2.617  17.192  18.299  0.00  0.00    +0.000 C 
ATOM      8  O   UNL     1       3.934  16.643  18.407  0.00  0.00    +0.000 OA
ATOM      9  C   UNL     1       4.141  15.235  18.663  0.00  0.00    +0.000 C 
ATOM     10  C   UNL     1       4.511  15.113  20.154  0.00  0.00    +0.000 C 
ATOM     11  C   UNL     1       5.915  15.548  20.552  0.00  0.00    +0.000 C 
ATOM     12  N   UNL     1       7.009  15.253  19.635  0.00  0.00    +0.000 NA
ATOM     13  C   UNL     1       6.659  15.404  18.225  0.00  0.00    +0.000 C 
ATOM     14  C   UNL     1       5.324  14.789  17.783  0.00  0.00    +0.000 C 
ENDROOT
BRANCH   7  15
ATOM     15  O   UNL     1       2.337  17.595  16.950  0.00  0.00    +0.000 OA
ATOM     16  C   UNL     1       1.124  18.334  16.861  0.00  0.00    +0.000 C 
ENDBRANCH   7  15
BRANCH   1  17
ATOM     17  C   UNL     1       1.151  11.118  19.341  0.00  0.00    +0.000 C 
BRANCH  17  19
ATOM     18  C   UNL     1       0.230  10.429  21.399  0.00  0.00    +0.000 C 
ATOM     19  O   UNL     1       0.065  11.261  20.255  0.00  0.00    +0.000 OA
ENDBRANCH  17  19
BRANCH  17  20
ATOM     20  O   UNL     1       0.841  10.270  18.221  0.00  0.00    +0.000 OA
ATOM     21  C   UNL     1       1.832   9.305  17.897  0.00  0.00    +0.000 C 
ENDBRANCH  17  20
ENDBRANCH   1  17
BRANCH  12  22
ATOM     22  C   UNL     1       7.796  14.083  20.025  0.00  0.00    +0.000 C 
BRANCH  22  23
ATOM     23  C   UNL     1       8.977  13.781  19.121  0.00  0.00    +0.000 A 
ATOM     24  C   UNL     1      10.055  14.667  19.002  0.00  0.00    +0.000 A 
ATOM     25  C   UNL     1      11.132  14.363  18.151  0.00  0.00    +0.000 A 
ATOM     26  C   UNL     1      11.131  13.187  17.428  0.00  0.00    +0.000 A 
ATOM     27  C   UNL     1      10.079  12.284  17.552  0.00  0.00    +0.000 A 
ATOM     28  C   UNL     1       9.008  12.581  18.395  0.00  0.00    +0.000 A 
ENDBRANCH  22  23
ENDBRANCH  12  22
TORSDOF 6
ENDMDL
MODEL 8
REMARK VINA RESULT:      -6.3      4.417      6.446
REMARK  Name = 
REMARK  9 active torsions:
REMARK  status: ('A' for Active; 'I' for Inactive)
REMARK    1  A    between atoms: C_1  and  O_2
REMARK    2  A    between atoms: O_2  and  C_3
REMARK    3  A    between atoms: C_3  and  O_4
REMARK    4  A    between atoms: C_3  and  C_6
REMARK    5  A    between atoms: O_4  and  C_5
REMARK    6  A    between atoms: C_12  and  O_13
REMARK    7  A    between atoms: O_13  and  C_14
REMARK    8  A    between atoms: N_19  and  C_20
REMARK    9  A    between atoms: C_20  and  C_21
REMARK                            x       y       z     vdW  Elec       q    Type
REMARK                         _______ _______ _______ _____ _____    ______ ____
ROOT
ATOM      1  C   UNL     1      -5.513  12.800  20.332  0.00  0.00    +0.000 A 
ATOM      2  C   UNL     1      -4.234  13.324  20.451  0.00  0.00    +0.000 A 
ATOM      3  C   UNL     1      -3.806  13.394  21.821  0.00  0.00    +0.000 A 
ATOM      4  C   UNL     1      -4.862  13.156  22.668  0.00  0.00    +0.000 A 
ATOM      5  S   UNL     1      -6.308  12.795  21.859  0.00  0.00    +0.000 S 
ATOM      6  C   UNL     1      -4.697  13.000  24.133  0.00  0.00    +0.000 C 
ATOM      7  C   UNL     1      -3.401  13.683  24.615  0.00  0.00    +0.000 C 
ATOM      8  O   UNL     1      -2.257  13.679  23.755  0.00  0.00    +0.000 OA
ATOM      9  C   UNL     1      -2.378  13.376  22.346  0.00  0.00    +0.000 C 
ATOM     10  C   UNL     1      -1.892  11.925  22.169  0.00  0.00    +0.000 C 
ATOM     11  C   UNL     1      -0.389  11.689  22.246  0.00  0.00    +0.000 C 
ATOM     12  N   UNL     1       0.493  12.695  21.665  0.00  0.00    +0.000 NA
ATOM     13  C   UNL     1       0.040  14.069  21.868  0.00  0.00    +0.000 C 
ATOM     14  C   UNL     1      -1.445  14.346  21.598  0.00  0.00    +0.000 C 
ENDROOT
BRANCH   7  15
ATOM     15  O   UNL     1      -3.717  15.016  25.044  0.00  0.00    +0.000 OA
ATOM     16  C   UNL     1      -2.555  15.832  25.131  0.00  0.00    +0.000 C 
ENDBRANCH   7  15
BRANCH   1  17
ATOM     17  C   UNL     1      -6.203  12.206  19.128  0.00  0.00    +0.000 C 
BRANCH  17  19
ATOM     18  C   UNL     1      -5.324  12.053  16.946  0.00  0.00    +0.000 C 
ATOM     19  O   UNL     1      -5.231  11.587  18.288  0.00  0.00    +0.000 OA
ENDBRANCH  17  19
BRANCH  17  20
ATOM     20  O   UNL     1      -7.241  11.305  19.553  0.00  0.00    +0.000 OA
ATOM     21  C   UNL     1      -6.925   9.924  19.457  0.00  0.00    +0.000 C 
ENDBRANCH  17  20
ENDBRANCH   1  17
BRANCH  12  22
ATOM     22  C   UNL     1       1.003  12.328  20.344  0.00  0.00    +0.000 C 
BRANCH  22  23
ATOM     23  C   UNL     1      -0.024  11.701  19.419  0.00  0.00    +0.000 A 
ATOM     24  C   UNL     1      -0.186  10.312  19.337  0.00  0.00    +0.000 A 
ATOM     25  C   UNL     1      -1.142   9.761  18.465  0.00  0.00    +0.000 A 
ATOM     26  C   UNL     1      -1.925  10.588  17.684  0.00  0.00    +0.000 A 
ATOM     27  C   UNL     1      -1.793  11.971  17.771  0.00  0.00    +0.000 A 
ATOM     28  C   UNL     1      -0.848  12.523  18.634  0.00  0.00    +0.000 A 
ENDBRANCH  22  23
ENDBRANCH  12  22
TORSDOF 6
ENDMDL
MODEL 9
REMARK VINA RESULT:      -6.3      4.990      8.226
REMARK  Name = 
REMARK  9 active torsions:
REMARK  status: ('A' for Active; 'I' for Inactive)
REMARK    1  A    between atoms: C_1  and  O_2
REMARK    2  A    between atoms: O_2  and  C_3
REMARK    3  A    between atoms: C_3  and  O_4
REMARK    4  A    between atoms: C_3  and  C_6
REMARK    5  A    between atoms: O_4  and  C_5
REMARK    6  A    between atoms: C_12  and  O_13
REMARK    7  A    between atoms: O_13  and  C_14
REMARK    8  A    between atoms: N_19  and  C_20
REMARK    9  A    between atoms: C_20  and  C_21
REMARK                            x       y       z     vdW  Elec       q    Type
REMARK                         _______ _______ _______ _____ _____    ______ ____
ROOT
ATOM      1  C   UNL     1       1.458  12.855  19.446  0.00  0.00    +0.000 A 
ATOM      2  C   UNL     1       2.696  13.199  18.921  0.00  0.00    +0.000 A 
ATOM      3  C   UNL     1       2.826  14.619  18.736  0.00  0.00    +0.000 A 
ATOM      4  C   UNL     1       1.609  15.238  18.893  0.00  0.00    +0.000 A 
ATOM      5  S   UNL     1       0.359  14.173  19.313  0.00  0.00    +0.000 S 
ATOM      6  C   UNL     1       1.457  16.712  18.922  0.00  0.00    +0.000 C 
ATOM      7  C   UNL     1       2.639  17.400  18.208  0.00  0.00    +0.000 C 
ATOM      8  O   UNL     1       3.938  16.807  18.294  0.00  0.00    +0.000 OA
ATOM      9  C   UNL     1       4.110  15.434  18.717  0.00  0.00    +0.000 C 
ATOM     10  C   UNL     1       4.587  15.487  20.181  0.00  0.00    +0.000 C 
ATOM     11  C   UNL     1       6.033  15.901  20.418  0.00  0.00    +0.000 C 
ATOM     12  N   UNL     1       7.042  15.439  19.472  0.00  0.00    +0.000 NA
ATOM     13  C   UNL     1       6.591  15.426  18.083  0.00  0.00    +0.000 C 
ATOM     14  C   UNL     1       5.204  14.824  17.821  0.00  0.00    +0.000 C 
ENDROOT
BRANCH   7  15
ATOM     15  O   UNL     1       2.272  17.640  16.841  0.00  0.00    +0.000 OA
ATOM     16  C   UNL     1       1.065  18.387  16.742  0.00  0.00    +0.000 C 
ENDBRANCH   7  15
BRANCH   1  17
ATOM     17  C   UNL     1       1.024  11.586  20.138  0.00  0.00    +0.000 C 
BRANCH  17  19
ATOM     18  C   UNL     1      -0.383  11.162  21.981  0.00  0.00    +0.000 C 
ATOM     19  O   UNL     1       0.761  11.866  21.512  0.00  0.00    +0.000 OA
ENDBRANCH  17  19
BRANCH  17  20
ATOM     20  O   UNL     1      -0.102  11.013  19.450  0.00  0.00    +0.000 OA
ATOM     21  C   UNL     1       0.220  10.089  18.420  0.00  0.00    +0.000 C 
ENDBRANCH  17  20
ENDBRANCH   1  17
BRANCH  12  22
ATOM     22  C   UNL     1       7.810  14.292  19.956  0.00  0.00    +0.000 C 
BRANCH  22  23
ATOM     23  C   UNL     1       8.946  13.859  19.047  0.00  0.00    +0.000 A 
ATOM     24  C   UNL     1       8.963  12.594  18.446  0.00  0.00    +0.000 A 
ATOM     25  C   UNL     1      10.032  12.219  17.614  0.00  0.00    +0.000 A 
ATOM     26  C   UNL     1      11.073  13.098  17.386  0.00  0.00    +0.000 A 
ATOM     27  C   UNL     1      11.061  14.367  17.957  0.00  0.00    +0.000 A 
ATOM     28  C   UNL     1      10.002  14.745  18.783  0.00  0.00    +0.000 A 
ENDBRANCH  22  23
ENDBRANCH  12  22
TORSDOF 6
ENDMDL
