MODEL 1
REMARK VINA RESULT:      -8.9      0.000      0.000
REMARK  Name = 
REMARK  10 active torsions:
REMARK  status: ('A' for Active; 'I' for Inactive)
REMARK    1  A    between atoms: C_1  and  O_2
REMARK    2  A    between atoms: O_2  and  C_3
REMARK    3  A    between atoms: C_6  and  C_7
REMARK    4  A    between atoms: C_7  and  N_8
REMARK    5  A    between atoms: C_9  and  C_11
REMARK    6  A    between atoms: N_13  and  C_14
REMARK    7  A    between atoms: C_14  and  C_15
REMARK    8  A    between atoms: C_15  and  C_16
REMARK    9  A    between atoms: C_15  and  N_22
REMARK   10  A    between atoms: N_25  and  C_26
REMARK                            x       y       z     vdW  Elec       q    Type
REMARK                         _______ _______ _______ _____ _____    ______ ____
ROOT
ATOM      1  C   UNL     1       3.947   5.295  19.564  0.00  0.00    +0.000 C 
ENDROOT
BRANCH   1   2
ATOM      2  C   UNL     1       2.808   4.501  20.210  0.00  0.00    +0.000 A 
ATOM      3  C   UNL     1       1.601   4.223  19.547  0.00  0.00    +0.000 A 
ATOM      4  C   UNL     1       0.717   3.287  20.079  0.00  0.00    +0.000 A 
ATOM      5  C   UNL     1       1.050   2.676  21.276  0.00  0.00    +0.000 A 
ATOM      6  N   UNL     1       2.160   2.971  21.983  0.00  0.00    +0.000 NA
ATOM      7  C   UNL     1       3.006   3.879  21.442  0.00  0.00    +0.000 A 
ENDBRANCH   1   2
BRANCH   1   8
ATOM      8  N   UNL     1       4.938   4.407  18.891  0.00  0.00    +0.000 NA
ATOM      9  C   UNL     1       4.352   3.466  17.891  0.00  0.00    +0.000 C 
ATOM     10  C   UNL     1       4.324   3.886  16.382  0.00  0.00    +0.000 C 
ATOM     11  N   UNL     1       5.636   4.427  16.021  0.00  0.00    +0.000 N 
ATOM     12  C   UNL     1       6.004   5.573  16.861  0.00  0.00    +0.000 C 
ATOM     13  C   UNL     1       6.134   5.069  18.308  0.00  0.00    +0.000 C 
BRANCH  11  14
ATOM     14  C   UNL     1       6.143   4.446  14.734  0.00  0.00    +0.000 A 
ATOM     15  C   UNL     1       7.240   5.210  14.332  0.00  0.00    +0.000 A 
ATOM     16  C   UNL     1       7.738   5.118  13.021  0.00  0.00    +0.000 A 
ATOM     17  C   UNL     1       7.130   4.285  12.087  0.00  0.00    +0.000 A 
ATOM     18  C   UNL     1       6.011   3.545  12.454  0.00  0.00    +0.000 A 
ATOM     19  C   UNL     1       5.529   3.635  13.761  0.00  0.00    +0.000 A 
ENDBRANCH  11  14
ENDBRANCH   1   8
BRANCH   1  20
ATOM     20  C   UNL     1       3.355   6.309  18.520  0.00  0.00    +0.000 C 
BRANCH  20  23
ATOM     21  C   UNL     1       2.175   8.474  18.266  0.00  0.00    +0.000 C 
ATOM     22  O   UNL     1       2.368   8.590  17.063  0.00  0.00    +0.000 OA
ATOM     23  N   UNL     1       2.673   7.470  19.064  0.00  0.00    +0.000 N 
ATOM     24  H   UNL     1       2.302   7.436  20.011  0.00  0.00    +0.000 HD
BRANCH  21  26
ATOM     25  N   UNL     1       0.954  10.591  18.267  0.00  0.00    +0.000 N 
ATOM     26  C   UNL     1       1.271   9.483  19.016  0.00  0.00    +0.000 C 
ATOM     27  O   UNL     1       0.893   9.239  20.153  0.00  0.00    +0.000 OA
ATOM     28  H   UNL     1       1.325  10.627  17.321  0.00  0.00    +0.000 HD
BRANCH  25  29
ATOM     29  C   UNL     1       0.078  11.634  18.733  0.00  0.00    +0.000 C 
BRANCH  29  33
ATOM     30  C   UNL     1      -4.042  10.733  17.764  0.00  0.00    +0.000 A 
ATOM     31  C   UNL     1      -3.733  11.737  18.689  0.00  0.00    +0.000 A 
ATOM     32  C   UNL     1      -2.406  12.035  19.004  0.00  0.00    +0.000 A 
ATOM     33  C   UNL     1      -1.357  11.327  18.400  0.00  0.00    +0.000 A 
ATOM     34  C   UNL     1      -1.672  10.299  17.503  0.00  0.00    +0.000 A 
ATOM     35  C   UNL     1      -3.005  10.010  17.183  0.00  0.00    +0.000 A 
BRANCH  30  37
ATOM     36  C   UNL     1      -6.253  11.341  18.330  0.00  0.00    +0.000 C 
ATOM     37  O   UNL     1      -5.376  10.542  17.545  0.00  0.00    +0.000 OA
ENDBRANCH  30  37
ENDBRANCH  29  33
ENDBRANCH  25  29
ENDBRANCH  21  26
ENDBRANCH  20  23
ENDBRANCH   1  20
TORSDOF 9
ENDMDL
MODEL 2
REMARK VINA RESULT:      -8.7      1.169      1.612
REMARK  Name = 
REMARK  10 active torsions:
REMARK  status: ('A' for Active; 'I' for Inactive)
REMARK    1  A    between atoms: C_1  and  O_2
REMARK    2  A    between atoms: O_2  and  C_3
REMARK    3  A    between atoms: C_6  and  C_7
REMARK    4  A    between atoms: C_7  and  N_8
REMARK    5  A    between atoms: C_9  and  C_11
REMARK    6  A    between atoms: N_13  and  C_14
REMARK    7  A    between atoms: C_14  and  C_15
REMARK    8  A    between atoms: C_15  and  C_16
REMARK    9  A    between atoms: C_15  and  N_22
REMARK   10  A    between atoms: N_25  and  C_26
REMARK                            x       y       z     vdW  Elec       q    Type
REMARK                         _______ _______ _______ _____ _____    ______ ____
ROOT
ATOM      1  C   UNL     1       3.497   5.774  19.105  0.00  0.00    +0.000 C 
ENDROOT
BRANCH   1   2
ATOM      2  C   UNL     1       2.614   4.522  19.099  0.00  0.00    +0.000 A 
ATOM      3  C   UNL     1       2.397   3.737  20.244  0.00  0.00    +0.000 A 
ATOM      4  C   UNL     1       1.391   2.773  20.244  0.00  0.00    +0.000 A 
ATOM      5  C   UNL     1       0.649   2.599  19.088  0.00  0.00    +0.000 A 
ATOM      6  N   UNL     1       0.876   3.278  17.944  0.00  0.00    +0.000 NA
ATOM      7  C   UNL     1       1.854   4.213  17.972  0.00  0.00    +0.000 A 
ENDBRANCH   1   2
BRANCH   1   8
ATOM      8  N   UNL     1       4.877   5.489  18.617  0.00  0.00    +0.000 NA
ATOM      9  C   UNL     1       5.105   4.078  18.185  0.00  0.00    +0.000 C 
ATOM     10  C   UNL     1       4.940   3.715  16.670  0.00  0.00    +0.000 C 
ATOM     11  N   UNL     1       5.634   4.722  15.867  0.00  0.00    +0.000 N 
ATOM     12  C   UNL     1       5.122   6.074  16.124  0.00  0.00    +0.000 C 
ATOM     13  C   UNL     1       5.424   6.416  17.592  0.00  0.00    +0.000 C 
BRANCH  11  14
ATOM     14  C   UNL     1       6.117   4.502  14.589  0.00  0.00    +0.000 A 
ATOM     15  C   UNL     1       5.539   3.624  13.671  0.00  0.00    +0.000 A 
ATOM     16  C   UNL     1       6.049   3.511  12.366  0.00  0.00    +0.000 A 
ATOM     17  C   UNL     1       7.159   4.251  11.971  0.00  0.00    +0.000 A 
ATOM     18  C   UNL     1       7.776   5.101  12.882  0.00  0.00    +0.000 A 
ATOM     19  C   UNL     1       7.257   5.215  14.173  0.00  0.00    +0.000 A 
ENDBRANCH  11  14
ENDBRANCH   1   8
BRANCH   1  20
ATOM     20  C   UNL     1       2.841   6.884  18.209  0.00  0.00    +0.000 C 
BRANCH  20  23
ATOM     21  C   UNL     1       1.842   9.152  18.246  0.00  0.00    +0.000 C 
ATOM     22  O   UNL     1       2.008   9.391  17.057  0.00  0.00    +0.000 OA
ATOM     23  N   UNL     1       2.277   8.027  18.906  0.00  0.00    +0.000 N 
ATOM     24  H   UNL     1       1.932   7.913  19.857  0.00  0.00    +0.000 HD
BRANCH  21  26
ATOM     25  N   UNL     1       0.916  11.388  18.585  0.00  0.00    +0.000 N 
ATOM     26  C   UNL     1       1.051  10.139  19.140  0.00  0.00    +0.000 C 
ATOM     27  O   UNL     1       0.596   9.764  20.212  0.00  0.00    +0.000 OA
ATOM     28  H   UNL     1       1.327  11.530  17.666  0.00  0.00    +0.000 HD
BRANCH  25  29
ATOM     29  C   UNL     1       0.168  12.451  19.205  0.00  0.00    +0.000 C 
BRANCH  29  33
ATOM     30  C   UNL     1      -4.086  11.848  18.692  0.00  0.00    +0.000 A 
ATOM     31  C   UNL     1      -3.584  12.383  19.884  0.00  0.00    +0.000 A 
ATOM     32  C   UNL     1      -2.212  12.582  20.055  0.00  0.00    +0.000 A 
ATOM     33  C   UNL     1      -1.313  12.245  19.034  0.00  0.00    +0.000 A 
ATOM     34  C   UNL     1      -1.817  11.677  17.857  0.00  0.00    +0.000 A 
ATOM     35  C   UNL     1      -3.195  11.486  17.686  0.00  0.00    +0.000 A 
BRANCH  30  37
ATOM     36  C   UNL     1      -6.055  11.960  17.393  0.00  0.00    +0.000 C 
ATOM     37  O   UNL     1      -5.443  11.704  18.652  0.00  0.00    +0.000 OA
ENDBRANCH  30  37
ENDBRANCH  29  33
ENDBRANCH  25  29
ENDBRANCH  21  26
ENDBRANCH  20  23
ENDBRANCH   1  20
TORSDOF 9
ENDMDL
MODEL 3
REMARK VINA RESULT:      -8.7      0.996      1.512
REMARK  Name = 
REMARK  10 active torsions:
REMARK  status: ('A' for Active; 'I' for Inactive)
REMARK    1  A    between atoms: C_1  and  O_2
REMARK    2  A    between atoms: O_2  and  C_3
REMARK    3  A    between atoms: C_6  and  C_7
REMARK    4  A    between atoms: C_7  and  N_8
REMARK    5  A    between atoms: C_9  and  C_11
REMARK    6  A    between atoms: N_13  and  C_14
REMARK    7  A    between atoms: C_14  and  C_15
REMARK    8  A    between atoms: C_15  and  C_16
REMARK    9  A    between atoms: C_15  and  N_22
REMARK   10  A    between atoms: N_25  and  C_26
REMARK                            x       y       z     vdW  Elec       q    Type
REMARK                         _______ _______ _______ _____ _____    ______ ____
ROOT
ATOM      1  C   UNL     1       3.393   5.792  19.305  0.00  0.00    +0.000 C 
ENDROOT
BRANCH   1   2
ATOM      2  C   UNL     1       2.536   4.524  19.381  0.00  0.00    +0.000 A 
ATOM      3  C   UNL     1       1.691   4.113  18.337  0.00  0.00    +0.000 A 
ATOM      4  C   UNL     1       1.141   2.833  18.354  0.00  0.00    +0.000 A 
ATOM      5  C   UNL     1       1.428   2.009  19.429  0.00  0.00    +0.000 A 
ATOM      6  N   UNL     1       2.171   2.393  20.488  0.00  0.00    +0.000 NA
ATOM      7  C   UNL     1       2.699   3.639  20.445  0.00  0.00    +0.000 A 
ENDBRANCH   1   2
BRANCH   1   8
ATOM      8  N   UNL     1       4.770   5.509  18.807  0.00  0.00    +0.000 NA
ATOM      9  C   UNL     1       5.003   4.093  18.393  0.00  0.00    +0.000 C 
ATOM     10  C   UNL     1       4.825   3.708  16.885  0.00  0.00    +0.000 C 
ATOM     11  N   UNL     1       5.504   4.708  16.061  0.00  0.00    +0.000 N 
ATOM     12  C   UNL     1       4.986   6.060  16.304  0.00  0.00    +0.000 C 
ATOM     13  C   UNL     1       5.301   6.425  17.764  0.00  0.00    +0.000 C 
BRANCH  11  14
ATOM     14  C   UNL     1       5.976   4.473  14.781  0.00  0.00    +0.000 A 
ATOM     15  C   UNL     1       5.367   3.614  13.864  0.00  0.00    +0.000 A 
ATOM     16  C   UNL     1       5.868   3.485  12.558  0.00  0.00    +0.000 A 
ATOM     17  C   UNL     1       7.000   4.190  12.159  0.00  0.00    +0.000 A 
ATOM     18  C   UNL     1       7.646   5.020  13.068  0.00  0.00    +0.000 A 
ATOM     19  C   UNL     1       7.136   5.150  14.360  0.00  0.00    +0.000 A 
ENDBRANCH  11  14
ENDBRANCH   1   8
BRANCH   1  20
ATOM     20  C   UNL     1       2.699   6.841  18.365  0.00  0.00    +0.000 C 
BRANCH  20  23
ATOM     21  C   UNL     1       1.850   9.169  18.329  0.00  0.00    +0.000 C 
ATOM     22  O   UNL     1       2.182   9.415  17.177  0.00  0.00    +0.000 OA
ATOM     23  N   UNL     1       2.124   8.007  19.012  0.00  0.00    +0.000 N 
ATOM     24  H   UNL     1       1.654   7.902  19.908  0.00  0.00    +0.000 HD
BRANCH  21  26
ATOM     25  N   UNL     1       0.708  11.328  18.429  0.00  0.00    +0.000 N 
ATOM     26  C   UNL     1       1.015  10.192  19.139  0.00  0.00    +0.000 C 
ATOM     27  O   UNL     1       0.675   9.934  20.285  0.00  0.00    +0.000 OA
ATOM     28  H   UNL     1       1.041  11.374  17.470  0.00  0.00    +0.000 HD
BRANCH  25  29
ATOM     29  C   UNL     1      -0.110  12.389  18.955  0.00  0.00    +0.000 C 
BRANCH  29  33
ATOM     30  C   UNL     1      -4.316  11.620  18.294  0.00  0.00    +0.000 A 
ATOM     31  C   UNL     1      -3.384  11.394  17.275  0.00  0.00    +0.000 A 
ATOM     32  C   UNL     1      -2.025  11.637  17.483  0.00  0.00    +0.000 A 
ATOM     33  C   UNL     1      -1.570  12.118  18.718  0.00  0.00    +0.000 A 
ATOM     34  C   UNL     1      -2.511  12.377  19.724  0.00  0.00    +0.000 A 
ATOM     35  C   UNL     1      -3.873  12.123  19.514  0.00  0.00    +0.000 A 
BRANCH  30  37
ATOM     36  C   UNL     1      -6.312  12.377  17.283  0.00  0.00    +0.000 C 
ATOM     37  O   UNL     1      -5.611  11.342  17.963  0.00  0.00    +0.000 OA
ENDBRANCH  30  37
ENDBRANCH  29  33
ENDBRANCH  25  29
ENDBRANCH  21  26
ENDBRANCH  20  23
ENDBRANCH   1  20
TORSDOF 9
ENDMDL
MODEL 4
REMARK VINA RESULT:      -8.7      0.770      1.132
REMARK  Name = 
REMARK  10 active torsions:
REMARK  status: ('A' for Active; 'I' for Inactive)
REMARK    1  A    between atoms: C_1  and  O_2
REMARK    2  A    between atoms: O_2  and  C_3
REMARK    3  A    between atoms: C_6  and  C_7
REMARK    4  A    between atoms: C_7  and  N_8
REMARK    5  A    between atoms: C_9  and  C_11
REMARK    6  A    between atoms: N_13  and  C_14
REMARK    7  A    between atoms: C_14  and  C_15
REMARK    8  A    between atoms: C_15  and  C_16
REMARK    9  A    between atoms: C_15  and  N_22
REMARK   10  A    between atoms: N_25  and  C_26
REMARK                            x       y       z     vdW  Elec       q    Type
REMARK                         _______ _______ _______ _____ _____    ______ ____
ROOT
ATOM      1  C   UNL     1       3.382   5.507  19.392  0.00  0.00    +0.000 C 
ENDROOT
BRANCH   1   2
ATOM      2  C   UNL     1       2.409   4.332  19.525  0.00  0.00    +0.000 A 
ATOM      3  C   UNL     1       1.536   3.945  18.495  0.00  0.00    +0.000 A 
ATOM      4  C   UNL     1       0.868   2.725  18.574  0.00  0.00    +0.000 A 
ATOM      5  C   UNL     1       1.069   1.938  19.695  0.00  0.00    +0.000 A 
ATOM      6  N   UNL     1       1.838   2.307  20.740  0.00  0.00    +0.000 NA
ATOM      7  C   UNL     1       2.481   3.494  20.636  0.00  0.00    +0.000 A 
ENDBRANCH   1   2
BRANCH   1   8
ATOM      8  N   UNL     1       4.726   5.071  18.914  0.00  0.00    +0.000 NA
ATOM      9  C   UNL     1       4.746   3.736  18.245  0.00  0.00    +0.000 C 
ATOM     10  C   UNL     1       4.628   3.672  16.684  0.00  0.00    +0.000 C 
ATOM     11  N   UNL     1       5.534   4.663  16.103  0.00  0.00    +0.000 N 
ATOM     12  C   UNL     1       5.237   6.020  16.578  0.00  0.00    +0.000 C 
ATOM     13  C   UNL     1       5.490   6.049  18.095  0.00  0.00    +0.000 C 
BRANCH  11  14
ATOM     14  C   UNL     1       6.061   4.582  14.826  0.00  0.00    +0.000 A 
ATOM     15  C   UNL     1       7.222   5.237  14.412  0.00  0.00    +0.000 A 
ATOM     16  C   UNL     1       7.731   5.046  13.116  0.00  0.00    +0.000 A 
ATOM     17  C   UNL     1       7.073   4.223  12.209  0.00  0.00    +0.000 A 
ATOM     18  C   UNL     1       5.892   3.593  12.586  0.00  0.00    +0.000 A 
ATOM     19  C   UNL     1       5.399   3.780  13.878  0.00  0.00    +0.000 A 
ENDBRANCH  11  14
ENDBRANCH   1   8
BRANCH   1  20
ATOM     20  C   UNL     1       2.790   6.570  18.398  0.00  0.00    +0.000 C 
BRANCH  20  23
ATOM     21  C   UNL     1       1.896   8.877  18.254  0.00  0.00    +0.000 C 
ATOM     22  O   UNL     1       2.178   9.056  17.077  0.00  0.00    +0.000 OA
ATOM     23  N   UNL     1       2.219   7.764  18.995  0.00  0.00    +0.000 N 
ATOM     24  H   UNL     1       1.786   7.706  19.914  0.00  0.00    +0.000 HD
BRANCH  21  26
ATOM     25  N   UNL     1       0.440  10.840  18.217  0.00  0.00    +0.000 N 
ATOM     26  C   UNL     1       1.073   9.933  19.033  0.00  0.00    +0.000 C 
ATOM     27  O   UNL     1       1.016   9.887  20.254  0.00  0.00    +0.000 OA
ATOM     28  H   UNL     1       0.564  10.721  17.215  0.00  0.00    +0.000 HD
BRANCH  25  29
ATOM     29  C   UNL     1      -0.428  11.875  18.713  0.00  0.00    +0.000 C 
BRANCH  29  33
ATOM     30  C   UNL     1      -4.594  10.875  18.104  0.00  0.00    +0.000 A 
ATOM     31  C   UNL     1      -3.589  10.166  17.436  0.00  0.00    +0.000 A 
ATOM     32  C   UNL     1      -2.243  10.482  17.631  0.00  0.00    +0.000 A 
ATOM     33  C   UNL     1      -1.875  11.521  18.497  0.00  0.00    +0.000 A 
ATOM     34  C   UNL     1      -2.886  12.250  19.136  0.00  0.00    +0.000 A 
ATOM     35  C   UNL     1      -4.235  11.924  18.945  0.00  0.00    +0.000 A 
BRANCH  30  37
ATOM     36  C   UNL     1      -6.670  10.137  18.956  0.00  0.00    +0.000 C 
ATOM     37  O   UNL     1      -5.867  10.467  17.828  0.00  0.00    +0.000 OA
ENDBRANCH  30  37
ENDBRANCH  29  33
ENDBRANCH  25  29
ENDBRANCH  21  26
ENDBRANCH  20  23
ENDBRANCH   1  20
TORSDOF 9
ENDMDL
MODEL 5
REMARK VINA RESULT:      -8.6      2.098      2.880
REMARK  Name = 
REMARK  10 active torsions:
REMARK  status: ('A' for Active; 'I' for Inactive)
REMARK    1  A    between atoms: C_1  and  O_2
REMARK    2  A    between atoms: O_2  and  C_3
REMARK    3  A    between atoms: C_6  and  C_7
REMARK    4  A    between atoms: C_7  and  N_8
REMARK    5  A    between atoms: C_9  and  C_11
REMARK    6  A    between atoms: N_13  and  C_14
REMARK    7  A    between atoms: C_14  and  C_15
REMARK    8  A    between atoms: C_15  and  C_16
REMARK    9  A    between atoms: C_15  and  N_22
REMARK   10  A    between atoms: N_25  and  C_26
REMARK                            x       y       z     vdW  Elec       q    Type
REMARK                         _______ _______ _______ _____ _____    ______ ____
ROOT
ATOM      1  C   UNL     1       3.679   5.886  18.976  0.00  0.00    +0.000 C 
ENDROOT
BRANCH   1   2
ATOM      2  C   UNL     1       2.850   4.601  19.053  0.00  0.00    +0.000 A 
ATOM      3  C   UNL     1       2.749   3.829  20.222  0.00  0.00    +0.000 A 
ATOM      4  C   UNL     1       1.785   2.826  20.311  0.00  0.00    +0.000 A 
ATOM      5  C   UNL     1       0.969   2.602  19.215  0.00  0.00    +0.000 A 
ATOM      6  N   UNL     1       1.085   3.268  18.047  0.00  0.00    +0.000 NA
ATOM      7  C   UNL     1       2.024   4.242  17.989  0.00  0.00    +0.000 A 
ENDBRANCH   1   2
BRANCH   1   8
ATOM      8  N   UNL     1       5.055   5.636  18.457  0.00  0.00    +0.000 NA
ATOM      9  C   UNL     1       5.316   4.225  18.041  0.00  0.00    +0.000 C 
ATOM     10  C   UNL     1       5.125   3.833  16.537  0.00  0.00    +0.000 C 
ATOM     11  N   UNL     1       5.767   4.848  15.701  0.00  0.00    +0.000 N 
ATOM     12  C   UNL     1       5.220   6.187  15.950  0.00  0.00    +0.000 C 
ATOM     13  C   UNL     1       5.548   6.562  17.405  0.00  0.00    +0.000 C 
BRANCH  11  14
ATOM     14  C   UNL     1       6.225   4.622  14.415  0.00  0.00    +0.000 A 
ATOM     15  C   UNL     1       7.359   5.224  13.867  0.00  0.00    +0.000 A 
ATOM     16  C   UNL     1       7.799   4.887  12.576  0.00  0.00    +0.000 A 
ATOM     17  C   UNL     1       7.096   3.967  11.804  0.00  0.00    +0.000 A 
ATOM     18  C   UNL     1       5.940   3.385  12.314  0.00  0.00    +0.000 A 
ATOM     19  C   UNL     1       5.516   3.718  13.601  0.00  0.00    +0.000 A 
ENDBRANCH  11  14
ENDBRANCH   1   8
BRANCH   1  20
ATOM     20  C   UNL     1       2.951   6.927  18.052  0.00  0.00    +0.000 C 
BRANCH  20  23
ATOM     21  C   UNL     1       1.813   9.116  18.296  0.00  0.00    +0.000 C 
ATOM     22  O   UNL     1       2.494   9.713  17.472  0.00  0.00    +0.000 OA
ATOM     23  N   UNL     1       2.004   7.816  18.702  0.00  0.00    +0.000 N 
ATOM     24  H   UNL     1       1.265   7.423  19.282  0.00  0.00    +0.000 HD
BRANCH  21  26
ATOM     25  N   UNL     1      -0.288  10.337  18.038  0.00  0.00    +0.000 N 
ATOM     26  C   UNL     1       0.591   9.806  18.951  0.00  0.00    +0.000 C 
ATOM     27  O   UNL     1       0.473   9.815  20.168  0.00  0.00    +0.000 OA
ATOM     28  H   UNL     1      -0.059  10.216  17.055  0.00  0.00    +0.000 HD
BRANCH  25  29
ATOM     29  C   UNL     1      -1.524  10.973  18.412  0.00  0.00    +0.000 C 
BRANCH  29  33
ATOM     30  C   UNL     1      -0.844  14.959  19.952  0.00  0.00    +0.000 A 
ATOM     31  C   UNL     1      -0.231  14.542  18.765  0.00  0.00    +0.000 A 
ATOM     32  C   UNL     1      -0.449  13.258  18.261  0.00  0.00    +0.000 A 
ATOM     33  C   UNL     1      -1.284  12.361  18.940  0.00  0.00    +0.000 A 
ATOM     34  C   UNL     1      -1.866  12.770  20.147  0.00  0.00    +0.000 A 
ATOM     35  C   UNL     1      -1.652  14.062  20.645  0.00  0.00    +0.000 A 
BRANCH  30  37
ATOM     36  C   UNL     1      -0.979  17.263  19.448  0.00  0.00    +0.000 C 
ATOM     37  O   UNL     1      -0.550  16.236  20.335  0.00  0.00    +0.000 OA
ENDBRANCH  30  37
ENDBRANCH  29  33
ENDBRANCH  25  29
ENDBRANCH  21  26
ENDBRANCH  20  23
ENDBRANCH   1  20
TORSDOF 9
ENDMDL
MODEL 6
REMARK VINA RESULT:      -8.5      0.974      1.630
REMARK  Name = 
REMARK  10 active torsions:
REMARK  status: ('A' for Active; 'I' for Inactive)
REMARK    1  A    between atoms: C_1  and  O_2
REMARK    2  A    between atoms: O_2  and  C_3
REMARK    3  A    between atoms: C_6  and  C_7
REMARK    4  A    between atoms: C_7  and  N_8
REMARK    5  A    between atoms: C_9  and  C_11
REMARK    6  A    between atoms: N_13  and  C_14
REMARK    7  A    between atoms: C_14  and  C_15
REMARK    8  A    between atoms: C_15  and  C_16
REMARK    9  A    between atoms: C_15  and  N_22
REMARK   10  A    between atoms: N_25  and  C_26
REMARK                            x       y       z     vdW  Elec       q    Type
REMARK                         _______ _______ _______ _____ _____    ______ ____
ROOT
ATOM      1  C   UNL     1       3.511   5.575  19.545  0.00  0.00    +0.000 C 
ENDROOT
BRANCH   1   2
ATOM      2  C   UNL     1       2.678   4.364  19.977  0.00  0.00    +0.000 A 
ATOM      3  C   UNL     1       2.742   3.817  21.269  0.00  0.00    +0.000 A 
ATOM      4  C   UNL     1       1.784   2.892  21.679  0.00  0.00    +0.000 A 
ATOM      5  C   UNL     1       0.805   2.516  20.774  0.00  0.00    +0.000 A 
ATOM      6  N   UNL     1       0.754   2.959  19.500  0.00  0.00    +0.000 NA
ATOM      7  C   UNL     1       1.692   3.861  19.129  0.00  0.00    +0.000 A 
ENDBRANCH   1   2
BRANCH   1   8
ATOM      8  N   UNL     1       4.851   5.177  19.026  0.00  0.00    +0.000 NA
ATOM      9  C   UNL     1       4.919   3.791  18.476  0.00  0.00    +0.000 C 
ATOM     10  C   UNL     1       4.718   3.577  16.937  0.00  0.00    +0.000 C 
ATOM     11  N   UNL     1       5.525   4.563  16.217  0.00  0.00    +0.000 N 
ATOM     12  C   UNL     1       5.169   5.938  16.589  0.00  0.00    +0.000 C 
ATOM     13  C   UNL     1       5.503   6.119  18.079  0.00  0.00    +0.000 C 
BRANCH  11  14
ATOM     14  C   UNL     1       5.983   4.398  14.922  0.00  0.00    +0.000 A 
ATOM     15  C   UNL     1       5.350   3.611  13.958  0.00  0.00    +0.000 A 
ATOM     16  C   UNL     1       5.841   3.553  12.643  0.00  0.00    +0.000 A 
ATOM     17  C   UNL     1       6.986   4.255  12.280  0.00  0.00    +0.000 A 
ATOM     18  C   UNL     1       7.657   5.013  13.234  0.00  0.00    +0.000 A 
ATOM     19  C   UNL     1       7.157   5.074  14.536  0.00  0.00    +0.000 A 
ENDBRANCH  11  14
ENDBRANCH   1   8
BRANCH   1  20
ATOM     20  C   UNL     1       2.736   6.380  18.441  0.00  0.00    +0.000 C 
BRANCH  20  23
ATOM     21  C   UNL     1       2.446   8.787  17.930  0.00  0.00    +0.000 C 
ATOM     22  O   UNL     1       3.038   8.769  16.859  0.00  0.00    +0.000 OA
ATOM     23  N   UNL     1       2.320   7.725  18.795  0.00  0.00    +0.000 N 
ATOM     24  H   UNL     1       1.676   7.862  19.571  0.00  0.00    +0.000 HD
BRANCH  21  26
ATOM     25  N   UNL     1       0.626   9.817  19.197  0.00  0.00    +0.000 N 
ATOM     26  C   UNL     1       1.718  10.071  18.402  0.00  0.00    +0.000 C 
ATOM     27  O   UNL     1       2.147  11.170  18.082  0.00  0.00    +0.000 OA
ATOM     28  H   UNL     1       0.421   8.842  19.397  0.00  0.00    +0.000 HD
BRANCH  25  29
ATOM     29  C   UNL     1      -0.168  10.855  19.801  0.00  0.00    +0.000 C 
BRANCH  29  33
ATOM     30  C   UNL     1      -4.079  11.126  17.971  0.00  0.00    +0.000 A 
ATOM     31  C   UNL     1      -3.173  10.140  17.565  0.00  0.00    +0.000 A 
ATOM     32  C   UNL     1      -1.910  10.045  18.154  0.00  0.00    +0.000 A 
ATOM     33  C   UNL     1      -1.526  10.942  19.161  0.00  0.00    +0.000 A 
ATOM     34  C   UNL     1      -2.424  11.950  19.538  0.00  0.00    +0.000 A 
ATOM     35  C   UNL     1      -3.693  12.035  18.951  0.00  0.00    +0.000 A 
BRANCH  30  37
ATOM     36  C   UNL     1      -6.434  11.114  18.148  0.00  0.00    +0.000 C 
ATOM     37  O   UNL     1      -5.278  11.110  17.318  0.00  0.00    +0.000 OA
ENDBRANCH  30  37
ENDBRANCH  29  33
ENDBRANCH  25  29
ENDBRANCH  21  26
ENDBRANCH  20  23
ENDBRANCH   1  20
TORSDOF 9
ENDMDL
MODEL 7
REMARK VINA RESULT:      -8.5      0.896      1.207
REMARK  Name = 
REMARK  10 active torsions:
REMARK  status: ('A' for Active; 'I' for Inactive)
REMARK    1  A    between atoms: C_1  and  O_2
REMARK    2  A    between atoms: O_2  and  C_3
REMARK    3  A    between atoms: C_6  and  C_7
REMARK    4  A    between atoms: C_7  and  N_8
REMARK    5  A    between atoms: C_9  and  C_11
REMARK    6  A    between atoms: N_13  and  C_14
REMARK    7  A    between atoms: C_14  and  C_15
REMARK    8  A    between atoms: C_15  and  C_16
REMARK    9  A    between atoms: C_15  and  N_22
REMARK   10  A    between atoms: N_25  and  C_26
REMARK                            x       y       z     vdW  Elec       q    Type
REMARK                         _______ _______ _______ _____ _____    ______ ____
ROOT
ATOM      1  C   UNL     1       3.390   5.651  19.792  0.00  0.00    +0.000 C 
ENDROOT
BRANCH   1   2
ATOM      2  C   UNL     1       2.455   4.592  20.387  0.00  0.00    +0.000 A 
ATOM      3  C   UNL     1       1.435   3.975  19.646  0.00  0.00    +0.000 A 
ATOM      4  C   UNL     1       0.793   2.847  20.155  0.00  0.00    +0.000 A 
ATOM      5  C   UNL     1       1.170   2.386  21.404  0.00  0.00    +0.000 A 
ATOM      6  N   UNL     1       2.090   2.995  22.181  0.00  0.00    +0.000 NA
ATOM      7  C   UNL     1       2.703   4.085  21.661  0.00  0.00    +0.000 A 
ENDBRANCH   1   2
BRANCH   1   8
ATOM      8  N   UNL     1       4.661   5.056  19.288  0.00  0.00    +0.000 NA
ATOM      9  C   UNL     1       4.507   3.727  18.625  0.00  0.00    +0.000 C 
ATOM     10  C   UNL     1       4.348   3.673  17.068  0.00  0.00    +0.000 C 
ATOM     11  N   UNL     1       5.353   4.548  16.462  0.00  0.00    +0.000 N 
ATOM     12  C   UNL     1       5.230   5.932  16.937  0.00  0.00    +0.000 C 
ATOM     13  C   UNL     1       5.518   5.934  18.448  0.00  0.00    +0.000 C 
BRANCH  11  14
ATOM     14  C   UNL     1       5.838   4.402  15.174  0.00  0.00    +0.000 A 
ATOM     15  C   UNL     1       5.196   3.675  14.170  0.00  0.00    +0.000 A 
ATOM     16  C   UNL     1       5.720   3.635  12.867  0.00  0.00    +0.000 A 
ATOM     17  C   UNL     1       6.904   4.296  12.556  0.00  0.00    +0.000 A 
ATOM     18  C   UNL     1       7.582   4.992  13.551  0.00  0.00    +0.000 A 
ATOM     19  C   UNL     1       7.050   5.035  14.841  0.00  0.00    +0.000 A 
ENDBRANCH  11  14
ENDBRANCH   1   8
BRANCH   1  20
ATOM     20  C   UNL     1       2.659   6.400  18.621  0.00  0.00    +0.000 C 
BRANCH  20  23
ATOM     21  C   UNL     1       2.473   8.745  17.841  0.00  0.00    +0.000 C 
ATOM     22  O   UNL     1       2.961   8.556  16.734  0.00  0.00    +0.000 OA
ATOM     23  N   UNL     1       2.362   7.804  18.839  0.00  0.00    +0.000 N 
ATOM     24  H   UNL     1       1.802   8.080  19.643  0.00  0.00    +0.000 HD
BRANCH  21  26
ATOM     25  N   UNL     1       0.706  10.037  18.926  0.00  0.00    +0.000 N 
ATOM     26  C   UNL     1       1.874  10.125  18.208  0.00  0.00    +0.000 C 
ATOM     27  O   UNL     1       2.455  11.151  17.883  0.00  0.00    +0.000 OA
ATOM     28  H   UNL     1       0.370   9.104  19.145  0.00  0.00    +0.000 HD
BRANCH  25  29
ATOM     29  C   UNL     1       0.002  11.188  19.429  0.00  0.00    +0.000 C 
BRANCH  29  33
ATOM     30  C   UNL     1      -4.124  11.164  18.125  0.00  0.00    +0.000 A 
ATOM     31  C   UNL     1      -3.716  11.995  19.174  0.00  0.00    +0.000 A 
ATOM     32  C   UNL     1      -2.386  12.010  19.597  0.00  0.00    +0.000 A 
ATOM     33  C   UNL     1      -1.435  11.186  18.981  0.00  0.00    +0.000 A 
ATOM     34  C   UNL     1      -1.855  10.329  17.955  0.00  0.00    +0.000 A 
ATOM     35  C   UNL     1      -3.189  10.323  17.527  0.00  0.00    +0.000 A 
BRANCH  30  37
ATOM     36  C   UNL     1      -5.828  12.360  17.009  0.00  0.00    +0.000 C 
ATOM     37  O   UNL     1      -5.449  11.244  17.807  0.00  0.00    +0.000 OA
ENDBRANCH  30  37
ENDBRANCH  29  33
ENDBRANCH  25  29
ENDBRANCH  21  26
ENDBRANCH  20  23
ENDBRANCH   1  20
TORSDOF 9
ENDMDL
MODEL 8
REMARK VINA RESULT:      -8.4      2.721      3.970
REMARK  Name = 
REMARK  10 active torsions:
REMARK  status: ('A' for Active; 'I' for Inactive)
REMARK    1  A    between atoms: C_1  and  O_2
REMARK    2  A    between atoms: O_2  and  C_3
REMARK    3  A    between atoms: C_6  and  C_7
REMARK    4  A    between atoms: C_7  and  N_8
REMARK    5  A    between atoms: C_9  and  C_11
REMARK    6  A    between atoms: N_13  and  C_14
REMARK    7  A    between atoms: C_14  and  C_15
REMARK    8  A    between atoms: C_15  and  C_16
REMARK    9  A    between atoms: C_15  and  N_22
REMARK   10  A    between atoms: N_25  and  C_26
REMARK                            x       y       z     vdW  Elec       q    Type
REMARK                         _______ _______ _______ _____ _____    ______ ____
ROOT
ATOM      1  C   UNL     1       3.530   5.790  19.101  0.00  0.00    +0.000 C 
ENDROOT
BRANCH   1   2
ATOM      2  C   UNL     1       2.745   4.475  19.128  0.00  0.00    +0.000 A 
ATOM      3  C   UNL     1       2.716   3.629  20.249  0.00  0.00    +0.000 A 
ATOM      4  C   UNL     1       1.789   2.590  20.310  0.00  0.00    +0.000 A 
ATOM      5  C   UNL     1       0.936   2.408  19.234  0.00  0.00    +0.000 A 
ATOM      6  N   UNL     1       0.983   3.149  18.108  0.00  0.00    +0.000 NA
ATOM      7  C   UNL     1       1.888   4.156  18.076  0.00  0.00    +0.000 A 
ENDBRANCH   1   2
BRANCH   1   8
ATOM      8  N   UNL     1       4.920   5.603  18.595  0.00  0.00    +0.000 NA
ATOM      9  C   UNL     1       5.248   4.208  18.176  0.00  0.00    +0.000 C 
ATOM     10  C   UNL     1       5.088   3.815  16.668  0.00  0.00    +0.000 C 
ATOM     11  N   UNL     1       5.694   4.861  15.843  0.00  0.00    +0.000 N 
ATOM     12  C   UNL     1       5.085   6.174  16.093  0.00  0.00    +0.000 C 
ATOM     13  C   UNL     1       5.382   6.556  17.552  0.00  0.00    +0.000 C 
BRANCH  11  14
ATOM     14  C   UNL     1       6.173   4.662  14.561  0.00  0.00    +0.000 A 
ATOM     15  C   UNL     1       7.308   5.286  14.040  0.00  0.00    +0.000 A 
ATOM     16  C   UNL     1       7.771   4.975  12.750  0.00  0.00    +0.000 A 
ATOM     17  C   UNL     1       7.091   4.059  11.953  0.00  0.00    +0.000 A 
ATOM     18  C   UNL     1       5.936   3.456  12.436  0.00  0.00    +0.000 A 
ATOM     19  C   UNL     1       5.488   3.763  13.722  0.00  0.00    +0.000 A 
ENDBRANCH  11  14
ENDBRANCH   1   8
BRANCH   1  20
ATOM     20  C   UNL     1       2.778   6.833  18.199  0.00  0.00    +0.000 C 
BRANCH  20  23
ATOM     21  C   UNL     1       1.911   9.155  18.239  0.00  0.00    +0.000 C 
ATOM     22  O   UNL     1       2.251   9.444  17.099  0.00  0.00    +0.000 OA
ATOM     23  N   UNL     1       2.188   7.971  18.882  0.00  0.00    +0.000 N 
ATOM     24  H   UNL     1       1.711   7.830  19.770  0.00  0.00    +0.000 HD
BRANCH  21  26
ATOM     25  N   UNL     1       1.030  11.412  18.555  0.00  0.00    +0.000 N 
ATOM     26  C   UNL     1       1.060  10.141  19.077  0.00  0.00    +0.000 C 
ATOM     27  O   UNL     1       0.478   9.749  20.079  0.00  0.00    +0.000 OA
ATOM     28  H   UNL     1       1.544  11.567  17.692  0.00  0.00    +0.000 HD
BRANCH  25  29
ATOM     29  C   UNL     1       0.255  12.481  19.129  0.00  0.00    +0.000 C 
BRANCH  29  33
ATOM     30  C   UNL     1       2.505  16.177  19.155  0.00  0.00    +0.000 A 
ATOM     31  C   UNL     1       1.413  16.005  20.012  0.00  0.00    +0.000 A 
ATOM     32  C   UNL     1       0.685  14.814  20.011  0.00  0.00    +0.000 A 
ATOM     33  C   UNL     1       1.033  13.769  19.145  0.00  0.00    +0.000 A 
ATOM     34  C   UNL     1       2.105  13.959  18.263  0.00  0.00    +0.000 A 
ATOM     35  C   UNL     1       2.839  15.153  18.273  0.00  0.00    +0.000 A 
BRANCH  30  37
ATOM     36  C   UNL     1       2.945  18.080  20.482  0.00  0.00    +0.000 C 
ATOM     37  O   UNL     1       3.132  17.385  19.255  0.00  0.00    +0.000 OA
ENDBRANCH  30  37
ENDBRANCH  29  33
ENDBRANCH  25  29
ENDBRANCH  21  26
ENDBRANCH  20  23
ENDBRANCH   1  20
TORSDOF 9
ENDMDL
MODEL 9
REMARK VINA RESULT:      -8.4      2.504      3.541
REMARK  Name = 
REMARK  10 active torsions:
REMARK  status: ('A' for Active; 'I' for Inactive)
REMARK    1  A    between atoms: C_1  and  O_2
REMARK    2  A    between atoms: O_2  and  C_3
REMARK    3  A    between atoms: C_6  and  C_7
REMARK    4  A    between atoms: C_7  and  N_8
REMARK    5  A    between atoms: C_9  and  C_11
REMARK    6  A    between atoms: N_13  and  C_14
REMARK    7  A    between atoms: C_14  and  C_15
REMARK    8  A    between atoms: C_15  and  C_16
REMARK    9  A    between atoms: C_15  and  N_22
REMARK   10  A    between atoms: N_25  and  C_26
REMARK                            x       y       z     vdW  Elec       q    Type
REMARK                         _______ _______ _______ _____ _____    ______ ____
ROOT
ATOM      1  C   UNL     1       3.761   5.904  19.020  0.00  0.00    +0.000 C 
ENDROOT
BRANCH   1   2
ATOM      2  C   UNL     1       2.871   4.657  18.997  0.00  0.00    +0.000 A 
ATOM      3  C   UNL     1       2.681   3.837  20.121  0.00  0.00    +0.000 A 
ATOM      4  C   UNL     1       1.670   2.877  20.117  0.00  0.00    +0.000 A 
ATOM      5  C   UNL     1       0.896   2.745  18.977  0.00  0.00    +0.000 A 
ATOM      6  N   UNL     1       1.096   3.459  17.849  0.00  0.00    +0.000 NA
ATOM      7  C   UNL     1       2.080   4.388  17.882  0.00  0.00    +0.000 A 
ENDBRANCH   1   2
BRANCH   1   8
ATOM      8  N   UNL     1       5.124   5.630  18.482  0.00  0.00    +0.000 NA
ATOM      9  C   UNL     1       5.352   4.217  18.055  0.00  0.00    +0.000 C 
ATOM     10  C   UNL     1       5.133   3.837  16.551  0.00  0.00    +0.000 C 
ATOM     11  N   UNL     1       5.784   4.844  15.712  0.00  0.00    +0.000 N 
ATOM     12  C   UNL     1       5.266   6.192  15.976  0.00  0.00    +0.000 C 
ATOM     13  C   UNL     1       5.620   6.553  17.428  0.00  0.00    +0.000 C 
BRANCH  11  14
ATOM     14  C   UNL     1       6.220   4.617  14.419  0.00  0.00    +0.000 A 
ATOM     15  C   UNL     1       7.337   5.228  13.847  0.00  0.00    +0.000 A 
ATOM     16  C   UNL     1       7.756   4.889  12.549  0.00  0.00    +0.000 A 
ATOM     17  C   UNL     1       7.048   3.957  11.795  0.00  0.00    +0.000 A 
ATOM     18  C   UNL     1       5.908   3.367  12.329  0.00  0.00    +0.000 A 
ATOM     19  C   UNL     1       5.505   3.701  13.623  0.00  0.00    +0.000 A 
ENDBRANCH  11  14
ENDBRANCH   1   8
BRANCH   1  20
ATOM     20  C   UNL     1       3.085   7.048  18.183  0.00  0.00    +0.000 C 
BRANCH  20  23
ATOM     21  C   UNL     1       1.681   9.080  18.393  0.00  0.00    +0.000 C 
ATOM     22  O   UNL     1       2.163   9.674  17.438  0.00  0.00    +0.000 OA
ATOM     23  N   UNL     1       2.106   7.865  18.878  0.00  0.00    +0.000 N 
ATOM     24  H   UNL     1       1.509   7.439  19.584  0.00  0.00    +0.000 HD
BRANCH  21  26
ATOM     25  N   UNL     1       0.614   9.663  20.513  0.00  0.00    +0.000 N 
ATOM     26  C   UNL     1       0.462   9.666  19.147  0.00  0.00    +0.000 C 
ATOM     27  O   UNL     1      -0.496  10.096  18.520  0.00  0.00    +0.000 OA
ATOM     28  H   UNL     1       1.489   9.298  20.877  0.00  0.00    +0.000 HD
BRANCH  25  29
ATOM     29  C   UNL     1      -0.363  10.214  21.415  0.00  0.00    +0.000 C 
BRANCH  29  33
ATOM     30  C   UNL     1       0.312  14.445  22.022  0.00  0.00    +0.000 A 
ATOM     31  C   UNL     1      -0.725  13.788  22.694  0.00  0.00    +0.000 A 
ATOM     32  C   UNL     1      -0.946  12.422  22.505  0.00  0.00    +0.000 A 
ATOM     33  C   UNL     1      -0.134  11.685  21.633  0.00  0.00    +0.000 A 
ATOM     34  C   UNL     1       0.880  12.355  20.935  0.00  0.00    +0.000 A 
ATOM     35  C   UNL     1       1.105  13.723  21.134  0.00  0.00    +0.000 A 
BRANCH  30  37
ATOM     36  C   UNL     1       1.703  16.353  22.061  0.00  0.00    +0.000 C 
ATOM     37  O   UNL     1       0.423  15.778  22.295  0.00  0.00    +0.000 OA
ENDBRANCH  30  37
ENDBRANCH  29  33
ENDBRANCH  25  29
ENDBRANCH  21  26
ENDBRANCH  20  23
ENDBRANCH   1  20
TORSDOF 9
ENDMDL
