MODEL 1
REMARK VINA RESULT:      -9.1      0.000      0.000
REMARK  Name = 
REMARK  5 active torsions:
REMARK  status: ('A' for Active; 'I' for Inactive)
REMARK    1  A    between atoms: C_1  and  C_2
REMARK    2  A    between atoms: C_4  and  C_5
REMARK    3  A    between atoms: N_6  and  C_7
REMARK    4  A    between atoms: C_16  and  N_17
REMARK    5  A    between atoms: N_17  and  C_18
REMARK                            x       y       z     vdW  Elec       q    Type
REMARK                         _______ _______ _______ _____ _____    ______ ____
ROOT
ATOM      1  C   UNL     1       6.679   5.875  15.984  0.00  0.00    +0.000 A 
ATOM      2  N   UNL     1       7.392   5.576  14.858  0.00  0.00    +0.000 NA
ATOM      3  C   UNL     1       6.815   4.791  13.942  0.00  0.00    +0.000 A 
ATOM      4  C   UNL     1       7.525   4.439  12.805  0.00  0.00    +0.000 A 
ATOM      5  C   UNL     1       6.975   3.585  11.846  0.00  0.00    +0.000 A 
ATOM      6  C   UNL     1       5.694   3.085  12.035  0.00  0.00    +0.000 A 
ATOM      7  C   UNL     1       4.970   3.449  13.172  0.00  0.00    +0.000 A 
ATOM      8  C   UNL     1       5.511   4.300  14.132  0.00  0.00    +0.000 A 
ATOM      9  N   UNL     1       4.791   4.641  15.214  0.00  0.00    +0.000 NA
ATOM     10  C   UNL     1       5.347   5.451  16.155  0.00  0.00    +0.000 A 
ENDROOT
BRANCH   1  16
ATOM     11  C   UNL     1       8.490   9.693  18.372  0.00  0.00    +0.000 C 
ATOM     12  C   UNL     1       8.158   8.277  18.089  0.00  0.00    +0.000 A 
ATOM     13  C   UNL     1       8.302   7.177  18.949  0.00  0.00    +0.000 A 
ATOM     14  C   UNL     1       7.805   6.096  18.255  0.00  0.00    +0.000 A 
ATOM     15  C   UNL     1       7.689   4.686  18.718  0.00  0.00    +0.000 C 
ATOM     16  N   UNL     1       7.383   6.582  17.014  0.00  0.00    +0.000 N 
ATOM     17  N   UNL     1       7.642   7.922  16.909  0.00  0.00    +0.000 NA
ENDBRANCH   1  16
BRANCH  10  18
ATOM     18  N   UNL     1       4.524   5.887  17.209  0.00  0.00    +0.000 N 
ATOM     19  H   UNL     1       4.087   6.797  17.023  0.00  0.00    +0.000 HD
BRANCH  18  20
ATOM     20  C   UNL     1       3.973   5.180  18.301  0.00  0.00    +0.000 A 
ATOM     21  C   UNL     1       4.362   3.871  18.629  0.00  0.00    +0.000 A 
ATOM     22  C   UNL     1       3.724   3.146  19.640  0.00  0.00    +0.000 A 
ATOM     23  C   UNL     1       2.689   3.728  20.358  0.00  0.00    +0.000 A 
ATOM     24 CL   UNL     1       1.843   2.803  21.536  0.00  0.00    +0.000 Cl
ATOM     25  C   UNL     1       2.326   5.050  20.116  0.00  0.00    +0.000 A 
ATOM     26  C   UNL     1       2.975   5.771  19.107  0.00  0.00    +0.000 A 
ATOM     27 CL   UNL     1       2.487   7.414  18.858  0.00  0.00    +0.000 Cl
ENDBRANCH  18  20
ENDBRANCH  10  18
TORSDOF 3
ENDMDL
MODEL 2
REMARK VINA RESULT:      -8.1      1.256      2.281
REMARK  Name = 
REMARK  5 active torsions:
REMARK  status: ('A' for Active; 'I' for Inactive)
REMARK    1  A    between atoms: C_1  and  C_2
REMARK    2  A    between atoms: C_4  and  C_5
REMARK    3  A    between atoms: N_6  and  C_7
REMARK    4  A    between atoms: C_16  and  N_17
REMARK    5  A    between atoms: N_17  and  C_18
REMARK                            x       y       z     vdW  Elec       q    Type
REMARK                         _______ _______ _______ _____ _____    ______ ____
ROOT
ATOM      1  C   UNL     1       6.797   5.797  16.158  0.00  0.00    +0.000 A 
ATOM      2  N   UNL     1       7.382   5.742  14.925  0.00  0.00    +0.000 NA
ATOM      3  C   UNL     1       6.859   4.907  14.020  0.00  0.00    +0.000 A 
ATOM      4  C   UNL     1       7.451   4.802  12.771  0.00  0.00    +0.000 A 
ATOM      5  C   UNL     1       6.962   3.910  11.814  0.00  0.00    +0.000 A 
ATOM      6  C   UNL     1       5.863   3.120  12.119  0.00  0.00    +0.000 A 
ATOM      7  C   UNL     1       5.255   3.234  13.371  0.00  0.00    +0.000 A 
ATOM      8  C   UNL     1       5.735   4.121  14.330  0.00  0.00    +0.000 A 
ATOM      9  N   UNL     1       5.128   4.217  15.524  0.00  0.00    +0.000 NA
ATOM     10  C   UNL     1       5.629   5.070  16.459  0.00  0.00    +0.000 A 
ENDROOT
BRANCH   1  16
ATOM     11  C   UNL     1       8.493   9.784  18.344  0.00  0.00    +0.000 C 
ATOM     12  C   UNL     1       8.201   8.346  18.137  0.00  0.00    +0.000 A 
ATOM     13  C   UNL     1       8.371   7.298  19.055  0.00  0.00    +0.000 A 
ATOM     14  C   UNL     1       7.907   6.168  18.417  0.00  0.00    +0.000 A 
ATOM     15  C   UNL     1       7.826   4.782  18.955  0.00  0.00    +0.000 C 
ATOM     16  N   UNL     1       7.477   6.576  17.151  0.00  0.00    +0.000 N 
ATOM     17  N   UNL     1       7.701   7.915  16.975  0.00  0.00    +0.000 NA
ENDBRANCH   1  16
BRANCH  10  18
ATOM     18  N   UNL     1       4.898   5.237  17.649  0.00  0.00    +0.000 N 
ATOM     19  H   UNL     1       5.305   4.727  18.441  0.00  0.00    +0.000 HD
BRANCH  18  20
ATOM     20  C   UNL     1       3.917   6.191  18.002  0.00  0.00    +0.000 A 
ATOM     21  C   UNL     1       3.704   7.366  17.264  0.00  0.00    +0.000 A 
ATOM     22  C   UNL     1       2.811   8.353  17.692  0.00  0.00    +0.000 A 
ATOM     23  C   UNL     1       2.096   8.171  18.868  0.00  0.00    +0.000 A 
ATOM     24 CL   UNL     1       1.069   9.426  19.443  0.00  0.00    +0.000 Cl
ATOM     25  C   UNL     1       2.221   6.987  19.588  0.00  0.00    +0.000 A 
ATOM     26  C   UNL     1       3.112   6.001  19.147  0.00  0.00    +0.000 A 
ATOM     27 CL   UNL     1       3.218   4.544  20.077  0.00  0.00    +0.000 Cl
ENDBRANCH  18  20
ENDBRANCH  10  18
TORSDOF 3
ENDMDL
MODEL 3
REMARK VINA RESULT:      -8.1      1.346      2.496
REMARK  Name = 
REMARK  5 active torsions:
REMARK  status: ('A' for Active; 'I' for Inactive)
REMARK    1  A    between atoms: C_1  and  C_2
REMARK    2  A    between atoms: C_4  and  C_5
REMARK    3  A    between atoms: N_6  and  C_7
REMARK    4  A    between atoms: C_16  and  N_17
REMARK    5  A    between atoms: N_17  and  C_18
REMARK                            x       y       z     vdW  Elec       q    Type
REMARK                         _______ _______ _______ _____ _____    ______ ____
ROOT
ATOM      1  C   UNL     1       6.815   5.026  16.337  0.00  0.00    +0.000 A 
ATOM      2  N   UNL     1       7.478   5.435  15.217  0.00  0.00    +0.000 NA
ATOM      3  C   UNL     1       7.143   4.873  14.049  0.00  0.00    +0.000 A 
ATOM      4  C   UNL     1       7.822   5.240  12.898  0.00  0.00    +0.000 A 
ATOM      5  C   UNL     1       7.532   4.645  11.668  0.00  0.00    +0.000 A 
ATOM      6  C   UNL     1       6.543   3.673  11.600  0.00  0.00    +0.000 A 
ATOM      7  C   UNL     1       5.847   3.311  12.755  0.00  0.00    +0.000 A 
ATOM      8  C   UNL     1       6.129   3.900  13.984  0.00  0.00    +0.000 A 
ATOM      9  N   UNL     1       5.440   3.539  15.079  0.00  0.00    +0.000 NA
ATOM     10  C   UNL     1       5.750   4.106  16.277  0.00  0.00    +0.000 A 
ENDROOT
BRANCH   1  16
ATOM     11  C   UNL     1       8.847   4.876  20.742  0.00  0.00    +0.000 C 
ATOM     12  C   UNL     1       8.238   5.464  19.527  0.00  0.00    +0.000 A 
ATOM     13  C   UNL     1       8.157   6.822  19.182  0.00  0.00    +0.000 A 
ATOM     14  C   UNL     1       7.560   6.855  17.941  0.00  0.00    +0.000 A 
ATOM     15  C   UNL     1       7.265   8.047  17.099  0.00  0.00    +0.000 C 
ATOM     16  N   UNL     1       7.308   5.526  17.588  0.00  0.00    +0.000 N 
ATOM     17  N   UNL     1       7.694   4.680  18.591  0.00  0.00    +0.000 NA
ENDBRANCH   1  16
BRANCH  10  18
ATOM     18  N   UNL     1       4.928   3.798  17.376  0.00  0.00    +0.000 N 
ATOM     19  H   UNL     1       5.190   2.919  17.835  0.00  0.00    +0.000 HD
BRANCH  18  20
ATOM     20  C   UNL     1       4.036   4.608  18.116  0.00  0.00    +0.000 A 
ATOM     21  C   UNL     1       3.582   5.853  17.651  0.00  0.00    +0.000 A 
ATOM     22  C   UNL     1       2.794   6.691  18.445  0.00  0.00    +0.000 A 
ATOM     23  C   UNL     1       2.429   6.288  19.722  0.00  0.00    +0.000 A 
ATOM     24 CL   UNL     1       1.539   7.359  20.732  0.00  0.00    +0.000 Cl
ATOM     25  C   UNL     1       2.794   5.029  20.190  0.00  0.00    +0.000 A 
ATOM     26  C   UNL     1       3.577   4.193  19.385  0.00  0.00    +0.000 A 
ATOM     27 CL   UNL     1       3.992   2.635  20.016  0.00  0.00    +0.000 Cl
ENDBRANCH  18  20
ENDBRANCH  10  18
TORSDOF 3
ENDMDL
MODEL 4
REMARK VINA RESULT:      -7.6      0.875      1.649
REMARK  Name = 
REMARK  5 active torsions:
REMARK  status: ('A' for Active; 'I' for Inactive)
REMARK    1  A    between atoms: C_1  and  C_2
REMARK    2  A    between atoms: C_4  and  C_5
REMARK    3  A    between atoms: N_6  and  C_7
REMARK    4  A    between atoms: C_16  and  N_17
REMARK    5  A    between atoms: N_17  and  C_18
REMARK                            x       y       z     vdW  Elec       q    Type
REMARK                         _______ _______ _______ _____ _____    ______ ____
ROOT
ATOM      1  C   UNL     1       6.534   5.408  16.396  0.00  0.00    +0.000 A 
ATOM      2  N   UNL     1       7.360   5.218  15.326  0.00  0.00    +0.000 NA
ATOM      3  C   UNL     1       6.839   4.676  14.219  0.00  0.00    +0.000 A 
ATOM      4  C   UNL     1       7.659   4.437  13.128  0.00  0.00    +0.000 A 
ATOM      5  C   UNL     1       7.163   3.833  11.970  0.00  0.00    +0.000 A 
ATOM      6  C   UNL     1       5.824   3.470  11.913  0.00  0.00    +0.000 A 
ATOM      7  C   UNL     1       4.991   3.722  13.005  0.00  0.00    +0.000 A 
ATOM      8  C   UNL     1       5.478   4.325  14.162  0.00  0.00    +0.000 A 
ATOM      9  N   UNL     1       4.654   4.564  15.196  0.00  0.00    +0.000 NA
ATOM     10  C   UNL     1       5.155   5.128  16.329  0.00  0.00    +0.000 A 
ENDROOT
BRANCH   1  16
ATOM     11  C   UNL     1       8.727   4.984  20.705  0.00  0.00    +0.000 C 
ATOM     12  C   UNL     1       8.158   5.649  19.509  0.00  0.00    +0.000 A 
ATOM     13  C   UNL     1       8.271   7.000  19.147  0.00  0.00    +0.000 A 
ATOM     14  C   UNL     1       7.627   7.114  17.934  0.00  0.00    +0.000 A 
ATOM     15  C   UNL     1       7.480   8.330  17.087  0.00  0.00    +0.000 C 
ATOM     16  N   UNL     1       7.157   5.837  17.614  0.00  0.00    +0.000 N 
ATOM     17  N   UNL     1       7.456   4.950  18.612  0.00  0.00    +0.000 NA
ENDBRANCH   1  16
BRANCH  10  18
ATOM     18  N   UNL     1       4.243   5.478  17.341  0.00  0.00    +0.000 N 
ATOM     19  H   UNL     1       3.667   6.291  17.095  0.00  0.00    +0.000 HD
BRANCH  18  20
ATOM     20  C   UNL     1       3.787   4.749  18.463  0.00  0.00    +0.000 A 
ATOM     21  C   UNL     1       4.119   3.401  18.676  0.00  0.00    +0.000 A 
ATOM     22  C   UNL     1       3.566   2.664  19.727  0.00  0.00    +0.000 A 
ATOM     23  C   UNL     1       2.677   3.273  20.602  0.00  0.00    +0.000 A 
ATOM     24 CL   UNL     1       1.925   2.341  21.837  0.00  0.00    +0.000 Cl
ATOM     25  C   UNL     1       2.382   4.627  20.471  0.00  0.00    +0.000 A 
ATOM     26  C   UNL     1       2.947   5.358  19.420  0.00  0.00    +0.000 A 
ATOM     27 CL   UNL     1       2.551   7.041  19.314  0.00  0.00    +0.000 Cl
ENDBRANCH  18  20
ENDBRANCH  10  18
TORSDOF 3
ENDMDL
MODEL 5
REMARK VINA RESULT:      -7.6      1.084      1.160
REMARK  Name = 
REMARK  5 active torsions:
REMARK  status: ('A' for Active; 'I' for Inactive)
REMARK    1  A    between atoms: C_1  and  C_2
REMARK    2  A    between atoms: C_4  and  C_5
REMARK    3  A    between atoms: N_6  and  C_7
REMARK    4  A    between atoms: C_16  and  N_17
REMARK    5  A    between atoms: N_17  and  C_18
REMARK                            x       y       z     vdW  Elec       q    Type
REMARK                         _______ _______ _______ _____ _____    ______ ____
ROOT
ATOM      1  C   UNL     1       6.628   5.725  15.756  0.00  0.00    +0.000 A 
ATOM      2  N   UNL     1       7.355   5.446  14.634  0.00  0.00    +0.000 NA
ATOM      3  C   UNL     1       6.797   4.663  13.704  0.00  0.00    +0.000 A 
ATOM      4  C   UNL     1       7.522   4.331  12.571  0.00  0.00    +0.000 A 
ATOM      5  C   UNL     1       6.991   3.480  11.598  0.00  0.00    +0.000 A 
ATOM      6  C   UNL     1       5.715   2.963  11.770  0.00  0.00    +0.000 A 
ATOM      7  C   UNL     1       4.976   3.307  12.904  0.00  0.00    +0.000 A 
ATOM      8  C   UNL     1       5.497   4.155  13.877  0.00  0.00    +0.000 A 
ATOM      9  N   UNL     1       4.762   4.475  14.956  0.00  0.00    +0.000 NA
ATOM     10  C   UNL     1       5.300   5.283  15.910  0.00  0.00    +0.000 A 
ENDROOT
BRANCH   1  16
ATOM     11  C   UNL     1       8.221   9.542  18.295  0.00  0.00    +0.000 C 
ATOM     12  C   UNL     1       7.993   8.121  17.943  0.00  0.00    +0.000 A 
ATOM     13  C   UNL     1       8.259   6.992  18.732  0.00  0.00    +0.000 A 
ATOM     14  C   UNL     1       7.823   5.913  17.994  0.00  0.00    +0.000 A 
ATOM     15  C   UNL     1       7.839   4.475  18.379  0.00  0.00    +0.000 C 
ATOM     16  N   UNL     1       7.314   6.430  16.800  0.00  0.00    +0.000 N 
ATOM     17  N   UNL     1       7.460   7.790  16.763  0.00  0.00    +0.000 NA
ENDBRANCH   1  16
BRANCH  10  18
ATOM     18  N   UNL     1       4.462   5.698  16.960  0.00  0.00    +0.000 N 
ATOM     19  H   UNL     1       4.300   6.712  16.964  0.00  0.00    +0.000 HD
BRANCH  18  20
ATOM     20  C   UNL     1       3.592   4.960  17.794  0.00  0.00    +0.000 A 
ATOM     21  C   UNL     1       2.419   4.354  17.314  0.00  0.00    +0.000 A 
ATOM     22  C   UNL     1       1.511   3.727  18.173  0.00  0.00    +0.000 A 
ATOM     23  C   UNL     1       1.772   3.678  19.535  0.00  0.00    +0.000 A 
ATOM     24 CL   UNL     1       0.610   2.990  20.601  0.00  0.00    +0.000 Cl
ATOM     25  C   UNL     1       2.960   4.198  20.040  0.00  0.00    +0.000 A 
ATOM     26  C   UNL     1       3.867   4.817  19.171  0.00  0.00    +0.000 A 
ATOM     27 CL   UNL     1       5.333   5.436  19.854  0.00  0.00    +0.000 Cl
ENDBRANCH  18  20
ENDBRANCH  10  18
TORSDOF 3
ENDMDL
MODEL 6
REMARK VINA RESULT:      -7.6      1.057      1.408
REMARK  Name = 
REMARK  5 active torsions:
REMARK  status: ('A' for Active; 'I' for Inactive)
REMARK    1  A    between atoms: C_1  and  C_2
REMARK    2  A    between atoms: C_4  and  C_5
REMARK    3  A    between atoms: N_6  and  C_7
REMARK    4  A    between atoms: C_16  and  N_17
REMARK    5  A    between atoms: N_17  and  C_18
REMARK                            x       y       z     vdW  Elec       q    Type
REMARK                         _______ _______ _______ _____ _____    ______ ____
ROOT
ATOM      1  C   UNL     1       6.659   5.899  15.929  0.00  0.00    +0.000 A 
ATOM      2  N   UNL     1       7.407   5.521  14.852  0.00  0.00    +0.000 NA
ATOM      3  C   UNL     1       6.821   4.766  13.915  0.00  0.00    +0.000 A 
ATOM      4  C   UNL     1       7.564   4.335  12.827  0.00  0.00    +0.000 A 
ATOM      5  C   UNL     1       7.001   3.509  11.851  0.00  0.00    +0.000 A 
ATOM      6  C   UNL     1       5.674   3.119  11.972  0.00  0.00    +0.000 A 
ATOM      7  C   UNL     1       4.919   3.564  13.059  0.00  0.00    +0.000 A 
ATOM      8  C   UNL     1       5.472   4.388  14.036  0.00  0.00    +0.000 A 
ATOM      9  N   UNL     1       4.722   4.807  15.068  0.00  0.00    +0.000 NA
ATOM     10  C   UNL     1       5.288   5.589  16.028  0.00  0.00    +0.000 A 
ENDROOT
BRANCH   1  16
ATOM     11  C   UNL     1       8.544   9.618  18.413  0.00  0.00    +0.000 C 
ATOM     12  C   UNL     1       8.166   8.219  18.105  0.00  0.00    +0.000 A 
ATOM     13  C   UNL     1       8.241   7.105  18.956  0.00  0.00    +0.000 A 
ATOM     14  C   UNL     1       7.724   6.052  18.234  0.00  0.00    +0.000 A 
ATOM     15  C   UNL     1       7.539   4.642  18.678  0.00  0.00    +0.000 C 
ATOM     16  N   UNL     1       7.358   6.567  16.987  0.00  0.00    +0.000 N 
ATOM     17  N   UNL     1       7.673   7.896  16.905  0.00  0.00    +0.000 NA
ENDBRANCH   1  16
BRANCH  10  18
ATOM     18  N   UNL     1       4.445   6.111  17.024  0.00  0.00    +0.000 N 
ATOM     19  H   UNL     1       4.099   7.051  16.801  0.00  0.00    +0.000 HD
BRANCH  18  20
ATOM     20  C   UNL     1       3.773   5.474  18.091  0.00  0.00    +0.000 A 
ATOM     21  C   UNL     1       2.967   6.175  19.004  0.00  0.00    +0.000 A 
ATOM     22  C   UNL     1       2.404   5.549  20.120  0.00  0.00    +0.000 A 
ATOM     23  C   UNL     1       2.624   4.195  20.335  0.00  0.00    +0.000 A 
ATOM     24 CL   UNL     1       2.009   3.447  21.757  0.00  0.00    +0.000 Cl
ATOM     25  C   UNL     1       3.351   3.449  19.413  0.00  0.00    +0.000 A 
ATOM     26  C   UNL     1       3.905   4.083  18.294  0.00  0.00    +0.000 A 
ATOM     27 CL   UNL     1       4.793   3.102  17.176  0.00  0.00    +0.000 Cl
ENDBRANCH  18  20
ENDBRANCH  10  18
TORSDOF 3
ENDMDL
MODEL 7
REMARK VINA RESULT:      -7.2      2.647      5.493
REMARK  Name = 
REMARK  5 active torsions:
REMARK  status: ('A' for Active; 'I' for Inactive)
REMARK    1  A    between atoms: C_1  and  C_2
REMARK    2  A    between atoms: C_4  and  C_5
REMARK    3  A    between atoms: N_6  and  C_7
REMARK    4  A    between atoms: C_16  and  N_17
REMARK    5  A    between atoms: N_17  and  C_18
REMARK                            x       y       z     vdW  Elec       q    Type
REMARK                         _______ _______ _______ _____ _____    ______ ____
ROOT
ATOM      1  C   UNL     1       3.741   4.430  17.960  0.00  0.00    +0.000 A 
ATOM      2  N   UNL     1       4.377   3.600  17.083  0.00  0.00    +0.000 NA
ATOM      3  C   UNL     1       5.191   4.151  16.175  0.00  0.00    +0.000 A 
ATOM      4  C   UNL     1       5.824   3.339  15.248  0.00  0.00    +0.000 A 
ATOM      5  C   UNL     1       6.647   3.880  14.257  0.00  0.00    +0.000 A 
ATOM      6  C   UNL     1       6.836   5.254  14.206  0.00  0.00    +0.000 A 
ATOM      7  C   UNL     1       6.212   6.074  15.148  0.00  0.00    +0.000 A 
ATOM      8  C   UNL     1       5.391   5.542  16.139  0.00  0.00    +0.000 A 
ATOM      9  N   UNL     1       4.808   6.353  17.038  0.00  0.00    +0.000 NA
ATOM     10  C   UNL     1       3.986   5.817  17.982  0.00  0.00    +0.000 A 
ENDROOT
BRANCH   1  16
ATOM     11  C   UNL     1       1.853   2.583  22.032  0.00  0.00    +0.000 C 
ATOM     12  C   UNL     1       1.908   3.037  20.622  0.00  0.00    +0.000 A 
ATOM     13  C   UNL     1       0.837   3.177  19.726  0.00  0.00    +0.000 A 
ATOM     14  C   UNL     1       1.387   3.681  18.568  0.00  0.00    +0.000 A 
ATOM     15  C   UNL     1       0.685   4.048  17.307  0.00  0.00    +0.000 C 
ATOM     16  N   UNL     1       2.756   3.826  18.809  0.00  0.00    +0.000 N 
ATOM     17  N   UNL     1       3.072   3.388  20.066  0.00  0.00    +0.000 NA
ENDBRANCH   1  16
BRANCH  10  18
ATOM     18  N   UNL     1       3.494   6.676  18.980  0.00  0.00    +0.000 N 
ATOM     19  H   UNL     1       4.072   6.674  19.828  0.00  0.00    +0.000 HD
BRANCH  18  20
ATOM     20  C   UNL     1       2.554   7.729  18.910  0.00  0.00    +0.000 A 
ATOM     21  C   UNL     1       2.527   8.649  17.849  0.00  0.00    +0.000 A 
ATOM     22  C   UNL     1       1.668   9.752  17.853  0.00  0.00    +0.000 A 
ATOM     23  C   UNL     1       0.800   9.946  18.919  0.00  0.00    +0.000 A 
ATOM     24 CL   UNL     1      -0.188  11.353  18.968  0.00  0.00    +0.000 Cl
ATOM     25  C   UNL     1       0.742   9.015  19.953  0.00  0.00    +0.000 A 
ATOM     26  C   UNL     1       1.601   7.910  19.936  0.00  0.00    +0.000 A 
ATOM     27 CL   UNL     1       1.476   6.781  21.243  0.00  0.00    +0.000 Cl
ENDBRANCH  18  20
ENDBRANCH  10  18
TORSDOF 3
ENDMDL
MODEL 8
REMARK VINA RESULT:      -7.2      7.204      9.563
REMARK  Name = 
REMARK  5 active torsions:
REMARK  status: ('A' for Active; 'I' for Inactive)
REMARK    1  A    between atoms: C_1  and  C_2
REMARK    2  A    between atoms: C_4  and  C_5
REMARK    3  A    between atoms: N_6  and  C_7
REMARK    4  A    between atoms: C_16  and  N_17
REMARK    5  A    between atoms: N_17  and  C_18
REMARK                            x       y       z     vdW  Elec       q    Type
REMARK                         _______ _______ _______ _____ _____    ______ ____
ROOT
ATOM      1  C   UNL     1      -1.145  11.821  19.659  0.00  0.00    +0.000 A 
ATOM      2  N   UNL     1      -2.419  12.110  19.263  0.00  0.00    +0.000 NA
ATOM      3  C   UNL     1      -2.888  11.501  18.168  0.00  0.00    +0.000 A 
ATOM      4  C   UNL     1      -4.165  11.799  17.719  0.00  0.00    +0.000 A 
ATOM      5  C   UNL     1      -4.675  11.218  16.555  0.00  0.00    +0.000 A 
ATOM      6  C   UNL     1      -3.889  10.325  15.840  0.00  0.00    +0.000 A 
ATOM      7  C   UNL     1      -2.607  10.011  16.298  0.00  0.00    +0.000 A 
ATOM      8  C   UNL     1      -2.093  10.584  17.457  0.00  0.00    +0.000 A 
ATOM      9  N   UNL     1      -0.859  10.260  17.880  0.00  0.00    +0.000 NA
ATOM     10  C   UNL     1      -0.363  10.853  19.000  0.00  0.00    +0.000 A 
ENDROOT
BRANCH   1  16
ATOM     11  C   UNL     1       1.625  15.155  21.844  0.00  0.00    +0.000 C 
ATOM     12  C   UNL     1       0.586  14.108  21.699  0.00  0.00    +0.000 A 
ATOM     13  C   UNL     1      -0.376  13.722  22.645  0.00  0.00    +0.000 A 
ATOM     14  C   UNL     1      -1.143  12.761  22.023  0.00  0.00    +0.000 A 
ATOM     15  C   UNL     1      -2.326  12.040  22.570  0.00  0.00    +0.000 C 
ATOM     16  N   UNL     1      -0.620  12.609  20.737  0.00  0.00    +0.000 N 
ATOM     17  N   UNL     1       0.471  13.416  20.562  0.00  0.00    +0.000 NA
ENDBRANCH   1  16
BRANCH  10  18
ATOM     18  N   UNL     1       0.877  10.399  19.483  0.00  0.00    +0.000 N 
ATOM     19  H   UNL     1       1.286  11.027  20.185  0.00  0.00    +0.000 HD
BRANCH  18  20
ATOM     20  C   UNL     1       1.490   9.128  19.402  0.00  0.00    +0.000 A 
ATOM     21  C   UNL     1       2.131   8.670  18.239  0.00  0.00    +0.000 A 
ATOM     22  C   UNL     1       2.629   7.368  18.138  0.00  0.00    +0.000 A 
ATOM     23  C   UNL     1       2.509   6.499  19.213  0.00  0.00    +0.000 A 
ATOM     24 CL   UNL     1       3.037   4.869  19.054  0.00  0.00    +0.000 Cl
ATOM     25  C   UNL     1       1.950   6.938  20.410  0.00  0.00    +0.000 A 
ATOM     26  C   UNL     1       1.461   8.246  20.504  0.00  0.00    +0.000 A 
ATOM     27 CL   UNL     1       0.785   8.740  22.020  0.00  0.00    +0.000 Cl
ENDBRANCH  18  20
ENDBRANCH  10  18
TORSDOF 3
ENDMDL
MODEL 9
REMARK VINA RESULT:      -7.2      7.238     10.381
REMARK  Name = 
REMARK  5 active torsions:
REMARK  status: ('A' for Active; 'I' for Inactive)
REMARK    1  A    between atoms: C_1  and  C_2
REMARK    2  A    between atoms: C_4  and  C_5
REMARK    3  A    between atoms: N_6  and  C_7
REMARK    4  A    between atoms: C_16  and  N_17
REMARK    5  A    between atoms: N_17  and  C_18
REMARK                            x       y       z     vdW  Elec       q    Type
REMARK                         _______ _______ _______ _____ _____    ______ ____
ROOT
ATOM      1  C   UNL     1      -0.520  12.634  18.803  0.00  0.00    +0.000 A 
ATOM      2  N   UNL     1      -0.258  13.953  18.567  0.00  0.00    +0.000 NA
ATOM      3  C   UNL     1       0.835  14.485  19.127  0.00  0.00    +0.000 A 
ATOM      4  C   UNL     1       1.110  15.830  18.937  0.00  0.00    +0.000 A 
ATOM      5  C   UNL     1       2.215  16.434  19.541  0.00  0.00    +0.000 A 
ATOM      6  C   UNL     1       3.053  15.670  20.341  0.00  0.00    +0.000 A 
ATOM      7  C   UNL     1       2.788  14.311  20.523  0.00  0.00    +0.000 A 
ATOM      8  C   UNL     1       1.689  13.703  19.924  0.00  0.00    +0.000 A 
ATOM      9  N   UNL     1       1.459  12.392  20.110  0.00  0.00    +0.000 NA
ATOM     10  C   UNL     1       0.364  11.821  19.539  0.00  0.00    +0.000 A 
ENDROOT
BRANCH   1  16
ATOM     11  C   UNL     1      -3.588  10.246  15.898  0.00  0.00    +0.000 C 
ATOM     12  C   UNL     1      -3.133  11.054  17.054  0.00  0.00    +0.000 A 
ATOM     13  C   UNL     1      -3.875  11.414  18.190  0.00  0.00    +0.000 A 
ATOM     14  C   UNL     1      -3.001  12.109  18.997  0.00  0.00    +0.000 A 
ATOM     15  C   UNL     1      -3.265  12.690  20.343  0.00  0.00    +0.000 C 
ATOM     16  N   UNL     1      -1.777  12.139  18.323  0.00  0.00    +0.000 N 
ATOM     17  N   UNL     1      -1.882  11.519  17.108  0.00  0.00    +0.000 NA
ENDBRANCH   1  16
BRANCH  10  18
ATOM     18  N   UNL     1       0.223  10.426  19.650  0.00  0.00    +0.000 N 
ATOM     19  H   UNL     1      -0.748  10.136  19.814  0.00  0.00    +0.000 HD
BRANCH  18  20
ATOM     20  C   UNL     1       1.098   9.379  19.284  0.00  0.00    +0.000 A 
ATOM     21  C   UNL     1       1.612   9.241  17.984  0.00  0.00    +0.000 A 
ATOM     22  C   UNL     1       2.381   8.136  17.610  0.00  0.00    +0.000 A 
ATOM     23  C   UNL     1       2.667   7.148  18.542  0.00  0.00    +0.000 A 
ATOM     24 CL   UNL     1       3.534   5.744  18.056  0.00  0.00    +0.000 Cl
ATOM     25  C   UNL     1       2.243   7.285  19.860  0.00  0.00    +0.000 A 
ATOM     26  C   UNL     1       1.479   8.400  20.227  0.00  0.00    +0.000 A 
ATOM     27 CL   UNL     1       0.986   8.521  21.883  0.00  0.00    +0.000 Cl
ENDBRANCH  18  20
ENDBRANCH  10  18
TORSDOF 3
ENDMDL
