MODEL 1
REMARK VINA RESULT:      -6.4      0.000      0.000
REMARK  Name = 
REMARK  11 active torsions:
REMARK  status: ('A' for Active; 'I' for Inactive)
REMARK    1  A    between atoms: N_1  and  C_2
REMARK    2  A    between atoms: C_2  and  C_3
REMARK    3  A    between atoms: C_3  and  C_4
REMARK    4  A    between atoms: C_3  and  O_7
REMARK    5  A    between atoms: C_4  and  O_5
REMARK    6  A    between atoms: O_5  and  N_6
REMARK    7  A    between atoms: O_7  and  C_8
REMARK    8  A    between atoms: C_8  and  C_10
REMARK    9  A    between atoms: C_10  and  C_11
REMARK   10  A    between atoms: C_11  and  C_12
REMARK   11  A    between atoms: C_12  and  N_13
REMARK                            x       y       z     vdW  Elec       q    Type
REMARK                         _______ _______ _______ _____ _____    ______ ____
ROOT
ATOM      1  C   UNL     1       2.008   5.349  20.111  0.00  0.00    +0.000 C 
ENDROOT
BRANCH   1   2
ATOM      2  C   UNL     1       2.671   4.334  21.038  0.00  0.00    +0.000 C 
BRANCH   2   3
ATOM      3  C   UNL     1       1.914   3.027  21.083  0.00  0.00    +0.000 C 
ATOM      4  O   UNL     1       1.410   2.550  22.088  0.00  0.00    +0.000 OA
BRANCH   3   5
ATOM      5  O   UNL     1       1.749   2.546  19.816  0.00  0.00    +0.000 OA
BRANCH   5   6
ATOM      6  C   UNL     1       2.954   2.506  19.007  0.00  0.00    +0.000 C 
BRANCH   6   7
ATOM      7  C   UNL     1       3.850   1.414  19.632  0.00  0.00    +0.000 C 
BRANCH   7   8
ATOM      8  N   UNL     1       5.164   1.869  20.073  0.00  0.00    +0.000 NA
ATOM      9  H   UNL     1       5.396   2.737  19.585  0.00  0.00    +0.000 HD
ATOM     10  H   UNL     1       5.871   1.193  19.786  0.00  0.00    +0.000 HD
ENDBRANCH   7   8
ENDBRANCH   6   7
BRANCH   6  11
ATOM     11  C   UNL     1       2.589   2.156  17.559  0.00  0.00    +0.000 C 
BRANCH  11  12
ATOM     12  O   UNL     1       2.371   3.363  16.812  0.00  0.00    +0.000 OA
BRANCH  12  13
ATOM     13  N   UNL     1       1.134   3.974  17.291  0.00  0.00    +0.000 NA
ATOM     14  H   UNL     1       0.596   4.039  16.424  0.00  0.00    +0.000 HD
ATOM     15  H   UNL     1       1.444   4.925  17.496  0.00  0.00    +0.000 HD
ENDBRANCH  12  13
ENDBRANCH  11  12
ENDBRANCH   6  11
ENDBRANCH   5   6
ENDBRANCH   3   5
ENDBRANCH   2   3
ENDBRANCH   1   2
BRANCH   1  16
ATOM     16  C   UNL     1       3.037   6.302  19.503  0.00  0.00    +0.000 C 
BRANCH  16  17
ATOM     17  N   UNL     1       3.540   5.749  18.263  0.00  0.00    +0.000 N 
ATOM     18  C   UNL     1       4.906   5.534  18.153  0.00  0.00    +0.000 A 
ATOM     19  N   UNL     1       5.683   5.607  19.221  0.00  0.00    +0.000 NA
ATOM     20  C   UNL     1       6.969   5.394  18.999  0.00  0.00    +0.000 A 
ATOM     21  N   UNL     1       7.827   5.501  20.078  0.00  0.00    +0.000 N 
ATOM     22  N   UNL     1       7.500   5.060  17.837  0.00  0.00    +0.000 NA
ATOM     23  C   UNL     1       6.634   4.979  16.841  0.00  0.00    +0.000 A 
ATOM     24  N   UNL     1       7.126   4.605  15.606  0.00  0.00    +0.000 N 
ATOM     25  N   UNL     1       5.344   5.257  16.932  0.00  0.00    +0.000 NA
ATOM     26  H   UNL     1       3.189   6.118  17.387  0.00  0.00    +0.000 HD
ATOM     27  H   UNL     1       7.321   5.345  20.938  0.00  0.00    +0.000 HD
ATOM     28  H   UNL     1       8.652   4.935  19.918  0.00  0.00    +0.000 HD
ATOM     29  H   UNL     1       8.117   4.795  15.543  0.00  0.00    +0.000 HD
ATOM     30  H   UNL     1       6.533   4.946  14.864  0.00  0.00    +0.000 HD
ENDBRANCH  16  17
ENDBRANCH   1  16
TORSDOF 11
ENDMDL
MODEL 2
REMARK VINA RESULT:      -6.3      1.902      2.740
REMARK  Name = 
REMARK  11 active torsions:
REMARK  status: ('A' for Active; 'I' for Inactive)
REMARK    1  A    between atoms: N_1  and  C_2
REMARK    2  A    between atoms: C_2  and  C_3
REMARK    3  A    between atoms: C_3  and  C_4
REMARK    4  A    between atoms: C_3  and  O_7
REMARK    5  A    between atoms: C_4  and  O_5
REMARK    6  A    between atoms: O_5  and  N_6
REMARK    7  A    between atoms: O_7  and  C_8
REMARK    8  A    between atoms: C_8  and  C_10
REMARK    9  A    between atoms: C_10  and  C_11
REMARK   10  A    between atoms: C_11  and  C_12
REMARK   11  A    between atoms: C_12  and  N_13
REMARK                            x       y       z     vdW  Elec       q    Type
REMARK                         _______ _______ _______ _____ _____    ______ ____
ROOT
ATOM      1  C   UNL     1       2.331   6.782  18.154  0.00  0.00    +0.000 C 
ENDROOT
BRANCH   1   2
ATOM      2  C   UNL     1       2.344   5.488  18.964  0.00  0.00    +0.000 C 
BRANCH   2   3
ATOM      3  C   UNL     1       1.823   4.315  18.167  0.00  0.00    +0.000 C 
ATOM      4  O   UNL     1       1.155   4.408  17.149  0.00  0.00    +0.000 OA
BRANCH   3   5
ATOM      5  O   UNL     1       2.338   3.154  18.666  0.00  0.00    +0.000 OA
BRANCH   5   6
ATOM      6  C   UNL     1       2.690   3.186  20.075  0.00  0.00    +0.000 C 
BRANCH   6   7
ATOM      7  C   UNL     1       1.519   2.508  20.820  0.00  0.00    +0.000 C 
BRANCH   7   8
ATOM      8  N   UNL     1       1.615   2.531  22.276  0.00  0.00    +0.000 NA
ATOM      9  H   UNL     1       1.307   1.628  22.643  0.00  0.00    +0.000 HD
ATOM     10  H   UNL     1       0.961   3.218  22.648  0.00  0.00    +0.000 HD
ENDBRANCH   7   8
ENDBRANCH   6   7
BRANCH   6  11
ATOM     11  C   UNL     1       4.001   2.421  20.295  0.00  0.00    +0.000 C 
BRANCH  11  12
ATOM     12  O   UNL     1       4.629   2.167  19.029  0.00  0.00    +0.000 OA
BRANCH  12  13
ATOM     13  N   UNL     1       4.141   0.882  18.532  0.00  0.00    +0.000 NA
ATOM     14  H   UNL     1       3.183   1.121  18.270  0.00  0.00    +0.000 HD
ATOM     15  H   UNL     1       4.067   0.346  19.397  0.00  0.00    +0.000 HD
ENDBRANCH  12  13
ENDBRANCH  11  12
ENDBRANCH   6  11
ENDBRANCH   5   6
ENDBRANCH   3   5
ENDBRANCH   2   3
ENDBRANCH   1   2
BRANCH   1  16
ATOM     16  C   UNL     1       3.749   7.294  17.901  0.00  0.00    +0.000 C 
BRANCH  16  17
ATOM     17  N   UNL     1       4.169   6.925  16.566  0.00  0.00    +0.000 N 
ATOM     18  C   UNL     1       5.324   6.169  16.431  0.00  0.00    +0.000 A 
ATOM     19  N   UNL     1       5.884   5.608  17.490  0.00  0.00    +0.000 NA
ATOM     20  C   UNL     1       6.985   4.919  17.248  0.00  0.00    +0.000 A 
ATOM     21  N   UNL     1       7.630   4.349  18.331  0.00  0.00    +0.000 N 
ATOM     22  N   UNL     1       7.508   4.706  16.055  0.00  0.00    +0.000 NA
ATOM     23  C   UNL     1       6.854   5.280  15.059  0.00  0.00    +0.000 A 
ATOM     24  N   UNL     1       7.336   5.069  13.782  0.00  0.00    +0.000 N 
ATOM     25  N   UNL     1       5.796   6.062  15.196  0.00  0.00    +0.000 NA
ATOM     26  H   UNL     1       4.143   7.627  15.835  0.00  0.00    +0.000 HD
ATOM     27  H   UNL     1       6.976   4.210  19.087  0.00  0.00    +0.000 HD
ATOM     28  H   UNL     1       8.163   3.542  18.027  0.00  0.00    +0.000 HD
ATOM     29  H   UNL     1       8.314   4.813  13.807  0.00  0.00    +0.000 HD
ATOM     30  H   UNL     1       7.061   5.818  13.165  0.00  0.00    +0.000 HD
ENDBRANCH  16  17
ENDBRANCH   1  16
TORSDOF 11
ENDMDL
MODEL 3
REMARK VINA RESULT:      -6.2      2.409      4.213
REMARK  Name = 
REMARK  11 active torsions:
REMARK  status: ('A' for Active; 'I' for Inactive)
REMARK    1  A    between atoms: N_1  and  C_2
REMARK    2  A    between atoms: C_2  and  C_3
REMARK    3  A    between atoms: C_3  and  C_4
REMARK    4  A    between atoms: C_3  and  O_7
REMARK    5  A    between atoms: C_4  and  O_5
REMARK    6  A    between atoms: O_5  and  N_6
REMARK    7  A    between atoms: O_7  and  C_8
REMARK    8  A    between atoms: C_8  and  C_10
REMARK    9  A    between atoms: C_10  and  C_11
REMARK   10  A    between atoms: C_11  and  C_12
REMARK   11  A    between atoms: C_12  and  N_13
REMARK                            x       y       z     vdW  Elec       q    Type
REMARK                         _______ _______ _______ _____ _____    ______ ____
ROOT
ATOM      1  C   UNL     1       5.884   6.050  17.621  0.00  0.00    +0.000 C 
ENDROOT
BRANCH   1   2
ATOM      2  C   UNL     1       5.179   5.820  18.955  0.00  0.00    +0.000 C 
BRANCH   2   3
ATOM      3  C   UNL     1       3.763   5.324  18.771  0.00  0.00    +0.000 C 
ATOM      4  O   UNL     1       2.975   5.765  17.948  0.00  0.00    +0.000 OA
BRANCH   3   5
ATOM      5  O   UNL     1       3.556   4.221  19.547  0.00  0.00    +0.000 OA
BRANCH   5   6
ATOM      6  C   UNL     1       2.753   3.176  18.935  0.00  0.00    +0.000 C 
BRANCH   6   7
ATOM      7  C   UNL     1       3.648   1.917  18.905  0.00  0.00    +0.000 C 
BRANCH   7   8
ATOM      8  N   UNL     1       4.808   1.961  19.790  0.00  0.00    +0.000 NA
ATOM      9  H   UNL     1       4.838   2.872  20.252  0.00  0.00    +0.000 HD
ATOM     10  H   UNL     1       5.661   1.905  19.235  0.00  0.00    +0.000 HD
ENDBRANCH   7   8
ENDBRANCH   6   7
BRANCH   6  11
ATOM     11  C   UNL     1       1.494   2.936  19.777  0.00  0.00    +0.000 C 
BRANCH  11  12
ATOM     12  O   UNL     1       1.839   2.199  20.960  0.00  0.00    +0.000 OA
BRANCH  12  13
ATOM     13  N   UNL     1       2.030   3.154  22.049  0.00  0.00    +0.000 NA
ATOM     14  H   UNL     1       1.153   3.046  22.563  0.00  0.00    +0.000 HD
ATOM     15  H   UNL     1       1.954   4.042  21.554  0.00  0.00    +0.000 HD
ENDBRANCH  12  13
ENDBRANCH  11  12
ENDBRANCH   6  11
ENDBRANCH   5   6
ENDBRANCH   3   5
ENDBRANCH   2   3
ENDBRANCH   1   2
BRANCH   1  16
ATOM     16  C   UNL     1       6.874   4.925  17.314  0.00  0.00    +0.000 C 
BRANCH  16  17
ATOM     17  N   UNL     1       6.302   4.026  16.334  0.00  0.00    +0.000 N 
ATOM     18  C   UNL     1       6.620   4.230  15.000  0.00  0.00    +0.000 A 
ATOM     19  N   UNL     1       7.592   5.061  14.663  0.00  0.00    +0.000 NA
ATOM     20  C   UNL     1       7.803   5.186  13.364  0.00  0.00    +0.000 A 
ATOM     21  N   UNL     1       8.782   6.076  12.961  0.00  0.00    +0.000 N 
ATOM     22  N   UNL     1       7.175   4.512  12.418  0.00  0.00    +0.000 NA
ATOM     23  C   UNL     1       6.246   3.682  12.860  0.00  0.00    +0.000 A 
ATOM     24  N   UNL     1       5.574   2.926  11.920  0.00  0.00    +0.000 N 
ATOM     25  N   UNL     1       5.893   3.544  14.128  0.00  0.00    +0.000 NA
ATOM     26  H   UNL     1       5.321   3.783  16.410  0.00  0.00    +0.000 HD
ATOM     27  H   UNL     1       9.451   6.213  13.704  0.00  0.00    +0.000 HD
ATOM     28  H   UNL     1       9.146   5.800  12.057  0.00  0.00    +0.000 HD
ATOM     29  H   UNL     1       5.622   3.364  11.010  0.00  0.00    +0.000 HD
ATOM     30  H   UNL     1       4.666   2.650  12.262  0.00  0.00    +0.000 HD
ENDBRANCH  16  17
ENDBRANCH   1  16
TORSDOF 11
ENDMDL
MODEL 4
REMARK VINA RESULT:      -6.2      1.755      2.387
REMARK  Name = 
REMARK  11 active torsions:
REMARK  status: ('A' for Active; 'I' for Inactive)
REMARK    1  A    between atoms: N_1  and  C_2
REMARK    2  A    between atoms: C_2  and  C_3
REMARK    3  A    between atoms: C_3  and  C_4
REMARK    4  A    between atoms: C_3  and  O_7
REMARK    5  A    between atoms: C_4  and  O_5
REMARK    6  A    between atoms: O_5  and  N_6
REMARK    7  A    between atoms: O_7  and  C_8
REMARK    8  A    between atoms: C_8  and  C_10
REMARK    9  A    between atoms: C_10  and  C_11
REMARK   10  A    between atoms: C_11  and  C_12
REMARK   11  A    between atoms: C_12  and  N_13
REMARK                            x       y       z     vdW  Elec       q    Type
REMARK                         _______ _______ _______ _____ _____    ______ ____
ROOT
ATOM      1  C   UNL     1       3.246   6.121  19.899  0.00  0.00    +0.000 C 
ENDROOT
BRANCH   1   2
ATOM      2  C   UNL     1       1.876   5.800  20.491  0.00  0.00    +0.000 C 
BRANCH   2   3
ATOM      3  C   UNL     1       1.605   4.313  20.522  0.00  0.00    +0.000 C 
ATOM      4  O   UNL     1       0.498   3.811  20.636  0.00  0.00    +0.000 OA
BRANCH   3   5
ATOM      5  O   UNL     1       2.755   3.630  20.250  0.00  0.00    +0.000 OA
BRANCH   5   6
ATOM      6  C   UNL     1       2.580   2.396  19.504  0.00  0.00    +0.000 C 
BRANCH   6   7
ATOM      7  C   UNL     1       1.696   2.757  18.289  0.00  0.00    +0.000 C 
BRANCH   7   8
ATOM      8  N   UNL     1       2.421   2.992  17.045  0.00  0.00    +0.000 NA
ATOM      9  H   UNL     1       2.175   3.918  16.688  0.00  0.00    +0.000 HD
ATOM     10  H   UNL     1       2.103   2.331  16.337  0.00  0.00    +0.000 HD
ENDBRANCH   7   8
ENDBRANCH   6   7
BRANCH   6  11
ATOM     11  C   UNL     1       3.948   1.870  19.052  0.00  0.00    +0.000 C 
BRANCH  11  12
ATOM     12  O   UNL     1       4.986   2.526  19.797  0.00  0.00    +0.000 OA
BRANCH  12  13
ATOM     13  N   UNL     1       5.594   3.534  18.932  0.00  0.00    +0.000 NA
ATOM     14  H   UNL     1       4.777   4.092  18.672  0.00  0.00    +0.000 HD
ATOM     15  H   UNL     1       5.825   2.980  18.107  0.00  0.00    +0.000 HD
ENDBRANCH  12  13
ENDBRANCH  11  12
ENDBRANCH   6  11
ENDBRANCH   5   6
ENDBRANCH   3   5
ENDBRANCH   2   3
ENDBRANCH   1   2
BRANCH   1  16
ATOM     16  C   UNL     1       3.123   6.649  18.469  0.00  0.00    +0.000 C 
BRANCH  16  17
ATOM     17  N   UNL     1       3.560   5.632  17.535  0.00  0.00    +0.000 N 
ATOM     18  C   UNL     1       4.823   5.760  16.977  0.00  0.00    +0.000 A 
ATOM     19  N   UNL     1       5.682   6.643  17.460  0.00  0.00    +0.000 NA
ATOM     20  C   UNL     1       6.852   6.687  16.846  0.00  0.00    +0.000 A 
ATOM     21  N   UNL     1       7.768   7.624  17.289  0.00  0.00    +0.000 N 
ATOM     22  N   UNL     1       7.230   5.891  15.863  0.00  0.00    +0.000 NA
ATOM     23  C   UNL     1       6.312   5.021  15.476  0.00  0.00    +0.000 A 
ATOM     24  N   UNL     1       6.660   4.142  14.471  0.00  0.00    +0.000 N 
ATOM     25  N   UNL     1       5.083   4.950  15.960  0.00  0.00    +0.000 NA
ATOM     26  H   UNL     1       2.912   5.312  16.825  0.00  0.00    +0.000 HD
ATOM     27  H   UNL     1       7.571   7.873  18.247  0.00  0.00    +0.000 HD
ATOM     28  H   UNL     1       8.708   7.312  17.076  0.00  0.00    +0.000 HD
ATOM     29  H   UNL     1       7.424   4.511  13.921  0.00  0.00    +0.000 HD
ATOM     30  H   UNL     1       5.841   3.815  13.979  0.00  0.00    +0.000 HD
ENDBRANCH  16  17
ENDBRANCH   1  16
TORSDOF 11
ENDMDL
MODEL 5
REMARK VINA RESULT:      -6.2      2.954      6.207
REMARK  Name = 
REMARK  11 active torsions:
REMARK  status: ('A' for Active; 'I' for Inactive)
REMARK    1  A    between atoms: N_1  and  C_2
REMARK    2  A    between atoms: C_2  and  C_3
REMARK    3  A    between atoms: C_3  and  C_4
REMARK    4  A    between atoms: C_3  and  O_7
REMARK    5  A    between atoms: C_4  and  O_5
REMARK    6  A    between atoms: O_5  and  N_6
REMARK    7  A    between atoms: O_7  and  C_8
REMARK    8  A    between atoms: C_8  and  C_10
REMARK    9  A    between atoms: C_10  and  C_11
REMARK   10  A    between atoms: C_11  and  C_12
REMARK   11  A    between atoms: C_12  and  N_13
REMARK                            x       y       z     vdW  Elec       q    Type
REMARK                         _______ _______ _______ _____ _____    ______ ____
ROOT
ATOM      1  C   UNL     1       4.899   3.680  16.606  0.00  0.00    +0.000 C 
ENDROOT
BRANCH   1   2
ATOM      2  C   UNL     1       5.462   4.357  15.359  0.00  0.00    +0.000 C 
BRANCH   2   3
ATOM      3  C   UNL     1       6.629   5.262  15.682  0.00  0.00    +0.000 C 
ATOM      4  O   UNL     1       7.541   5.522  14.912  0.00  0.00    +0.000 OA
BRANCH   3   5
ATOM      5  O   UNL     1       6.428   5.858  16.893  0.00  0.00    +0.000 OA
BRANCH   5   6
ATOM      6  C   UNL     1       7.597   6.499  17.469  0.00  0.00    +0.000 C 
BRANCH   6   7
ATOM      7  C   UNL     1       7.307   8.016  17.440  0.00  0.00    +0.000 C 
BRANCH   7   8
ATOM      8  N   UNL     1       8.303   8.850  18.104  0.00  0.00    +0.000 NA
ATOM      9  H   UNL     1       8.751   8.306  18.844  0.00  0.00    +0.000 HD
ATOM     10  H   UNL     1       7.837   9.625  18.575  0.00  0.00    +0.000 HD
ENDBRANCH   7   8
ENDBRANCH   6   7
BRANCH   6  11
ATOM     11  C   UNL     1       7.799   6.004  18.907  0.00  0.00    +0.000 C 
BRANCH  11  12
ATOM     12  O   UNL     1       6.984   4.845  19.136  0.00  0.00    +0.000 OA
BRANCH  12  13
ATOM     13  N   UNL     1       5.674   5.296  19.600  0.00  0.00    +0.000 NA
ATOM     14  H   UNL     1       5.734   6.300  19.418  0.00  0.00    +0.000 HD
ATOM     15  H   UNL     1       5.772   5.192  20.611  0.00  0.00    +0.000 HD
ENDBRANCH  12  13
ENDBRANCH  11  12
ENDBRANCH   6  11
ENDBRANCH   5   6
ENDBRANCH   3   5
ENDBRANCH   2   3
ENDBRANCH   1   2
BRANCH   1  16
ATOM     16  C   UNL     1       3.371   3.733  16.625  0.00  0.00    +0.000 C 
BRANCH  16  17
ATOM     17  N   UNL     1       2.868   2.899  17.696  0.00  0.00    +0.000 N 
ATOM     18  C   UNL     1       2.579   3.503  18.911  0.00  0.00    +0.000 A 
ATOM     19  N   UNL     1       2.538   4.821  19.010  0.00  0.00    +0.000 NA
ATOM     20  C   UNL     1       2.263   5.288  20.216  0.00  0.00    +0.000 A 
ATOM     21  N   UNL     1       2.252   6.662  20.378  0.00  0.00    +0.000 N 
ATOM     22  N   UNL     1       1.972   4.553  21.273  0.00  0.00    +0.000 NA
ATOM     23  C   UNL     1       2.005   3.249  21.061  0.00  0.00    +0.000 A 
ATOM     24  N   UNL     1       1.680   2.428  22.122  0.00  0.00    +0.000 N 
ATOM     25  N   UNL     1       2.354   2.674  19.921  0.00  0.00    +0.000 NA
ATOM     26  H   UNL     1       3.311   2.004  17.865  0.00  0.00    +0.000 HD
ATOM     27  H   UNL     1       2.073   7.112  19.493  0.00  0.00    +0.000 HD
ATOM     28  H   UNL     1       1.649   6.910  21.154  0.00  0.00    +0.000 HD
ATOM     29  H   UNL     1       1.815   2.909  23.001  0.00  0.00    +0.000 HD
ATOM     30  H   UNL     1       2.102   1.517  22.015  0.00  0.00    +0.000 HD
ENDBRANCH  16  17
ENDBRANCH   1  16
TORSDOF 11
ENDMDL
MODEL 6
REMARK VINA RESULT:      -6.1      1.718      2.542
REMARK  Name = 
REMARK  11 active torsions:
REMARK  status: ('A' for Active; 'I' for Inactive)
REMARK    1  A    between atoms: N_1  and  C_2
REMARK    2  A    between atoms: C_2  and  C_3
REMARK    3  A    between atoms: C_3  and  C_4
REMARK    4  A    between atoms: C_3  and  O_7
REMARK    5  A    between atoms: C_4  and  O_5
REMARK    6  A    between atoms: O_5  and  N_6
REMARK    7  A    between atoms: O_7  and  C_8
REMARK    8  A    between atoms: C_8  and  C_10
REMARK    9  A    between atoms: C_10  and  C_11
REMARK   10  A    between atoms: C_11  and  C_12
REMARK   11  A    between atoms: C_12  and  N_13
REMARK                            x       y       z     vdW  Elec       q    Type
REMARK                         _______ _______ _______ _____ _____    ______ ____
ROOT
ATOM      1  C   UNL     1       2.436   7.254  18.127  0.00  0.00    +0.000 C 
ENDROOT
BRANCH   1   2
ATOM      2  C   UNL     1       2.148   6.068  19.045  0.00  0.00    +0.000 C 
BRANCH   2   3
ATOM      3  C   UNL     1       2.064   4.767  18.282  0.00  0.00    +0.000 C 
ATOM      4  O   UNL     1       1.341   4.573  17.317  0.00  0.00    +0.000 OA
BRANCH   3   5
ATOM      5  O   UNL     1       3.021   3.905  18.733  0.00  0.00    +0.000 OA
BRANCH   5   6
ATOM      6  C   UNL     1       2.775   2.502  18.451  0.00  0.00    +0.000 C 
BRANCH   6   7
ATOM      7  C   UNL     1       4.039   1.747  18.918  0.00  0.00    +0.000 C 
BRANCH   7   8
ATOM      8  N   UNL     1       5.122   2.595  19.405  0.00  0.00    +0.000 NA
ATOM      9  H   UNL     1       5.087   3.492  18.915  0.00  0.00    +0.000 HD
ATOM     10  H   UNL     1       6.018   2.179  19.155  0.00  0.00    +0.000 HD
ENDBRANCH   7   8
ENDBRANCH   6   7
BRANCH   6  11
ATOM     11  C   UNL     1       1.536   2.032  19.224  0.00  0.00    +0.000 C 
BRANCH  11  12
ATOM     12  O   UNL     1       1.804   2.074  20.634  0.00  0.00    +0.000 OA
BRANCH  12  13
ATOM     13  N   UNL     1       1.026   3.168  21.209  0.00  0.00    +0.000 NA
ATOM     14  H   UNL     1       1.479   3.980  20.783  0.00  0.00    +0.000 HD
ATOM     15  H   UNL     1       1.342   3.153  22.179  0.00  0.00    +0.000 HD
ENDBRANCH  12  13
ENDBRANCH  11  12
ENDBRANCH   6  11
ENDBRANCH   5   6
ENDBRANCH   3   5
ENDBRANCH   2   3
ENDBRANCH   1   2
BRANCH   1  16
ATOM     16  C   UNL     1       3.934   7.398  17.860  0.00  0.00    +0.000 C 
BRANCH  16  17
ATOM     17  N   UNL     1       4.241   6.915  16.531  0.00  0.00    +0.000 N 
ATOM     18  C   UNL     1       5.346   6.091  16.376  0.00  0.00    +0.000 A 
ATOM     19  N   UNL     1       5.951   5.577  17.435  0.00  0.00    +0.000 NA
ATOM     20  C   UNL     1       6.998   4.815  17.171  0.00  0.00    +0.000 A 
ATOM     21  N   UNL     1       7.689   4.289  18.248  0.00  0.00    +0.000 N 
ATOM     22  N   UNL     1       7.425   4.491  15.965  0.00  0.00    +0.000 NA
ATOM     23  C   UNL     1       6.732   5.028  14.975  0.00  0.00    +0.000 A 
ATOM     24  N   UNL     1       7.112   4.702  13.688  0.00  0.00    +0.000 N 
ATOM     25  N   UNL     1       5.725   5.872  15.124  0.00  0.00    +0.000 NA
ATOM     26  H   UNL     1       4.198   7.565  15.754  0.00  0.00    +0.000 HD
ATOM     27  H   UNL     1       7.084   4.239  19.054  0.00  0.00    +0.000 HD
ATOM     28  H   UNL     1       8.160   3.436  17.970  0.00  0.00    +0.000 HD
ATOM     29  H   UNL     1       8.076   4.397  13.667  0.00  0.00    +0.000 HD
ATOM     30  H   UNL     1       6.831   5.420  13.037  0.00  0.00    +0.000 HD
ENDBRANCH  16  17
ENDBRANCH   1  16
TORSDOF 11
ENDMDL
MODEL 7
REMARK VINA RESULT:      -6.1      2.048      3.529
REMARK  Name = 
REMARK  11 active torsions:
REMARK  status: ('A' for Active; 'I' for Inactive)
REMARK    1  A    between atoms: N_1  and  C_2
REMARK    2  A    between atoms: C_2  and  C_3
REMARK    3  A    between atoms: C_3  and  C_4
REMARK    4  A    between atoms: C_3  and  O_7
REMARK    5  A    between atoms: C_4  and  O_5
REMARK    6  A    between atoms: O_5  and  N_6
REMARK    7  A    between atoms: O_7  and  C_8
REMARK    8  A    between atoms: C_8  and  C_10
REMARK    9  A    between atoms: C_10  and  C_11
REMARK   10  A    between atoms: C_11  and  C_12
REMARK   11  A    between atoms: C_12  and  N_13
REMARK                            x       y       z     vdW  Elec       q    Type
REMARK                         _______ _______ _______ _____ _____    ______ ____
ROOT
ATOM      1  C   UNL     1       4.768   4.101  15.919  0.00  0.00    +0.000 C 
ENDROOT
BRANCH   1   2
ATOM      2  C   UNL     1       4.354   4.106  17.388  0.00  0.00    +0.000 C 
BRANCH   2   3
ATOM      3  C   UNL     1       2.852   4.068  17.554  0.00  0.00    +0.000 C 
ATOM      4  O   UNL     1       2.073   3.614  16.729  0.00  0.00    +0.000 OA
BRANCH   3   5
ATOM      5  O   UNL     1       2.517   4.469  18.814  0.00  0.00    +0.000 OA
BRANCH   5   6
ATOM      6  C   UNL     1       2.942   3.580  19.881  0.00  0.00    +0.000 C 
BRANCH   6   7
ATOM      7  C   UNL     1       2.177   4.036  21.143  0.00  0.00    +0.000 C 
BRANCH   7   8
ATOM      8  N   UNL     1       2.221   3.103  22.265  0.00  0.00    +0.000 NA
ATOM      9  H   UNL     1       2.776   2.288  21.996  0.00  0.00    +0.000 HD
ATOM     10  H   UNL     1       1.283   2.749  22.448  0.00  0.00    +0.000 HD
ENDBRANCH   7   8
ENDBRANCH   6   7
BRANCH   6  11
ATOM     11  C   UNL     1       2.588   2.133  19.516  0.00  0.00    +0.000 C 
BRANCH  11  12
ATOM     12  O   UNL     1       1.206   1.885  19.815  0.00  0.00    +0.000 OA
BRANCH  12  13
ATOM     13  N   UNL     1       0.455   1.940  18.563  0.00  0.00    +0.000 NA
ATOM     14  H   UNL     1      -0.086   1.075  18.618  0.00  0.00    +0.000 HD
ATOM     15  H   UNL     1       1.190   1.764  17.879  0.00  0.00    +0.000 HD
ENDBRANCH  12  13
ENDBRANCH  11  12
ENDBRANCH   6  11
ENDBRANCH   5   6
ENDBRANCH   3   5
ENDBRANCH   2   3
ENDBRANCH   1   2
BRANCH   1  16
ATOM     16  C   UNL     1       6.288   4.174  15.770  0.00  0.00    +0.000 C 
BRANCH  16  17
ATOM     17  N   UNL     1       6.705   5.559  15.705  0.00  0.00    +0.000 N 
ATOM     18  C   UNL     1       7.236   6.134  16.850  0.00  0.00    +0.000 A 
ATOM     19  N   UNL     1       7.568   5.380  17.885  0.00  0.00    +0.000 NA
ATOM     20  C   UNL     1       8.055   6.033  18.926  0.00  0.00    +0.000 A 
ATOM     21  N   UNL     1       8.377   5.292  20.048  0.00  0.00    +0.000 N 
ATOM     22  N   UNL     1       8.286   7.332  18.975  0.00  0.00    +0.000 NA
ATOM     23  C   UNL     1       7.953   7.991  17.877  0.00  0.00    +0.000 A 
ATOM     24  N   UNL     1       8.198   9.349  17.857  0.00  0.00    +0.000 N 
ATOM     25  N   UNL     1       7.378   7.452  16.815  0.00  0.00    +0.000 NA
ATOM     26  H   UNL     1       6.100   6.229  15.245  0.00  0.00    +0.000 HD
ATOM     27  H   UNL     1       8.560   4.334  19.788  0.00  0.00    +0.000 HD
ATOM     28  H   UNL     1       9.094   5.770  20.581  0.00  0.00    +0.000 HD
ATOM     29  H   UNL     1       8.258   9.715  18.797  0.00  0.00    +0.000 HD
ATOM     30  H   UNL     1       7.582   9.817  17.208  0.00  0.00    +0.000 HD
ENDBRANCH  16  17
ENDBRANCH   1  16
TORSDOF 11
ENDMDL
MODEL 8
REMARK VINA RESULT:      -6.1      2.485      3.833
REMARK  Name = 
REMARK  11 active torsions:
REMARK  status: ('A' for Active; 'I' for Inactive)
REMARK    1  A    between atoms: N_1  and  C_2
REMARK    2  A    between atoms: C_2  and  C_3
REMARK    3  A    between atoms: C_3  and  C_4
REMARK    4  A    between atoms: C_3  and  O_7
REMARK    5  A    between atoms: C_4  and  O_5
REMARK    6  A    between atoms: O_5  and  N_6
REMARK    7  A    between atoms: O_7  and  C_8
REMARK    8  A    between atoms: C_8  and  C_10
REMARK    9  A    between atoms: C_10  and  C_11
REMARK   10  A    between atoms: C_11  and  C_12
REMARK   11  A    between atoms: C_12  and  N_13
REMARK                            x       y       z     vdW  Elec       q    Type
REMARK                         _______ _______ _______ _____ _____    ______ ____
ROOT
ATOM      1  C   UNL     1       5.024   5.385  18.272  0.00  0.00    +0.000 C 
ENDROOT
BRANCH   1   2
ATOM      2  C   UNL     1       5.527   3.961  18.494  0.00  0.00    +0.000 C 
BRANCH   2   3
ATOM      3  C   UNL     1       4.629   3.182  19.428  0.00  0.00    +0.000 C 
ATOM      4  O   UNL     1       5.023   2.379  20.261  0.00  0.00    +0.000 OA
BRANCH   3   5
ATOM      5  O   UNL     1       3.344   3.622  19.306  0.00  0.00    +0.000 OA
BRANCH   5   6
ATOM      6  C   UNL     1       2.329   2.726  19.832  0.00  0.00    +0.000 C 
BRANCH   6   7
ATOM      7  C   UNL     1       1.609   3.510  20.951  0.00  0.00    +0.000 C 
BRANCH   7   8
ATOM      8  N   UNL     1       1.098   4.820  20.559  0.00  0.00    +0.000 NA
ATOM      9  H   UNL     1       1.885   5.463  20.448  0.00  0.00    +0.000 HD
ATOM     10  H   UNL     1       0.532   5.203  21.315  0.00  0.00    +0.000 HD
ENDBRANCH   7   8
ENDBRANCH   6   7
BRANCH   6  11
ATOM     11  C   UNL     1       1.353   2.341  18.713  0.00  0.00    +0.000 C 
BRANCH  11  12
ATOM     12  O   UNL     1       1.826   2.861  17.461  0.00  0.00    +0.000 OA
BRANCH  12  13
ATOM     13  N   UNL     1       1.329   4.228  17.322  0.00  0.00    +0.000 NA
ATOM     14  H   UNL     1       1.645   4.459  16.378  0.00  0.00    +0.000 HD
ATOM     15  H   UNL     1       1.950   4.734  17.954  0.00  0.00    +0.000 HD
ENDBRANCH  12  13
ENDBRANCH  11  12
ENDBRANCH   6  11
ENDBRANCH   5   6
ENDBRANCH   3   5
ENDBRANCH   2   3
ENDBRANCH   1   2
BRANCH   1  16
ATOM     16  C   UNL     1       5.255   5.838  16.830  0.00  0.00    +0.000 C 
BRANCH  16  17
ATOM     17  N   UNL     1       4.984   4.740  15.926  0.00  0.00    +0.000 N 
ATOM     18  C   UNL     1       5.779   4.615  14.796  0.00  0.00    +0.000 A 
ATOM     19  N   UNL     1       6.887   5.328  14.676  0.00  0.00    +0.000 NA
ATOM     20  C   UNL     1       7.562   5.137  13.555  0.00  0.00    +0.000 A 
ATOM     21  N   UNL     1       8.705   5.891  13.365  0.00  0.00    +0.000 N 
ATOM     22  N   UNL     1       7.250   4.267  12.612  0.00  0.00    +0.000 NA
ATOM     23  C   UNL     1       6.143   3.580  12.844  0.00  0.00    +0.000 A 
ATOM     24  N   UNL     1       5.781   2.633  11.908  0.00  0.00    +0.000 N 
ATOM     25  N   UNL     1       5.347   3.752  13.886  0.00  0.00    +0.000 NA
ATOM     26  H   UNL     1       4.022   4.536  15.681  0.00  0.00    +0.000 HD
ATOM     27  H   UNL     1       9.073   6.190  14.256  0.00  0.00    +0.000 HD
ATOM     28  H   UNL     1       9.339   5.402  12.744  0.00  0.00    +0.000 HD
ATOM     29  H   UNL     1       6.197   2.840  11.010  0.00  0.00    +0.000 HD
ATOM     30  H   UNL     1       4.787   2.459  11.937  0.00  0.00    +0.000 HD
ENDBRANCH  16  17
ENDBRANCH   1  16
TORSDOF 11
ENDMDL
MODEL 9
REMARK VINA RESULT:      -6.0      2.641      5.768
REMARK  Name = 
REMARK  11 active torsions:
REMARK  status: ('A' for Active; 'I' for Inactive)
REMARK    1  A    between atoms: N_1  and  C_2
REMARK    2  A    between atoms: C_2  and  C_3
REMARK    3  A    between atoms: C_3  and  C_4
REMARK    4  A    between atoms: C_3  and  O_7
REMARK    5  A    between atoms: C_4  and  O_5
REMARK    6  A    between atoms: O_5  and  N_6
REMARK    7  A    between atoms: O_7  and  C_8
REMARK    8  A    between atoms: C_8  and  C_10
REMARK    9  A    between atoms: C_10  and  C_11
REMARK   10  A    between atoms: C_11  and  C_12
REMARK   11  A    between atoms: C_12  and  N_13
REMARK                            x       y       z     vdW  Elec       q    Type
REMARK                         _______ _______ _______ _____ _____    ______ ____
ROOT
ATOM      1  C   UNL     1       7.676   5.448  18.898  0.00  0.00    +0.000 C 
ENDROOT
BRANCH   1   2
ATOM      2  C   UNL     1       7.877   6.672  18.009  0.00  0.00    +0.000 C 
BRANCH   2   3
ATOM      3  C   UNL     1       7.000   6.630  16.779  0.00  0.00    +0.000 C 
ATOM      4  O   UNL     1       6.007   7.321  16.610  0.00  0.00    +0.000 OA
BRANCH   3   5
ATOM      5  O   UNL     1       7.570   5.828  15.834  0.00  0.00    +0.000 OA
BRANCH   5   6
ATOM      6  C   UNL     1       6.638   5.040  15.046  0.00  0.00    +0.000 C 
BRANCH   6   7
ATOM      7  C   UNL     1       7.284   4.890  13.651  0.00  0.00    +0.000 C 
BRANCH   7   8
ATOM      8  N   UNL     1       8.424   5.765  13.399  0.00  0.00    +0.000 NA
ATOM      9  H   UNL     1       9.267   5.194  13.309  0.00  0.00    +0.000 HD
ATOM     10  H   UNL     1       8.580   6.361  14.211  0.00  0.00    +0.000 HD
ENDBRANCH   7   8
ENDBRANCH   6   7
BRANCH   6  11
ATOM     11  C   UNL     1       6.433   3.672  15.708  0.00  0.00    +0.000 C 
BRANCH  11  12
ATOM     12  O   UNL     1       5.079   3.560  16.173  0.00  0.00    +0.000 OA
BRANCH  12  13
ATOM     13  N   UNL     1       4.474   4.889  16.130  0.00  0.00    +0.000 NA
ATOM     14  H   UNL     1       3.838   4.844  16.928  0.00  0.00    +0.000 HD
ATOM     15  H   UNL     1       3.884   4.816  15.301  0.00  0.00    +0.000 HD
ENDBRANCH  12  13
ENDBRANCH  11  12
ENDBRANCH   6  11
ENDBRANCH   5   6
ENDBRANCH   3   5
ENDBRANCH   2   3
ENDBRANCH   1   2
BRANCH   1  16
ATOM     16  C   UNL     1       6.280   5.437  19.522  0.00  0.00    +0.000 C 
BRANCH  16  17
ATOM     17  N   UNL     1       5.556   4.266  19.077  0.00  0.00    +0.000 N 
ATOM     18  C   UNL     1       4.221   4.150  19.434  0.00  0.00    +0.000 A 
ATOM     19  N   UNL     1       3.576   5.181  19.956  0.00  0.00    +0.000 NA
ATOM     20  C   UNL     1       2.311   4.956  20.269  0.00  0.00    +0.000 A 
ATOM     21  N   UNL     1       1.608   5.992  20.856  0.00  0.00    +0.000 N 
ATOM     22  N   UNL     1       1.655   3.833  20.042  0.00  0.00    +0.000 NA
ATOM     23  C   UNL     1       2.379   2.877  19.486  0.00  0.00    +0.000 A 
ATOM     24  N   UNL     1       1.740   1.688  19.197  0.00  0.00    +0.000 N 
ATOM     25  N   UNL     1       3.670   2.964  19.214  0.00  0.00    +0.000 NA
ATOM     26  H   UNL     1       6.001   3.359  19.153  0.00  0.00    +0.000 HD
ATOM     27  H   UNL     1       2.029   6.876  20.614  0.00  0.00    +0.000 HD
ATOM     28  H   UNL     1       0.618   5.884  20.668  0.00  0.00    +0.000 HD
ATOM     29  H   UNL     1       0.915   1.577  19.771  0.00  0.00    +0.000 HD
ATOM     30  H   UNL     1       2.398   0.923  19.166  0.00  0.00    +0.000 HD
ENDBRANCH  16  17
ENDBRANCH   1  16
TORSDOF 11
ENDMDL
