MODEL 1
REMARK VINA RESULT:      -7.1      0.000      0.000
REMARK  Name = 
REMARK  11 active torsions:
REMARK  status: ('A' for Active; 'I' for Inactive)
REMARK    1  A    between atoms: C_1  and  C_2
REMARK    2  A    between atoms: C_2  and  C_3
REMARK    3  A    between atoms: C_3  and  C_4
REMARK    4  A    between atoms: C_4  and  C_5
REMARK    5  A    between atoms: C_5  and  C_6
REMARK    6  A    between atoms: C_6  and  O_7
REMARK    7  A    between atoms: C_6  and  C_8
REMARK    8  A    between atoms: C_9  and  C_10
REMARK    9  A    between atoms: C_11  and  C_12
REMARK   10  A    between atoms: C_12  and  O_13
REMARK   11  A    between atoms: C_12  and  C_14
REMARK                            x       y       z     vdW  Elec       q    Type
REMARK                         _______ _______ _______ _____ _____    ______ ____
ROOT
ATOM      1  C   UNL     1       5.980   4.567  15.907  0.00  0.00    +0.000 C 
ATOM      2  C   UNL     1       5.987   4.928  17.052  0.00  0.00    +0.000 C 
ENDROOT
BRANCH   1   4
ATOM      3  C   UNL     1       5.910   3.755  13.312  0.00  0.00    +0.000 C 
ATOM      4  C   UNL     1       5.914   4.120  14.453  0.00  0.00    +0.000 C 
BRANCH   3   5
ATOM      5  C   UNL     1       6.036   3.272  11.935  0.00  0.00    +0.000 C 
BRANCH   5   6
ATOM      6  O   UNL     1       6.963   2.194  11.900  0.00  0.00    +0.000 OA
ATOM      7  H   UNL     1       7.545   2.296  12.672  0.00  0.00    +0.000 HD
ENDBRANCH   5   6
BRANCH   5   8
ATOM      8  C   UNL     1       4.684   2.782  11.407  0.00  0.00    +0.000 C 
BRANCH   8   9
ATOM      9  C   UNL     1       3.821   3.926  10.872  0.00  0.00    +0.000 C 
BRANCH   9  10
ATOM     10  C   UNL     1       2.894   3.454   9.758  0.00  0.00    +0.000 C 
BRANCH  10  12
ATOM     11  C   UNL     1       1.720   5.447   8.778  0.00  0.00    +0.000 C 
ATOM     12  C   UNL     1       2.869   4.469   8.617  0.00  0.00    +0.000 C 
ENDBRANCH  10  12
ENDBRANCH   9  10
ENDBRANCH   8   9
ENDBRANCH   5   8
ENDBRANCH   3   5
ENDBRANCH   1   4
BRANCH   2  13
ATOM     13  C   UNL     1       5.897   5.392  18.439  0.00  0.00    +0.000 C 
BRANCH  13  14
ATOM     14  C   UNL     1       4.478   5.268  18.957  0.00  0.00    +0.000 A 
ATOM     15  C   UNL     1       4.144   4.196  19.818  0.00  0.00    +0.000 A 
ATOM     16  C   UNL     1       2.847   4.043  20.305  0.00  0.00    +0.000 A 
ATOM     17 CL   UNL     1       2.479   2.729  21.353  0.00  0.00    +0.000 Cl
ATOM     18  C   UNL     1       1.852   4.944  19.946  0.00  0.00    +0.000 A 
ATOM     19  C   UNL     1       2.158   6.000  19.088  0.00  0.00    +0.000 A 
ATOM     20  C   UNL     1       3.459   6.164  18.594  0.00  0.00    +0.000 A 
ATOM     21 CL   UNL     1       3.725   7.490  17.520  0.00  0.00    +0.000 Cl
ENDBRANCH  13  14
BRANCH  13  22
ATOM     22  O   UNL     1       6.767   4.624  19.269  0.00  0.00    +0.000 OA
ATOM     23  H   UNL     1       7.071   5.201  19.987  0.00  0.00    +0.000 HD
ENDBRANCH  13  22
ENDBRANCH   2  13
TORSDOF 10
ENDMDL
MODEL 2
REMARK VINA RESULT:      -6.8      1.893      2.722
REMARK  Name = 
REMARK  11 active torsions:
REMARK  status: ('A' for Active; 'I' for Inactive)
REMARK    1  A    between atoms: C_1  and  C_2
REMARK    2  A    between atoms: C_2  and  C_3
REMARK    3  A    between atoms: C_3  and  C_4
REMARK    4  A    between atoms: C_4  and  C_5
REMARK    5  A    between atoms: C_5  and  C_6
REMARK    6  A    between atoms: C_6  and  O_7
REMARK    7  A    between atoms: C_6  and  C_8
REMARK    8  A    between atoms: C_9  and  C_10
REMARK    9  A    between atoms: C_11  and  C_12
REMARK   10  A    between atoms: C_12  and  O_13
REMARK   11  A    between atoms: C_12  and  C_14
REMARK                            x       y       z     vdW  Elec       q    Type
REMARK                         _______ _______ _______ _____ _____    ______ ____
ROOT
ATOM      1  C   UNL     1       5.664   4.178  16.835  0.00  0.00    +0.000 C 
ATOM      2  C   UNL     1       5.298   4.008  17.966  0.00  0.00    +0.000 C 
ENDROOT
BRANCH   1   4
ATOM      3  C   UNL     1       6.578   4.619  14.311  0.00  0.00    +0.000 C 
ATOM      4  C   UNL     1       6.182   4.397  15.420  0.00  0.00    +0.000 C 
BRANCH   3   5
ATOM      5  C   UNL     1       7.030   5.020  12.977  0.00  0.00    +0.000 C 
BRANCH   5   6
ATOM      6  O   UNL     1       8.346   5.553  13.070  0.00  0.00    +0.000 OA
ATOM      7  H   UNL     1       8.838   4.985  13.686  0.00  0.00    +0.000 HD
ENDBRANCH   5   6
BRANCH   5   8
ATOM      8  C   UNL     1       7.047   3.819  12.027  0.00  0.00    +0.000 C 
BRANCH   8   9
ATOM      9  C   UNL     1       5.758   2.999  12.105  0.00  0.00    +0.000 C 
BRANCH   9  10
ATOM     10  C   UNL     1       4.542   3.830  11.711  0.00  0.00    +0.000 C 
BRANCH  10  12
ATOM     11  C   UNL     1       2.997   3.984   9.736  0.00  0.00    +0.000 C 
ATOM     12  C   UNL     1       3.657   3.053  10.737  0.00  0.00    +0.000 C 
ENDBRANCH  10  12
ENDBRANCH   9  10
ENDBRANCH   8   9
ENDBRANCH   5   8
ENDBRANCH   3   5
ENDBRANCH   1   4
BRANCH   2  13
ATOM     13  C   UNL     1       4.951   3.802  19.374  0.00  0.00    +0.000 C 
BRANCH  13  14
ATOM     14  C   UNL     1       3.477   4.065  19.609  0.00  0.00    +0.000 A 
ATOM     15  C   UNL     1       3.074   5.289  20.193  0.00  0.00    +0.000 A 
ATOM     16  C   UNL     1       1.729   5.562  20.436  0.00  0.00    +0.000 A 
ATOM     17 CL   UNL     1       1.276   7.062  21.144  0.00  0.00    +0.000 Cl
ATOM     18  C   UNL     1       0.754   4.626  20.112  0.00  0.00    +0.000 A 
ATOM     19  C   UNL     1       1.132   3.408  19.547  0.00  0.00    +0.000 A 
ATOM     20  C   UNL     1       2.481   3.124  19.298  0.00  0.00    +0.000 A 
ATOM     21 CL   UNL     1       2.841   1.578  18.618  0.00  0.00    +0.000 Cl
ENDBRANCH  13  14
BRANCH  13  22
ATOM     22  O   UNL     1       5.254   2.462  19.761  0.00  0.00    +0.000 OA
ATOM     23  H   UNL     1       6.198   2.315  19.593  0.00  0.00    +0.000 HD
ENDBRANCH  13  22
ENDBRANCH   2  13
TORSDOF 10
ENDMDL
MODEL 3
REMARK VINA RESULT:      -6.8      1.338      1.967
REMARK  Name = 
REMARK  11 active torsions:
REMARK  status: ('A' for Active; 'I' for Inactive)
REMARK    1  A    between atoms: C_1  and  C_2
REMARK    2  A    between atoms: C_2  and  C_3
REMARK    3  A    between atoms: C_3  and  C_4
REMARK    4  A    between atoms: C_4  and  C_5
REMARK    5  A    between atoms: C_5  and  C_6
REMARK    6  A    between atoms: C_6  and  O_7
REMARK    7  A    between atoms: C_6  and  C_8
REMARK    8  A    between atoms: C_9  and  C_10
REMARK    9  A    between atoms: C_11  and  C_12
REMARK   10  A    between atoms: C_12  and  O_13
REMARK   11  A    between atoms: C_12  and  C_14
REMARK                            x       y       z     vdW  Elec       q    Type
REMARK                         _______ _______ _______ _____ _____    ______ ____
ROOT
ATOM      1  C   UNL     1       6.089   4.370  15.454  0.00  0.00    +0.000 C 
ATOM      2  C   UNL     1       6.002   4.680  16.611  0.00  0.00    +0.000 C 
ENDROOT
BRANCH   1   4
ATOM      3  C   UNL     1       6.209   3.557  12.861  0.00  0.00    +0.000 C 
ATOM      4  C   UNL     1       6.153   3.943  13.994  0.00  0.00    +0.000 C 
BRANCH   3   5
ATOM      5  C   UNL     1       6.291   2.961  11.526  0.00  0.00    +0.000 C 
BRANCH   5   6
ATOM      6  O   UNL     1       7.232   1.894  11.547  0.00  0.00    +0.000 OA
ATOM      7  H   UNL     1       7.600   1.824  10.650  0.00  0.00    +0.000 HD
ENDBRANCH   5   6
BRANCH   5   8
ATOM      8  C   UNL     1       4.928   2.414  11.092  0.00  0.00    +0.000 C 
BRANCH   8   9
ATOM      9  C   UNL     1       3.795   3.410  11.346  0.00  0.00    +0.000 C 
BRANCH   9  10
ATOM     10  C   UNL     1       2.784   3.410  10.206  0.00  0.00    +0.000 C 
BRANCH  10  12
ATOM     11  C   UNL     1       1.933   5.240   8.711  0.00  0.00    +0.000 C 
ATOM     12  C   UNL     1       3.155   4.462   9.162  0.00  0.00    +0.000 C 
ENDBRANCH  10  12
ENDBRANCH   9  10
ENDBRANCH   8   9
ENDBRANCH   5   8
ENDBRANCH   3   5
ENDBRANCH   1   4
BRANCH   2  13
ATOM     13  C   UNL     1       5.812   4.998  18.028  0.00  0.00    +0.000 C 
BRANCH  13  14
ATOM     14  C   UNL     1       4.338   5.070  18.372  0.00  0.00    +0.000 A 
ATOM     15  C   UNL     1       3.800   6.274  18.882  0.00  0.00    +0.000 A 
ATOM     16  C   UNL     1       2.452   6.374  19.221  0.00  0.00    +0.000 A 
ATOM     17 CL   UNL     1       1.833   7.857  19.834  0.00  0.00    +0.000 Cl
ATOM     18  C   UNL     1       1.608   5.281  19.067  0.00  0.00    +0.000 A 
ATOM     19  C   UNL     1       2.121   4.080  18.578  0.00  0.00    +0.000 A 
ATOM     20  C   UNL     1       3.475   3.969  18.233  0.00  0.00    +0.000 A 
ATOM     21 CL   UNL     1       4.012   2.432  17.660  0.00  0.00    +0.000 Cl
ENDBRANCH  13  14
BRANCH  13  22
ATOM     22  O   UNL     1       6.434   4.004  18.840  0.00  0.00    +0.000 OA
ATOM     23  H   UNL     1       7.392   4.146  18.796  0.00  0.00    +0.000 HD
ENDBRANCH  13  22
ENDBRANCH   2  13
TORSDOF 10
ENDMDL
MODEL 4
REMARK VINA RESULT:      -6.8      2.009      3.365
REMARK  Name = 
REMARK  11 active torsions:
REMARK  status: ('A' for Active; 'I' for Inactive)
REMARK    1  A    between atoms: C_1  and  C_2
REMARK    2  A    between atoms: C_2  and  C_3
REMARK    3  A    between atoms: C_3  and  C_4
REMARK    4  A    between atoms: C_4  and  C_5
REMARK    5  A    between atoms: C_5  and  C_6
REMARK    6  A    between atoms: C_6  and  O_7
REMARK    7  A    between atoms: C_6  and  C_8
REMARK    8  A    between atoms: C_9  and  C_10
REMARK    9  A    between atoms: C_11  and  C_12
REMARK   10  A    between atoms: C_12  and  O_13
REMARK   11  A    between atoms: C_12  and  C_14
REMARK                            x       y       z     vdW  Elec       q    Type
REMARK                         _______ _______ _______ _____ _____    ______ ____
ROOT
ATOM      1  C   UNL     1       4.557   4.102  16.346  0.00  0.00    +0.000 C 
ATOM      2  C   UNL     1       3.831   3.900  17.281  0.00  0.00    +0.000 C 
ENDROOT
BRANCH   1   4
ATOM      3  C   UNL     1       6.231   4.657  14.275  0.00  0.00    +0.000 C 
ATOM      4  C   UNL     1       5.510   4.391  15.195  0.00  0.00    +0.000 C 
BRANCH   3   5
ATOM      5  C   UNL     1       7.029   5.085  13.124  0.00  0.00    +0.000 C 
BRANCH   5   6
ATOM      6  O   UNL     1       8.326   5.463  13.568  0.00  0.00    +0.000 OA
ATOM      7  H   UNL     1       8.553   6.289  13.108  0.00  0.00    +0.000 HD
ENDBRANCH   5   6
BRANCH   5   8
ATOM      8  C   UNL     1       7.164   3.949  12.106  0.00  0.00    +0.000 C 
BRANCH   8   9
ATOM      9  C   UNL     1       6.145   2.833  12.343  0.00  0.00    +0.000 C 
BRANCH   9  10
ATOM     10  C   UNL     1       5.229   2.645  11.139  0.00  0.00    +0.000 C 
BRANCH  10  12
ATOM     11  C   UNL     1       3.254   3.737  10.036  0.00  0.00    +0.000 C 
ATOM     12  C   UNL     1       3.902   3.369  11.358  0.00  0.00    +0.000 C 
ENDBRANCH  10  12
ENDBRANCH   9  10
ENDBRANCH   8   9
ENDBRANCH   5   8
ENDBRANCH   3   5
ENDBRANCH   1   4
BRANCH   2  13
ATOM     13  C   UNL     1       3.011   3.707  18.479  0.00  0.00    +0.000 C 
BRANCH  13  14
ATOM     14  C   UNL     1       2.584   5.040  19.061  0.00  0.00    +0.000 A 
ATOM     15  C   UNL     1       2.658   6.203  18.260  0.00  0.00    +0.000 A 
ATOM     16  C   UNL     1       2.285   7.449  18.764  0.00  0.00    +0.000 A 
ATOM     17 CL   UNL     1       2.385   8.841  17.759  0.00  0.00    +0.000 Cl
ATOM     18  C   UNL     1       1.836   7.569  20.073  0.00  0.00    +0.000 A 
ATOM     19  C   UNL     1       1.768   6.436  20.883  0.00  0.00    +0.000 A 
ATOM     20  C   UNL     1       2.139   5.179  20.387  0.00  0.00    +0.000 A 
ATOM     21 CL   UNL     1       2.039   3.846  21.480  0.00  0.00    +0.000 Cl
ENDBRANCH  13  14
BRANCH  13  22
ATOM     22  O   UNL     1       1.850   2.943  18.160  0.00  0.00    +0.000 OA
ATOM     23  H   UNL     1       1.554   3.215  17.276  0.00  0.00    +0.000 HD
ENDBRANCH  13  22
ENDBRANCH   2  13
TORSDOF 10
ENDMDL
MODEL 5
REMARK VINA RESULT:      -6.6      5.782      8.947
REMARK  Name = 
REMARK  11 active torsions:
REMARK  status: ('A' for Active; 'I' for Inactive)
REMARK    1  A    between atoms: C_1  and  C_2
REMARK    2  A    between atoms: C_2  and  C_3
REMARK    3  A    between atoms: C_3  and  C_4
REMARK    4  A    between atoms: C_4  and  C_5
REMARK    5  A    between atoms: C_5  and  C_6
REMARK    6  A    between atoms: C_6  and  O_7
REMARK    7  A    between atoms: C_6  and  C_8
REMARK    8  A    between atoms: C_9  and  C_10
REMARK    9  A    between atoms: C_11  and  C_12
REMARK   10  A    between atoms: C_12  and  O_13
REMARK   11  A    between atoms: C_12  and  C_14
REMARK                            x       y       z     vdW  Elec       q    Type
REMARK                         _______ _______ _______ _____ _____    ______ ____
ROOT
ATOM      1  C   UNL     1       7.780   8.430  17.855  0.00  0.00    +0.000 C 
ATOM      2  C   UNL     1       7.091   7.530  17.461  0.00  0.00    +0.000 C 
ENDROOT
BRANCH   1   4
ATOM      3  C   UNL     1       9.378  10.409  18.820  0.00  0.00    +0.000 C 
ATOM      4  C   UNL     1       8.693   9.532  18.374  0.00  0.00    +0.000 C 
BRANCH   3   5
ATOM      5  C   UNL     1      10.122  11.496  19.462  0.00  0.00    +0.000 C 
BRANCH   5   6
ATOM      6  O   UNL     1      10.173  11.262  20.864  0.00  0.00    +0.000 OA
ATOM      7  H   UNL     1      11.035  10.853  21.051  0.00  0.00    +0.000 HD
ENDBRANCH   5   6
BRANCH   5   8
ATOM      8  C   UNL     1      11.551  11.569  18.917  0.00  0.00    +0.000 C 
BRANCH   8   9
ATOM      9  C   UNL     1      11.858  12.923  18.274  0.00  0.00    +0.000 C 
BRANCH   9  10
ATOM     10  C   UNL     1      10.732  13.372  17.351  0.00  0.00    +0.000 C 
BRANCH  10  12
ATOM     11  C   UNL     1       8.760  14.736  18.099  0.00  0.00    +0.000 C 
ATOM     12  C   UNL     1      10.236  14.761  17.749  0.00  0.00    +0.000 C 
ENDBRANCH  10  12
ENDBRANCH   9  10
ENDBRANCH   8   9
ENDBRANCH   5   8
ENDBRANCH   3   5
ENDBRANCH   1   4
BRANCH   2  13
ATOM     13  C   UNL     1       6.323   6.367  17.010  0.00  0.00    +0.000 C 
BRANCH  13  14
ATOM     14  C   UNL     1       4.938   6.364  17.626  0.00  0.00    +0.000 A 
ATOM     15  C   UNL     1       4.077   7.464  17.406  0.00  0.00    +0.000 A 
ATOM     16  C   UNL     1       2.801   7.502  17.966  0.00  0.00    +0.000 A 
ATOM     17 CL   UNL     1       1.780   8.855  17.673  0.00  0.00    +0.000 Cl
ATOM     18  C   UNL     1       2.352   6.454  18.760  0.00  0.00    +0.000 A 
ATOM     19  C   UNL     1       3.191   5.366  19.000  0.00  0.00    +0.000 A 
ATOM     20  C   UNL     1       4.475   5.317  18.441  0.00  0.00    +0.000 A 
ATOM     21 CL   UNL     1       5.440   3.936  18.819  0.00  0.00    +0.000 Cl
ENDBRANCH  13  14
BRANCH  13  22
ATOM     22  O   UNL     1       6.202   6.382  15.588  0.00  0.00    +0.000 OA
ATOM     23  H   UNL     1       6.932   5.855  15.227  0.00  0.00    +0.000 HD
ENDBRANCH  13  22
ENDBRANCH   2  13
TORSDOF 10
ENDMDL
MODEL 6
REMARK VINA RESULT:      -6.5      5.993      9.344
REMARK  Name = 
REMARK  11 active torsions:
REMARK  status: ('A' for Active; 'I' for Inactive)
REMARK    1  A    between atoms: C_1  and  C_2
REMARK    2  A    between atoms: C_2  and  C_3
REMARK    3  A    between atoms: C_3  and  C_4
REMARK    4  A    between atoms: C_4  and  C_5
REMARK    5  A    between atoms: C_5  and  C_6
REMARK    6  A    between atoms: C_6  and  O_7
REMARK    7  A    between atoms: C_6  and  C_8
REMARK    8  A    between atoms: C_9  and  C_10
REMARK    9  A    between atoms: C_11  and  C_12
REMARK   10  A    between atoms: C_12  and  O_13
REMARK   11  A    between atoms: C_12  and  C_14
REMARK                            x       y       z     vdW  Elec       q    Type
REMARK                         _______ _______ _______ _____ _____    ______ ____
ROOT
ATOM      1  C   UNL     1       7.863   7.783  17.977  0.00  0.00    +0.000 C 
ATOM      2  C   UNL     1       7.447   6.657  17.928  0.00  0.00    +0.000 C 
ENDROOT
BRANCH   1   4
ATOM      3  C   UNL     1       8.935  10.278  18.140  0.00  0.00    +0.000 C 
ATOM      4  C   UNL     1       8.436   9.190  18.070  0.00  0.00    +0.000 C 
BRANCH   3   5
ATOM      5  C   UNL     1       9.664  11.546  18.214  0.00  0.00    +0.000 C 
BRANCH   5   6
ATOM      6  O   UNL     1      10.862  11.441  17.454  0.00  0.00    +0.000 OA
ATOM      7  H   UNL     1      10.621  11.043  16.600  0.00  0.00    +0.000 HD
ENDBRANCH   5   6
BRANCH   5   8
ATOM      8  C   UNL     1       8.817  12.691  17.651  0.00  0.00    +0.000 C 
BRANCH   8   9
ATOM      9  C   UNL     1       8.656  13.838  18.650  0.00  0.00    +0.000 C 
BRANCH   9  10
ATOM     10  C   UNL     1      10.003  14.437  19.038  0.00  0.00    +0.000 C 
BRANCH  10  12
ATOM     11  C   UNL     1       9.799  16.373  17.451  0.00  0.00    +0.000 C 
ATOM     12  C   UNL     1      10.626  15.165  17.848  0.00  0.00    +0.000 C 
ENDBRANCH  10  12
ENDBRANCH   9  10
ENDBRANCH   8   9
ENDBRANCH   5   8
ENDBRANCH   3   5
ENDBRANCH   1   4
BRANCH   2  13
ATOM     13  C   UNL     1       7.024   5.255  17.918  0.00  0.00    +0.000 C 
BRANCH  13  14
ATOM     14  C   UNL     1       6.586   4.835  16.529  0.00  0.00    +0.000 A 
ATOM     15  C   UNL     1       7.374   5.196  15.412  0.00  0.00    +0.000 A 
ATOM     16  C   UNL     1       6.997   4.838  14.118  0.00  0.00    +0.000 A 
ATOM     17 CL   UNL     1       7.984   5.291  12.785  0.00  0.00    +0.000 Cl
ATOM     18  C   UNL     1       5.827   4.119  13.903  0.00  0.00    +0.000 A 
ATOM     19  C   UNL     1       5.029   3.765  14.990  0.00  0.00    +0.000 A 
ATOM     20  C   UNL     1       5.399   4.119  16.294  0.00  0.00    +0.000 A 
ATOM     21 CL   UNL     1       4.328   3.651  17.565  0.00  0.00    +0.000 Cl
ENDBRANCH  13  14
BRANCH  13  22
ATOM     22  O   UNL     1       8.098   4.417  18.342  0.00  0.00    +0.000 OA
ATOM     23  H   UNL     1       8.237   3.748  17.652  0.00  0.00    +0.000 HD
ENDBRANCH  13  22
ENDBRANCH   2  13
TORSDOF 10
ENDMDL
MODEL 7
REMARK VINA RESULT:      -6.5      5.197      7.585
REMARK  Name = 
REMARK  11 active torsions:
REMARK  status: ('A' for Active; 'I' for Inactive)
REMARK    1  A    between atoms: C_1  and  C_2
REMARK    2  A    between atoms: C_2  and  C_3
REMARK    3  A    between atoms: C_3  and  C_4
REMARK    4  A    between atoms: C_4  and  C_5
REMARK    5  A    between atoms: C_5  and  C_6
REMARK    6  A    between atoms: C_6  and  O_7
REMARK    7  A    between atoms: C_6  and  C_8
REMARK    8  A    between atoms: C_9  and  C_10
REMARK    9  A    between atoms: C_11  and  C_12
REMARK   10  A    between atoms: C_12  and  O_13
REMARK   11  A    between atoms: C_12  and  C_14
REMARK                            x       y       z     vdW  Elec       q    Type
REMARK                         _______ _______ _______ _____ _____    ______ ____
ROOT
ATOM      1  C   UNL     1       2.382   8.072  18.100  0.00  0.00    +0.000 C 
ATOM      2  C   UNL     1       1.901   9.172  18.119  0.00  0.00    +0.000 C 
ENDROOT
BRANCH   1   4
ATOM      3  C   UNL     1       3.409   5.558  17.934  0.00  0.00    +0.000 C 
ATOM      4  C   UNL     1       2.953   6.662  18.036  0.00  0.00    +0.000 C 
BRANCH   3   5
ATOM      5  C   UNL     1       3.980   4.234  17.678  0.00  0.00    +0.000 C 
BRANCH   5   6
ATOM      6  O   UNL     1       4.755   3.834  18.802  0.00  0.00    +0.000 OA
ATOM      7  H   UNL     1       4.161   3.342  19.394  0.00  0.00    +0.000 HD
ENDBRANCH   5   6
BRANCH   5   8
ATOM      8  C   UNL     1       2.872   3.202  17.446  0.00  0.00    +0.000 C 
BRANCH   8   9
ATOM      9  C   UNL     1       1.506   3.700  17.921  0.00  0.00    +0.000 C 
BRANCH   9  10
ATOM     10  C   UNL     1       1.048   2.969  19.177  0.00  0.00    +0.000 C 
BRANCH  10  12
ATOM     11  C   UNL     1       2.143   3.937  21.221  0.00  0.00    +0.000 C 
ATOM     12  C   UNL     1       0.905   3.948  20.342  0.00  0.00    +0.000 C 
ENDBRANCH  10  12
ENDBRANCH   9  10
ENDBRANCH   8   9
ENDBRANCH   5   8
ENDBRANCH   3   5
ENDBRANCH   1   4
BRANCH   2  13
ATOM     13  C   UNL     1       1.253  10.484  18.065  0.00  0.00    +0.000 C 
BRANCH  13  14
ATOM     14  C   UNL     1       0.477  10.754  19.339  0.00  0.00    +0.000 A 
ATOM     15  C   UNL     1       0.799  10.036  20.515  0.00  0.00    +0.000 A 
ATOM     16  C   UNL     1       0.100  10.249  21.702  0.00  0.00    +0.000 A 
ATOM     17 CL   UNL     1       0.523   9.360  23.112  0.00  0.00    +0.000 Cl
ATOM     18  C   UNL     1      -0.936  11.173  21.749  0.00  0.00    +0.000 A 
ATOM     19  C   UNL     1      -1.278  11.882  20.597  0.00  0.00    +0.000 A 
ATOM     20  C   UNL     1      -0.581  11.677  19.399  0.00  0.00    +0.000 A 
ATOM     21 CL   UNL     1      -1.099  12.589  18.028  0.00  0.00    +0.000 Cl
ENDBRANCH  13  14
BRANCH  13  22
ATOM     22  O   UNL     1       2.232  11.507  17.889  0.00  0.00    +0.000 OA
ATOM     23  H   UNL     1       2.184  11.802  16.966  0.00  0.00    +0.000 HD
ENDBRANCH  13  22
ENDBRANCH   2  13
TORSDOF 10
ENDMDL
MODEL 8
REMARK VINA RESULT:      -6.5      5.881      8.847
REMARK  Name = 
REMARK  11 active torsions:
REMARK  status: ('A' for Active; 'I' for Inactive)
REMARK    1  A    between atoms: C_1  and  C_2
REMARK    2  A    between atoms: C_2  and  C_3
REMARK    3  A    between atoms: C_3  and  C_4
REMARK    4  A    between atoms: C_4  and  C_5
REMARK    5  A    between atoms: C_5  and  C_6
REMARK    6  A    between atoms: C_6  and  O_7
REMARK    7  A    between atoms: C_6  and  C_8
REMARK    8  A    between atoms: C_9  and  C_10
REMARK    9  A    between atoms: C_11  and  C_12
REMARK   10  A    between atoms: C_12  and  O_13
REMARK   11  A    between atoms: C_12  and  C_14
REMARK                            x       y       z     vdW  Elec       q    Type
REMARK                         _______ _______ _______ _____ _____    ______ ____
ROOT
ATOM      1  C   UNL     1       7.658   7.934  17.641  0.00  0.00    +0.000 C 
ATOM      2  C   UNL     1       7.019   7.002  17.232  0.00  0.00    +0.000 C 
ENDROOT
BRANCH   1   4
ATOM      3  C   UNL     1       8.989  10.132  18.531  0.00  0.00    +0.000 C 
ATOM      4  C   UNL     1       8.428   9.150  18.135  0.00  0.00    +0.000 C 
BRANCH   3   5
ATOM      5  C   UNL     1       9.553  11.389  19.030  0.00  0.00    +0.000 C 
BRANCH   5   6
ATOM      6  O   UNL     1      10.939  11.207  19.293  0.00  0.00    +0.000 OA
ATOM      7  H   UNL     1      11.005  10.677  20.105  0.00  0.00    +0.000 HD
ENDBRANCH   5   6
BRANCH   5   8
ATOM      8  C   UNL     1       9.386  12.506  17.995  0.00  0.00    +0.000 C 
BRANCH   8   9
ATOM      9  C   UNL     1      10.686  12.800  17.244  0.00  0.00    +0.000 C 
BRANCH   9  10
ATOM     10  C   UNL     1      11.062  14.275  17.333  0.00  0.00    +0.000 C 
BRANCH  10  12
ATOM     11  C   UNL     1       9.521  16.246  17.552  0.00  0.00    +0.000 C 
ATOM     12  C   UNL     1      10.089  15.021  18.244  0.00  0.00    +0.000 C 
ENDBRANCH  10  12
ENDBRANCH   9  10
ENDBRANCH   8   9
ENDBRANCH   5   8
ENDBRANCH   3   5
ENDBRANCH   1   4
BRANCH   2  13
ATOM     13  C   UNL     1       6.171   5.934  16.699  0.00  0.00    +0.000 C 
BRANCH  13  14
ATOM     14  C   UNL     1       4.750   6.068  17.209  0.00  0.00    +0.000 A 
ATOM     15  C   UNL     1       4.180   7.355  17.347  0.00  0.00    +0.000 A 
ATOM     16  C   UNL     1       2.881   7.520  17.824  0.00  0.00    +0.000 A 
ATOM     17 CL   UNL     1       2.220   9.100  17.974  0.00  0.00    +0.000 Cl
ATOM     18  C   UNL     1       2.120   6.413  18.179  0.00  0.00    +0.000 A 
ATOM     19  C   UNL     1       2.668   5.136  18.063  0.00  0.00    +0.000 A 
ATOM     20  C   UNL     1       3.973   4.960  17.584  0.00  0.00    +0.000 A 
ATOM     21 CL   UNL     1       4.562   3.339  17.501  0.00  0.00    +0.000 Cl
ENDBRANCH  13  14
BRANCH  13  22
ATOM     22  O   UNL     1       6.162   5.981  15.273  0.00  0.00    +0.000 OA
ATOM     23  H   UNL     1       5.240   5.899  14.983  0.00  0.00    +0.000 HD
ENDBRANCH  13  22
ENDBRANCH   2  13
TORSDOF 10
ENDMDL
MODEL 9
REMARK VINA RESULT:      -6.5      5.333      8.957
REMARK  Name = 
REMARK  11 active torsions:
REMARK  status: ('A' for Active; 'I' for Inactive)
REMARK    1  A    between atoms: C_1  and  C_2
REMARK    2  A    between atoms: C_2  and  C_3
REMARK    3  A    between atoms: C_3  and  C_4
REMARK    4  A    between atoms: C_4  and  C_5
REMARK    5  A    between atoms: C_5  and  C_6
REMARK    6  A    between atoms: C_6  and  O_7
REMARK    7  A    between atoms: C_6  and  C_8
REMARK    8  A    between atoms: C_9  and  C_10
REMARK    9  A    between atoms: C_11  and  C_12
REMARK   10  A    between atoms: C_12  and  O_13
REMARK   11  A    between atoms: C_12  and  C_14
REMARK                            x       y       z     vdW  Elec       q    Type
REMARK                         _______ _______ _______ _____ _____    ______ ____
ROOT
ATOM      1  C   UNL     1       7.750   7.243  17.991  0.00  0.00    +0.000 C 
ATOM      2  C   UNL     1       7.331   6.120  17.926  0.00  0.00    +0.000 C 
ENDROOT
BRANCH   1   4
ATOM      3  C   UNL     1       8.789   9.744  18.245  0.00  0.00    +0.000 C 
ATOM      4  C   UNL     1       8.306   8.654  18.125  0.00  0.00    +0.000 C 
BRANCH   3   5
ATOM      5  C   UNL     1       9.493  11.015  18.430  0.00  0.00    +0.000 C 
BRANCH   5   6
ATOM      6  O   UNL     1       8.680  12.075  17.942  0.00  0.00    +0.000 OA
ATOM      7  H   UNL     1       8.058  11.685  17.305  0.00  0.00    +0.000 HD
ENDBRANCH   5   6
BRANCH   5   8
ATOM      8  C   UNL     1       9.791  11.259  19.912  0.00  0.00    +0.000 C 
BRANCH   8   9
ATOM      9  C   UNL     1      10.980  12.200  20.118  0.00  0.00    +0.000 C 
BRANCH   9  10
ATOM     10  C   UNL     1      10.562  13.483  20.827  0.00  0.00    +0.000 C 
BRANCH  10  12
ATOM     11  C   UNL     1       9.094  14.451  22.620  0.00  0.00    +0.000 C 
ATOM     12  C   UNL     1       9.480  13.192  21.865  0.00  0.00    +0.000 C 
ENDBRANCH  10  12
ENDBRANCH   9  10
ENDBRANCH   8   9
ENDBRANCH   5   8
ENDBRANCH   3   5
ENDBRANCH   1   4
BRANCH   2  13
ATOM     13  C   UNL     1       6.869   4.730  17.934  0.00  0.00    +0.000 C 
BRANCH  13  14
ATOM     14  C   UNL     1       5.378   4.659  18.198  0.00  0.00    +0.000 A 
ATOM     15  C   UNL     1       4.898   3.863  19.264  0.00  0.00    +0.000 A 
ATOM     16  C   UNL     1       3.533   3.764  19.530  0.00  0.00    +0.000 A 
ATOM     17 CL   UNL     1       2.987   2.789  20.838  0.00  0.00    +0.000 Cl
ATOM     18  C   UNL     1       2.614   4.446  18.743  0.00  0.00    +0.000 A 
ATOM     19  C   UNL     1       3.066   5.226  17.678  0.00  0.00    +0.000 A 
ATOM     20  C   UNL     1       4.436   5.334  17.403  0.00  0.00    +0.000 A 
ATOM     21 CL   UNL     1       4.887   6.306  16.049  0.00  0.00    +0.000 Cl
ENDBRANCH  13  14
BRANCH  13  22
ATOM     22  O   UNL     1       7.150   4.113  16.679  0.00  0.00    +0.000 OA
ATOM     23  H   UNL     1       6.507   4.451  16.036  0.00  0.00    +0.000 HD
ENDBRANCH  13  22
ENDBRANCH   2  13
TORSDOF 10
ENDMDL
