MODEL 1
REMARK VINA RESULT:      -7.5      0.000      0.000
REMARK  Name = 
REMARK  10 active torsions:
REMARK  status: ('A' for Active; 'I' for Inactive)
REMARK    1  A    between atoms: C_1  and  O_2
REMARK    2  A    between atoms: O_2  and  C_3
REMARK    3  A    between atoms: C_6  and  C_7
REMARK    4  A    between atoms: C_7  and  N_8
REMARK    5  A    between atoms: C_12  and  S_13
REMARK    6  A    between atoms: S_13  and  C_14
REMARK    7  A    between atoms: C_14  and  C_15
REMARK    8  A    between atoms: N_17  and  C_18
REMARK    9  A    between atoms: C_23  and  O_24
REMARK   10  A    between atoms: O_24  and  C_25
REMARK                            x       y       z     vdW  Elec       q    Type
REMARK                         _______ _______ _______ _____ _____    ______ ____
ROOT
ATOM      1  N   UNL     1       3.041   3.502  19.298  0.00  0.00    +0.000 N 
ATOM      2  C   UNL     1       3.052   2.896  20.534  0.00  0.00    +0.000 A 
ATOM      3  C   UNL     1       2.215   3.652  21.318  0.00  0.00    +0.000 A 
ATOM      4  N   UNL     1       1.753   4.744  20.623  0.00  0.00    +0.000 NA
ATOM      5  C   UNL     1       2.230   4.605  19.409  0.00  0.00    +0.000 A 
ENDROOT
BRANCH   1   6
ATOM      6  C   UNL     1       3.842   3.082  18.160  0.00  0.00    +0.000 C 
BRANCH   6  10
ATOM      7  C   UNL     1       6.823   6.001  16.997  0.00  0.00    +0.000 A 
ATOM      8  C   UNL     1       6.719   5.584  18.321  0.00  0.00    +0.000 A 
ATOM      9  C   UNL     1       5.760   4.641  18.696  0.00  0.00    +0.000 A 
ATOM     10  C   UNL     1       4.866   4.117  17.753  0.00  0.00    +0.000 A 
ATOM     11  C   UNL     1       4.950   4.572  16.428  0.00  0.00    +0.000 A 
ATOM     12  C   UNL     1       5.925   5.505  16.052  0.00  0.00    +0.000 A 
BRANCH   7  14
ATOM     13  C   UNL     1       7.750   8.105  17.532  0.00  0.00    +0.000 C 
ATOM     14  O   UNL     1       7.806   6.919  16.749  0.00  0.00    +0.000 OA
ENDBRANCH   7  14
ENDBRANCH   6  10
ENDBRANCH   1   6
BRANCH   5  15
ATOM     15  S   UNL     1       1.849   5.639  18.075  0.00  0.00    +0.000 S 
BRANCH  15  16
ATOM     16  C   UNL     1       2.936   7.044  18.386  0.00  0.00    +0.000 C 
BRANCH  16  17
ATOM     17  C   UNL     1       2.152   8.349  18.381  0.00  0.00    +0.000 C 
ATOM     18  O   UNL     1       2.229   9.150  17.453  0.00  0.00    +0.000 OA
ATOM     19  N   UNL     1       1.393   8.517  19.528  0.00  0.00    +0.000 N 
ATOM     20  H   UNL     1       1.816   8.103  20.354  0.00  0.00    +0.000 HD
BRANCH  19  21
ATOM     21  C   UNL     1       0.586   9.652  19.758  0.00  0.00    +0.000 A 
ATOM     22  C   UNL     1      -0.101  10.135  18.634  0.00  0.00    +0.000 A 
ATOM     23  C   UNL     1      -0.999  11.199  18.737  0.00  0.00    +0.000 A 
ATOM     24  C   UNL     1      -1.191  11.822  19.964  0.00  0.00    +0.000 A 
ATOM     25  C   UNL     1      -0.485  11.379  21.083  0.00  0.00    +0.000 A 
ATOM     26  C   UNL     1       0.412  10.301  20.994  0.00  0.00    +0.000 A 
BRANCH  26  27
ATOM     27  O   UNL     1       1.018  10.004  22.187  0.00  0.00    +0.000 OA
ATOM     28  C   UNL     1       0.164   9.515  23.213  0.00  0.00    +0.000 C 
ENDBRANCH  26  27
ENDBRANCH  19  21
ENDBRANCH  16  17
ENDBRANCH  15  16
ENDBRANCH   5  15
TORSDOF 8
ENDMDL
MODEL 2
REMARK VINA RESULT:      -7.5      2.291      3.456
REMARK  Name = 
REMARK  10 active torsions:
REMARK  status: ('A' for Active; 'I' for Inactive)
REMARK    1  A    between atoms: C_1  and  O_2
REMARK    2  A    between atoms: O_2  and  C_3
REMARK    3  A    between atoms: C_6  and  C_7
REMARK    4  A    between atoms: C_7  and  N_8
REMARK    5  A    between atoms: C_12  and  S_13
REMARK    6  A    between atoms: S_13  and  C_14
REMARK    7  A    between atoms: C_14  and  C_15
REMARK    8  A    between atoms: N_17  and  C_18
REMARK    9  A    between atoms: C_23  and  O_24
REMARK   10  A    between atoms: O_24  and  C_25
REMARK                            x       y       z     vdW  Elec       q    Type
REMARK                         _______ _______ _______ _____ _____    ______ ____
ROOT
ATOM      1  N   UNL     1       3.921   3.353  18.431  0.00  0.00    +0.000 N 
ATOM      2  C   UNL     1       3.344   3.010  17.229  0.00  0.00    +0.000 A 
ATOM      3  C   UNL     1       2.359   2.105  17.543  0.00  0.00    +0.000 A 
ATOM      4  N   UNL     1       2.367   1.826  18.889  0.00  0.00    +0.000 NA
ATOM      5  C   UNL     1       3.281   2.617  19.398  0.00  0.00    +0.000 A 
ENDROOT
BRANCH   1   6
ATOM      6  C   UNL     1       5.061   4.242  18.580  0.00  0.00    +0.000 C 
BRANCH   6  10
ATOM      7  C   UNL     1       6.770   5.353  14.759  0.00  0.00    +0.000 A 
ATOM      8  C   UNL     1       7.501   4.591  15.667  0.00  0.00    +0.000 A 
ATOM      9  C   UNL     1       6.949   4.230  16.898  0.00  0.00    +0.000 A 
ATOM     10  C   UNL     1       5.661   4.651  17.254  0.00  0.00    +0.000 A 
ATOM     11  C   UNL     1       4.946   5.452  16.351  0.00  0.00    +0.000 A 
ATOM     12  C   UNL     1       5.495   5.798  15.110  0.00  0.00    +0.000 A 
BRANCH   7  14
ATOM     13  C   UNL     1       7.363   4.609  12.598  0.00  0.00    +0.000 C 
ATOM     14  O   UNL     1       7.411   5.633  13.584  0.00  0.00    +0.000 OA
ENDBRANCH   7  14
ENDBRANCH   6  10
ENDBRANCH   1   6
BRANCH   5  15
ATOM     15  S   UNL     1       3.619   2.777  21.088  0.00  0.00    +0.000 S 
BRANCH  15  16
ATOM     16  C   UNL     1       2.085   3.508  21.695  0.00  0.00    +0.000 C 
BRANCH  16  17
ATOM     17  C   UNL     1       1.612   4.621  20.771  0.00  0.00    +0.000 C 
ATOM     18  O   UNL     1       0.607   4.505  20.075  0.00  0.00    +0.000 OA
ATOM     19  N   UNL     1       2.447   5.727  20.800  0.00  0.00    +0.000 N 
ATOM     20  H   UNL     1       3.422   5.490  20.963  0.00  0.00    +0.000 HD
BRANCH  19  21
ATOM     21  C   UNL     1       2.221   6.883  20.022  0.00  0.00    +0.000 A 
ATOM     22  C   UNL     1       2.695   6.817  18.703  0.00  0.00    +0.000 A 
ATOM     23  C   UNL     1       2.464   7.856  17.799  0.00  0.00    +0.000 A 
ATOM     24  C   UNL     1       1.789   8.996  18.217  0.00  0.00    +0.000 A 
ATOM     25  C   UNL     1       1.346   9.092  19.537  0.00  0.00    +0.000 A 
ATOM     26  C   UNL     1       1.562   8.048  20.453  0.00  0.00    +0.000 A 
BRANCH  26  27
ATOM     27  O   UNL     1       1.064   8.315  21.701  0.00  0.00    +0.000 OA
ATOM     28  C   UNL     1      -0.263   8.824  21.746  0.00  0.00    +0.000 C 
ENDBRANCH  26  27
ENDBRANCH  19  21
ENDBRANCH  16  17
ENDBRANCH  15  16
ENDBRANCH   5  15
TORSDOF 8
ENDMDL
MODEL 3
REMARK VINA RESULT:      -7.4      1.158      1.487
REMARK  Name = 
REMARK  10 active torsions:
REMARK  status: ('A' for Active; 'I' for Inactive)
REMARK    1  A    between atoms: C_1  and  O_2
REMARK    2  A    between atoms: O_2  and  C_3
REMARK    3  A    between atoms: C_6  and  C_7
REMARK    4  A    between atoms: C_7  and  N_8
REMARK    5  A    between atoms: C_12  and  S_13
REMARK    6  A    between atoms: S_13  and  C_14
REMARK    7  A    between atoms: C_14  and  C_15
REMARK    8  A    between atoms: N_17  and  C_18
REMARK    9  A    between atoms: C_23  and  O_24
REMARK   10  A    between atoms: O_24  and  C_25
REMARK                            x       y       z     vdW  Elec       q    Type
REMARK                         _______ _______ _______ _____ _____    ______ ____
ROOT
ATOM      1  N   UNL     1       3.165   3.480  19.365  0.00  0.00    +0.000 N 
ATOM      2  C   UNL     1       2.502   2.323  19.026  0.00  0.00    +0.000 A 
ATOM      3  C   UNL     1       1.169   2.653  19.025  0.00  0.00    +0.000 A 
ATOM      4  N   UNL     1       0.990   3.955  19.429  0.00  0.00    +0.000 NA
ATOM      5  C   UNL     1       2.201   4.434  19.583  0.00  0.00    +0.000 A 
ENDROOT
BRANCH   1   6
ATOM      6  C   UNL     1       4.602   3.590  19.553  0.00  0.00    +0.000 C 
BRANCH   6  10
ATOM      7  C   UNL     1       6.701   4.978  16.028  0.00  0.00    +0.000 A 
ATOM      8  C   UNL     1       7.079   5.414  17.295  0.00  0.00    +0.000 A 
ATOM      9  C   UNL     1       6.405   4.964  18.432  0.00  0.00    +0.000 A 
ATOM     10  C   UNL     1       5.317   4.088  18.318  0.00  0.00    +0.000 A 
ATOM     11  C   UNL     1       4.916   3.684  17.035  0.00  0.00    +0.000 A 
ATOM     12  C   UNL     1       5.606   4.123  15.898  0.00  0.00    +0.000 A 
BRANCH   7  14
ATOM     13  C   UNL     1       7.153   4.934  13.711  0.00  0.00    +0.000 C 
ATOM     14  O   UNL     1       7.442   5.477  14.993  0.00  0.00    +0.000 OA
ENDBRANCH   7  14
ENDBRANCH   6  10
ENDBRANCH   1   6
BRANCH   5  15
ATOM     15  S   UNL     1       2.569   6.083  19.958  0.00  0.00    +0.000 S 
BRANCH  15  16
ATOM     16  C   UNL     1       2.745   6.798  18.311  0.00  0.00    +0.000 C 
BRANCH  16  17
ATOM     17  C   UNL     1       2.136   8.192  18.257  0.00  0.00    +0.000 C 
ATOM     18  O   UNL     1       2.380   8.972  17.340  0.00  0.00    +0.000 OA
ATOM     19  N   UNL     1       1.326   8.461  19.348  0.00  0.00    +0.000 N 
ATOM     20  H   UNL     1       1.634   8.002  20.200  0.00  0.00    +0.000 HD
BRANCH  19  21
ATOM     21  C   UNL     1       0.657   9.692  19.526  0.00  0.00    +0.000 A 
ATOM     22  C   UNL     1      -0.075  10.139  18.416  0.00  0.00    +0.000 A 
ATOM     23  C   UNL     1      -0.853  11.296  18.482  0.00  0.00    +0.000 A 
ATOM     24  C   UNL     1      -0.875  12.047  19.650  0.00  0.00    +0.000 A 
ATOM     25  C   UNL     1      -0.120  11.636  20.750  0.00  0.00    +0.000 A 
ATOM     26  C   UNL     1       0.657  10.466  20.700  0.00  0.00    +0.000 A 
BRANCH  26  27
ATOM     27  O   UNL     1       1.332  10.218  21.866  0.00  0.00    +0.000 OA
ATOM     28  C   UNL     1       0.658   9.400  22.813  0.00  0.00    +0.000 C 
ENDBRANCH  26  27
ENDBRANCH  19  21
ENDBRANCH  16  17
ENDBRANCH  15  16
ENDBRANCH   5  15
TORSDOF 8
ENDMDL
MODEL 4
REMARK VINA RESULT:      -7.4      1.498      2.024
REMARK  Name = 
REMARK  10 active torsions:
REMARK  status: ('A' for Active; 'I' for Inactive)
REMARK    1  A    between atoms: C_1  and  O_2
REMARK    2  A    between atoms: O_2  and  C_3
REMARK    3  A    between atoms: C_6  and  C_7
REMARK    4  A    between atoms: C_7  and  N_8
REMARK    5  A    between atoms: C_12  and  S_13
REMARK    6  A    between atoms: S_13  and  C_14
REMARK    7  A    between atoms: C_14  and  C_15
REMARK    8  A    between atoms: N_17  and  C_18
REMARK    9  A    between atoms: C_23  and  O_24
REMARK   10  A    between atoms: O_24  and  C_25
REMARK                            x       y       z     vdW  Elec       q    Type
REMARK                         _______ _______ _______ _____ _____    ______ ____
ROOT
ATOM      1  N   UNL     1       2.984   3.612  19.268  0.00  0.00    +0.000 N 
ATOM      2  C   UNL     1       2.992   2.901  20.447  0.00  0.00    +0.000 A 
ATOM      3  C   UNL     1       2.239   3.642  21.325  0.00  0.00    +0.000 A 
ATOM      4  N   UNL     1       1.836   4.821  20.744  0.00  0.00    +0.000 NA
ATOM      5  C   UNL     1       2.260   4.755  19.504  0.00  0.00    +0.000 A 
ENDROOT
BRANCH   1   6
ATOM      6  C   UNL     1       3.713   3.237  18.068  0.00  0.00    +0.000 C 
BRANCH   6  10
ATOM      7  C   UNL     1       6.755   6.112  16.954  0.00  0.00    +0.000 A 
ATOM      8  C   UNL     1       6.625   5.694  18.276  0.00  0.00    +0.000 A 
ATOM      9  C   UNL     1       5.647   4.765  18.635  0.00  0.00    +0.000 A 
ATOM     10  C   UNL     1       4.759   4.256  17.677  0.00  0.00    +0.000 A 
ATOM     11  C   UNL     1       4.870   4.712  16.355  0.00  0.00    +0.000 A 
ATOM     12  C   UNL     1       5.864   5.630  15.995  0.00  0.00    +0.000 A 
BRANCH   7  14
ATOM     13  C   UNL     1       7.834   8.094  17.645  0.00  0.00    +0.000 C 
ATOM     14  O   UNL     1       7.756   7.015  16.723  0.00  0.00    +0.000 OA
ENDBRANCH   7  14
ENDBRANCH   6  10
ENDBRANCH   1   6
BRANCH   5  15
ATOM     15  S   UNL     1       1.912   5.925  18.278  0.00  0.00    +0.000 S 
BRANCH  15  16
ATOM     16  C   UNL     1       2.620   7.421  18.996  0.00  0.00    +0.000 C 
BRANCH  16  17
ATOM     17  C   UNL     1       1.951   8.665  18.428  0.00  0.00    +0.000 C 
ATOM     18  O   UNL     1       2.127   9.024  17.266  0.00  0.00    +0.000 OA
ATOM     19  N   UNL     1       1.174   9.326  19.365  0.00  0.00    +0.000 N 
ATOM     20  H   UNL     1       1.533   9.248  20.312  0.00  0.00    +0.000 HD
BRANCH  19  21
ATOM     21  C   UNL     1       0.461  10.510  19.077  0.00  0.00    +0.000 A 
ATOM     22  C   UNL     1       1.010  11.684  19.617  0.00  0.00    +0.000 A 
ATOM     23  C   UNL     1       0.456  12.935  19.340  0.00  0.00    +0.000 A 
ATOM     24  C   UNL     1      -0.683  13.025  18.551  0.00  0.00    +0.000 A 
ATOM     25  C   UNL     1      -1.264  11.863  18.039  0.00  0.00    +0.000 A 
ATOM     26  C   UNL     1      -0.708  10.599  18.301  0.00  0.00    +0.000 A 
BRANCH  26  27
ATOM     27  O   UNL     1      -1.409   9.572  17.723  0.00  0.00    +0.000 OA
ATOM     28  C   UNL     1      -2.316   9.941  16.693  0.00  0.00    +0.000 C 
ENDBRANCH  26  27
ENDBRANCH  19  21
ENDBRANCH  16  17
ENDBRANCH  15  16
ENDBRANCH   5  15
TORSDOF 8
ENDMDL
MODEL 5
REMARK VINA RESULT:      -7.4      1.910      3.009
REMARK  Name = 
REMARK  10 active torsions:
REMARK  status: ('A' for Active; 'I' for Inactive)
REMARK    1  A    between atoms: C_1  and  O_2
REMARK    2  A    between atoms: O_2  and  C_3
REMARK    3  A    between atoms: C_6  and  C_7
REMARK    4  A    between atoms: C_7  and  N_8
REMARK    5  A    between atoms: C_12  and  S_13
REMARK    6  A    between atoms: S_13  and  C_14
REMARK    7  A    between atoms: C_14  and  C_15
REMARK    8  A    between atoms: N_17  and  C_18
REMARK    9  A    between atoms: C_23  and  O_24
REMARK   10  A    between atoms: O_24  and  C_25
REMARK                            x       y       z     vdW  Elec       q    Type
REMARK                         _______ _______ _______ _____ _____    ______ ____
ROOT
ATOM      1  N   UNL     1       3.736   4.834  19.591  0.00  0.00    +0.000 N 
ATOM      2  C   UNL     1       3.509   3.494  19.805  0.00  0.00    +0.000 A 
ATOM      3  C   UNL     1       2.156   3.383  20.019  0.00  0.00    +0.000 A 
ATOM      4  N   UNL     1       1.562   4.623  20.021  0.00  0.00    +0.000 NA
ATOM      5  C   UNL     1       2.523   5.464  19.720  0.00  0.00    +0.000 A 
ENDROOT
BRANCH   1   6
ATOM      6  C   UNL     1       5.045   5.432  19.385  0.00  0.00    +0.000 C 
BRANCH   6  10
ATOM      7  C   UNL     1       6.618   4.766  15.405  0.00  0.00    +0.000 A 
ATOM      8  C   UNL     1       5.314   5.221  15.584  0.00  0.00    +0.000 A 
ATOM      9  C   UNL     1       4.808   5.438  16.867  0.00  0.00    +0.000 A 
ATOM     10  C   UNL     1       5.592   5.177  17.999  0.00  0.00    +0.000 A 
ATOM     11  C   UNL     1       6.891   4.682  17.811  0.00  0.00    +0.000 A 
ATOM     12  C   UNL     1       7.403   4.482  16.523  0.00  0.00    +0.000 A 
BRANCH   7  14
ATOM     13  C   UNL     1       6.145   3.800  13.304  0.00  0.00    +0.000 C 
ATOM     14  O   UNL     1       7.005   4.602  14.103  0.00  0.00    +0.000 OA
ENDBRANCH   7  14
ENDBRANCH   6  10
ENDBRANCH   1   6
BRANCH   5  15
ATOM     15  S   UNL     1       2.302   7.160  19.456  0.00  0.00    +0.000 S 
BRANCH  15  16
ATOM     16  C   UNL     1       1.453   7.654  20.969  0.00  0.00    +0.000 C 
BRANCH  16  17
ATOM     17  C   UNL     1       0.815   9.027  20.810  0.00  0.00    +0.000 C 
ATOM     18  O   UNL     1       0.295   9.615  21.754  0.00  0.00    +0.000 OA
ATOM     19  N   UNL     1       0.873   9.492  19.506  0.00  0.00    +0.000 N 
ATOM     20  H   UNL     1       0.824   8.751  18.812  0.00  0.00    +0.000 HD
BRANCH  19  21
ATOM     21  C   UNL     1       0.340  10.737  19.108  0.00  0.00    +0.000 A 
ATOM     22  C   UNL     1       1.193  11.837  19.288  0.00  0.00    +0.000 A 
ATOM     23  C   UNL     1       0.827  13.114  18.859  0.00  0.00    +0.000 A 
ATOM     24  C   UNL     1      -0.419  13.315  18.279  0.00  0.00    +0.000 A 
ATOM     25  C   UNL     1      -1.294  12.238  18.129  0.00  0.00    +0.000 A 
ATOM     26  C   UNL     1      -0.932  10.946  18.545  0.00  0.00    +0.000 A 
BRANCH  26  27
ATOM     27  O   UNL     1      -1.912  10.014  18.324  0.00  0.00    +0.000 OA
ATOM     28  C   UNL     1      -3.130  10.508  17.785  0.00  0.00    +0.000 C 
ENDBRANCH  26  27
ENDBRANCH  19  21
ENDBRANCH  16  17
ENDBRANCH  15  16
ENDBRANCH   5  15
TORSDOF 8
ENDMDL
MODEL 6
REMARK VINA RESULT:      -7.3      1.981      2.866
REMARK  Name = 
REMARK  10 active torsions:
REMARK  status: ('A' for Active; 'I' for Inactive)
REMARK    1  A    between atoms: C_1  and  O_2
REMARK    2  A    between atoms: O_2  and  C_3
REMARK    3  A    between atoms: C_6  and  C_7
REMARK    4  A    between atoms: C_7  and  N_8
REMARK    5  A    between atoms: C_12  and  S_13
REMARK    6  A    between atoms: S_13  and  C_14
REMARK    7  A    between atoms: C_14  and  C_15
REMARK    8  A    between atoms: N_17  and  C_18
REMARK    9  A    between atoms: C_23  and  O_24
REMARK   10  A    between atoms: O_24  and  C_25
REMARK                            x       y       z     vdW  Elec       q    Type
REMARK                         _______ _______ _______ _____ _____    ______ ____
ROOT
ATOM      1  N   UNL     1       3.575   4.543  19.559  0.00  0.00    +0.000 N 
ATOM      2  C   UNL     1       3.291   3.199  19.487  0.00  0.00    +0.000 A 
ATOM      3  C   UNL     1       1.942   3.097  19.725  0.00  0.00    +0.000 A 
ATOM      4  N   UNL     1       1.407   4.329  20.018  0.00  0.00    +0.000 NA
ATOM      5  C   UNL     1       2.397   5.177  19.869  0.00  0.00    +0.000 A 
ENDROOT
BRANCH   1   6
ATOM      6  C   UNL     1       4.904   5.119  19.436  0.00  0.00    +0.000 C 
BRANCH   6  10
ATOM      7  C   UNL     1       6.655   4.509  15.521  0.00  0.00    +0.000 A 
ATOM      8  C   UNL     1       5.276   4.641  15.668  0.00  0.00    +0.000 A 
ATOM      9  C   UNL     1       4.712   4.840  16.929  0.00  0.00    +0.000 A 
ATOM     10  C   UNL     1       5.519   4.884  18.075  0.00  0.00    +0.000 A 
ATOM     11  C   UNL     1       6.902   4.711  17.923  0.00  0.00    +0.000 A 
ATOM     12  C   UNL     1       7.468   4.529  16.655  0.00  0.00    +0.000 A 
BRANCH   7  14
ATOM     13  C   UNL     1       6.142   3.764  13.341  0.00  0.00    +0.000 C 
ATOM     14  O   UNL     1       7.090   4.330  14.237  0.00  0.00    +0.000 OA
ENDBRANCH   7  14
ENDBRANCH   6  10
ENDBRANCH   1   6
BRANCH   5  15
ATOM     15  S   UNL     1       2.248   6.897  19.985  0.00  0.00    +0.000 S 
BRANCH  15  16
ATOM     16  C   UNL     1       2.462   7.396  18.265  0.00  0.00    +0.000 C 
BRANCH  16  17
ATOM     17  C   UNL     1       1.932   8.805  18.038  0.00  0.00    +0.000 C 
ATOM     18  O   UNL     1       2.458   9.577  17.242  0.00  0.00    +0.000 OA
ATOM     19  N   UNL     1       0.838   9.096  18.838  0.00  0.00    +0.000 N 
ATOM     20  H   UNL     1       0.865   8.630  19.741  0.00  0.00    +0.000 HD
BRANCH  19  21
ATOM     21  C   UNL     1       0.177  10.343  18.814  0.00  0.00    +0.000 A 
ATOM     22  C   UNL     1       0.815  11.371  19.526  0.00  0.00    +0.000 A 
ATOM     23  C   UNL     1       0.316  12.675  19.515  0.00  0.00    +0.000 A 
ATOM     24  C   UNL     1      -0.855  12.959  18.824  0.00  0.00    +0.000 A 
ATOM     25  C   UNL     1      -1.522  11.939  18.144  0.00  0.00    +0.000 A 
ATOM     26  C   UNL     1      -1.023  10.626  18.137  0.00  0.00    +0.000 A 
BRANCH  26  27
ATOM     27  O   UNL     1      -1.806   9.755  17.424  0.00  0.00    +0.000 OA
ATOM     28  C   UNL     1      -2.490  10.307  16.308  0.00  0.00    +0.000 C 
ENDBRANCH  26  27
ENDBRANCH  19  21
ENDBRANCH  16  17
ENDBRANCH  15  16
ENDBRANCH   5  15
TORSDOF 8
ENDMDL
MODEL 7
REMARK VINA RESULT:      -7.3      2.521      8.617
REMARK  Name = 
REMARK  10 active torsions:
REMARK  status: ('A' for Active; 'I' for Inactive)
REMARK    1  A    between atoms: C_1  and  O_2
REMARK    2  A    between atoms: O_2  and  C_3
REMARK    3  A    between atoms: C_6  and  C_7
REMARK    4  A    between atoms: C_7  and  N_8
REMARK    5  A    between atoms: C_12  and  S_13
REMARK    6  A    between atoms: S_13  and  C_14
REMARK    7  A    between atoms: C_14  and  C_15
REMARK    8  A    between atoms: N_17  and  C_18
REMARK    9  A    between atoms: C_23  and  O_24
REMARK   10  A    between atoms: O_24  and  C_25
REMARK                            x       y       z     vdW  Elec       q    Type
REMARK                         _______ _______ _______ _____ _____    ______ ____
ROOT
ATOM      1  N   UNL     1       0.819  10.008  19.908  0.00  0.00    +0.000 N 
ATOM      2  C   UNL     1       0.410  10.465  21.140  0.00  0.00    +0.000 A 
ATOM      3  C   UNL     1       0.796   9.496  22.035  0.00  0.00    +0.000 A 
ATOM      4  N   UNL     1       1.358   8.426  21.380  0.00  0.00    +0.000 NA
ATOM      5  C   UNL     1       1.397   8.780  20.117  0.00  0.00    +0.000 A 
ENDROOT
BRANCH   1   6
ATOM      6  C   UNL     1       0.563  10.682  18.646  0.00  0.00    +0.000 C 
BRANCH   6  10
ATOM      7  C   UNL     1      -3.631  10.802  17.570  0.00  0.00    +0.000 A 
ATOM      8  C   UNL     1      -3.108  11.712  18.485  0.00  0.00    +0.000 A 
ATOM      9  C   UNL     1      -1.755  11.676  18.830  0.00  0.00    +0.000 A 
ATOM     10  C   UNL     1      -0.904  10.706  18.283  0.00  0.00    +0.000 A 
ATOM     11  C   UNL     1      -1.447   9.767  17.393  0.00  0.00    +0.000 A 
ATOM     12  C   UNL     1      -2.800   9.817  17.035  0.00  0.00    +0.000 A 
BRANCH   7  14
ATOM     13  C   UNL     1      -5.759  11.421  18.382  0.00  0.00    +0.000 C 
ATOM     14  O   UNL     1      -4.964  10.943  17.303  0.00  0.00    +0.000 OA
ENDBRANCH   7  14
ENDBRANCH   6  10
ENDBRANCH   1   6
BRANCH   5  15
ATOM     15  S   UNL     1       2.134   7.853  18.855  0.00  0.00    +0.000 S 
BRANCH  15  16
ATOM     16  C   UNL     1       2.473   6.296  19.702  0.00  0.00    +0.000 C 
BRANCH  16  17
ATOM     17  C   UNL     1       3.607   5.543  19.020  0.00  0.00    +0.000 C 
ATOM     18  O   UNL     1       4.201   4.623  19.574  0.00  0.00    +0.000 OA
ATOM     19  N   UNL     1       3.884   6.034  17.754  0.00  0.00    +0.000 N 
ATOM     20  H   UNL     1       3.723   7.033  17.665  0.00  0.00    +0.000 HD
BRANCH  19  21
ATOM     21  C   UNL     1       4.900   5.504  16.928  0.00  0.00    +0.000 A 
ATOM     22  C   UNL     1       4.674   4.198  16.467  0.00  0.00    +0.000 A 
ATOM     23  C   UNL     1       5.555   3.584  15.575  0.00  0.00    +0.000 A 
ATOM     24  C   UNL     1       6.699   4.256  15.164  0.00  0.00    +0.000 A 
ATOM     25  C   UNL     1       6.958   5.541  15.645  0.00  0.00    +0.000 A 
ATOM     26  C   UNL     1       6.072   6.174  16.533  0.00  0.00    +0.000 A 
BRANCH  26  27
ATOM     27  O   UNL     1       6.484   7.427  16.904  0.00  0.00    +0.000 OA
ATOM     28  C   UNL     1       7.660   7.485  17.700  0.00  0.00    +0.000 C 
ENDBRANCH  26  27
ENDBRANCH  19  21
ENDBRANCH  16  17
ENDBRANCH  15  16
ENDBRANCH   5  15
TORSDOF 8
ENDMDL
MODEL 8
REMARK VINA RESULT:      -7.3      1.666      2.234
REMARK  Name = 
REMARK  10 active torsions:
REMARK  status: ('A' for Active; 'I' for Inactive)
REMARK    1  A    between atoms: C_1  and  O_2
REMARK    2  A    between atoms: O_2  and  C_3
REMARK    3  A    between atoms: C_6  and  C_7
REMARK    4  A    between atoms: C_7  and  N_8
REMARK    5  A    between atoms: C_12  and  S_13
REMARK    6  A    between atoms: S_13  and  C_14
REMARK    7  A    between atoms: C_14  and  C_15
REMARK    8  A    between atoms: N_17  and  C_18
REMARK    9  A    between atoms: C_23  and  O_24
REMARK   10  A    between atoms: O_24  and  C_25
REMARK                            x       y       z     vdW  Elec       q    Type
REMARK                         _______ _______ _______ _____ _____    ______ ____
ROOT
ATOM      1  N   UNL     1       3.394   4.750  19.436  0.00  0.00    +0.000 N 
ATOM      2  C   UNL     1       3.025   3.450  19.178  0.00  0.00    +0.000 A 
ATOM      3  C   UNL     1       1.660   3.422  19.328  0.00  0.00    +0.000 A 
ATOM      4  N   UNL     1       1.191   4.645  19.746  0.00  0.00    +0.000 NA
ATOM      5  C   UNL     1       2.244   5.428  19.760  0.00  0.00    +0.000 A 
ENDROOT
BRANCH   1   6
ATOM      6  C   UNL     1       4.764   5.235  19.460  0.00  0.00    +0.000 C 
BRANCH   6  10
ATOM      7  C   UNL     1       6.691   5.070  15.585  0.00  0.00    +0.000 A 
ATOM      8  C   UNL     1       5.353   5.437  15.695  0.00  0.00    +0.000 A 
ATOM      9  C   UNL     1       4.732   5.493  16.945  0.00  0.00    +0.000 A 
ATOM     10  C   UNL     1       5.436   5.155  18.108  0.00  0.00    +0.000 A 
ATOM     11  C   UNL     1       6.772   4.747  17.985  0.00  0.00    +0.000 A 
ATOM     12  C   UNL     1       7.398   4.709  16.732  0.00  0.00    +0.000 A 
BRANCH   7  14
ATOM     13  C   UNL     1       6.566   4.156  13.412  0.00  0.00    +0.000 C 
ATOM     14  O   UNL     1       7.191   5.062  14.312  0.00  0.00    +0.000 OA
ENDBRANCH   7  14
ENDBRANCH   6  10
ENDBRANCH   1   6
BRANCH   5  15
ATOM     15  S   UNL     1       2.205   7.127  20.087  0.00  0.00    +0.000 S 
BRANCH  15  16
ATOM     16  C   UNL     1       2.324   7.817  18.424  0.00  0.00    +0.000 C 
BRANCH  16  17
ATOM     17  C   UNL     1       1.613   9.161  18.343  0.00  0.00    +0.000 C 
ATOM     18  O   UNL     1       1.941  10.020  17.529  0.00  0.00    +0.000 OA
ATOM     19  N   UNL     1       0.609   9.289  19.288  0.00  0.00    +0.000 N 
ATOM     20  H   UNL     1       0.806   8.794  20.154  0.00  0.00    +0.000 HD
BRANCH  19  21
ATOM     21  C   UNL     1      -0.186  10.449  19.415  0.00  0.00    +0.000 A 
ATOM     22  C   UNL     1      -1.363  10.453  18.651  0.00  0.00    +0.000 A 
ATOM     23  C   UNL     1      -2.283  11.499  18.746  0.00  0.00    +0.000 A 
ATOM     24  C   UNL     1      -2.016  12.578  19.579  0.00  0.00    +0.000 A 
ATOM     25  C   UNL     1      -0.830  12.607  20.316  0.00  0.00    +0.000 A 
ATOM     26  C   UNL     1       0.097  11.554  20.238  0.00  0.00    +0.000 A 
BRANCH  26  27
ATOM     27  O   UNL     1       1.202  11.750  21.024  0.00  0.00    +0.000 OA
ATOM     28  C   UNL     1       2.157  12.683  20.534  0.00  0.00    +0.000 C 
ENDBRANCH  26  27
ENDBRANCH  19  21
ENDBRANCH  16  17
ENDBRANCH  15  16
ENDBRANCH   5  15
TORSDOF 8
ENDMDL
MODEL 9
REMARK VINA RESULT:      -7.2      2.306      4.137
REMARK  Name = 
REMARK  10 active torsions:
REMARK  status: ('A' for Active; 'I' for Inactive)
REMARK    1  A    between atoms: C_1  and  O_2
REMARK    2  A    between atoms: O_2  and  C_3
REMARK    3  A    between atoms: C_6  and  C_7
REMARK    4  A    between atoms: C_7  and  N_8
REMARK    5  A    between atoms: C_12  and  S_13
REMARK    6  A    between atoms: S_13  and  C_14
REMARK    7  A    between atoms: C_14  and  C_15
REMARK    8  A    between atoms: N_17  and  C_18
REMARK    9  A    between atoms: C_23  and  O_24
REMARK   10  A    between atoms: O_24  and  C_25
REMARK                            x       y       z     vdW  Elec       q    Type
REMARK                         _______ _______ _______ _____ _____    ______ ____
ROOT
ATOM      1  N   UNL     1       5.635   4.890  16.990  0.00  0.00    +0.000 N 
ATOM      2  C   UNL     1       6.985   4.628  17.049  0.00  0.00    +0.000 A 
ATOM      3  C   UNL     1       7.560   5.784  17.517  0.00  0.00    +0.000 A 
ATOM      4  N   UNL     1       6.615   6.770  17.671  0.00  0.00    +0.000 NA
ATOM      5  C   UNL     1       5.470   6.194  17.389  0.00  0.00    +0.000 A 
ENDROOT
BRANCH   1   6
ATOM      6  C   UNL     1       4.631   3.968  16.485  0.00  0.00    +0.000 C 
BRANCH   6  10
ATOM      7  C   UNL     1       1.812   2.806  19.561  0.00  0.00    +0.000 A 
ATOM      8  C   UNL     1       3.175   2.575  19.726  0.00  0.00    +0.000 A 
ATOM      9  C   UNL     1       4.085   2.952  18.736  0.00  0.00    +0.000 A 
ATOM     10  C   UNL     1       3.641   3.545  17.545  0.00  0.00    +0.000 A 
ATOM     11  C   UNL     1       2.262   3.738  17.369  0.00  0.00    +0.000 A 
ATOM     12  C   UNL     1       1.354   3.375  18.372  0.00  0.00    +0.000 A 
BRANCH   7  14
ATOM     13  C   UNL     1       1.570   2.599  21.900  0.00  0.00    +0.000 C 
ATOM     14  O   UNL     1       1.022   2.405  20.602  0.00  0.00    +0.000 OA
ENDBRANCH   7  14
ENDBRANCH   6  10
ENDBRANCH   1   6
BRANCH   5  15
ATOM     15  S   UNL     1       3.921   6.947  17.551  0.00  0.00    +0.000 S 
BRANCH  15  16
ATOM     16  C   UNL     1       3.490   6.526  19.252  0.00  0.00    +0.000 C 
BRANCH  16  17
ATOM     17  C   UNL     1       2.225   7.253  19.687  0.00  0.00    +0.000 C 
ATOM     18  O   UNL     1       1.415   6.742  20.455  0.00  0.00    +0.000 OA
ATOM     19  N   UNL     1       2.103   8.503  19.103  0.00  0.00    +0.000 N 
ATOM     20  H   UNL     1       2.501   8.551  18.169  0.00  0.00    +0.000 HD
BRANCH  19  21
ATOM     21  C   UNL     1       1.010   9.362  19.345  0.00  0.00    +0.000 A 
ATOM     22  C   UNL     1       0.306   9.771  18.202  0.00  0.00    +0.000 A 
ATOM     23  C   UNL     1      -0.847  10.551  18.303  0.00  0.00    +0.000 A 
ATOM     24  C   UNL     1      -1.289  10.970  19.552  0.00  0.00    +0.000 A 
ATOM     25  C   UNL     1      -0.577  10.605  20.696  0.00  0.00    +0.000 A 
ATOM     26  C   UNL     1       0.578   9.809  20.607  0.00  0.00    +0.000 A 
BRANCH  26  27
ATOM     27  O   UNL     1       1.149   9.551  21.826  0.00  0.00    +0.000 OA
ATOM     28  C   UNL     1       0.261   9.526  22.936  0.00  0.00    +0.000 C 
ENDBRANCH  26  27
ENDBRANCH  19  21
ENDBRANCH  16  17
ENDBRANCH  15  16
ENDBRANCH   5  15
TORSDOF 8
ENDMDL
