MODEL 1
REMARK VINA RESULT:      -7.0      0.000      0.000
REMARK  Name = 
REMARK  15 active torsions:
REMARK  status: ('A' for Active; 'I' for Inactive)
REMARK    1  A    between atoms: C_1  and  N_2
REMARK    2  A    between atoms: C_3  and  O_5
REMARK    3  A    between atoms: O_5  and  C_6
REMARK    4  A    between atoms: C_6  and  C_7
REMARK    5  A    between atoms: C_6  and  C_21
REMARK    6  A    between atoms: C_12  and  O_13
REMARK    7  A    between atoms: O_13  and  C_14
REMARK    8  A    between atoms: C_17  and  C_18
REMARK    9  A    between atoms: C_17  and  C_19
REMARK   10  A    between atoms: C_21  and  C_22
REMARK   11  A    between atoms: C_21  and  C_23
REMARK   12  A    between atoms: C_26  and  O_27
REMARK   13  A    between atoms: O_27  and  C_28
REMARK   14  A    between atoms: C_29  and  O_30
REMARK   15  A    between atoms: O_30  and  C_31
REMARK                            x       y       z     vdW  Elec       q    Type
REMARK                         _______ _______ _______ _____ _____    ______ ____
ROOT
ATOM      1  C   UNL     1       0.470  11.748  20.211  0.00  0.00    +0.000 C 
ENDROOT
BRANCH   1   2
ATOM      2  C   UNL     1      -0.511  12.738  20.828  0.00  0.00    +0.000 A 
ATOM      3  C   UNL     1      -1.027  13.861  20.147  0.00  0.00    +0.000 A 
ATOM      4  C   UNL     1      -2.065  14.634  20.706  0.00  0.00    +0.000 A 
ATOM      5  C   UNL     1      -2.685  14.189  21.872  0.00  0.00    +0.000 A 
ATOM      6  C   UNL     1      -2.220  13.022  22.478  0.00  0.00    +0.000 A 
ATOM      7  C   UNL     1      -0.999  12.476  22.108  0.00  0.00    +0.000 A 
ATOM      8  C   UNL     1      -3.149  12.245  23.289  0.00  0.00    +0.000 C 
ATOM      9  C   UNL     1      -4.164  12.911  23.835  0.00  0.00    +0.000 C 
ATOM     10  C   UNL     1      -4.240  14.413  23.681  0.00  0.00    +0.000 C 
ATOM     11  C   UNL     1      -3.398  15.090  24.779  0.00  0.00    +0.000 C 
ATOM     12  C   UNL     1      -5.700  14.841  23.845  0.00  0.00    +0.000 C 
ATOM     13  O   UNL     1      -3.791  14.849  22.360  0.00  0.00    +0.000 OA
BRANCH   7  14
ATOM     14  O   UNL     1      -0.274  11.669  22.947  0.00  0.00    +0.000 OA
ATOM     15  C   UNL     1      -0.845  10.363  23.136  0.00  0.00    +0.000 C 
ENDBRANCH   7  14
ENDBRANCH   1   2
BRANCH   1  16
ATOM     16  C   UNL     1      -0.119  10.361  19.722  0.00  0.00    +0.000 C 
ATOM     17  C   UNL     1      -1.142  10.645  18.598  0.00  0.00    +0.000 C 
BRANCH  16  18
ATOM     18  C   UNL     1       0.915   9.296  19.286  0.00  0.00    +0.000 A 
ATOM     19  C   UNL     1       1.564   9.294  18.039  0.00  0.00    +0.000 A 
ATOM     20  C   UNL     1       2.488   8.291  17.702  0.00  0.00    +0.000 A 
ATOM     21  C   UNL     1       2.835   7.292  18.613  0.00  0.00    +0.000 A 
ATOM     22  C   UNL     1       2.164   7.222  19.840  0.00  0.00    +0.000 A 
ATOM     23  C   UNL     1       1.185   8.197  20.124  0.00  0.00    +0.000 A 
ATOM     24  F   UNL     1       0.394   8.036  21.194  0.00  0.00    +0.000 F 
BRANCH  21  25
ATOM     25  O   UNL     1       3.761   6.391  18.145  0.00  0.00    +0.000 OA
ATOM     26  C   UNL     1       4.509   6.809  17.004  0.00  0.00    +0.000 C 
ENDBRANCH  21  25
BRANCH  22  27
ATOM     27  O   UNL     1       2.460   6.151  20.642  0.00  0.00    +0.000 OA
ATOM     28  C   UNL     1       1.610   5.015  20.574  0.00  0.00    +0.000 C 
ENDBRANCH  22  27
ENDBRANCH  16  18
ENDBRANCH   1  16
BRANCH   1  29
ATOM     29  O   UNL     1       1.094  12.485  19.135  0.00  0.00    +0.000 OA
BRANCH  29  32
ATOM     30  C   UNL     1       3.980  14.415  18.325  0.00  0.00    +0.000 C 
ATOM     31  N   UNL     1       2.843  13.545  18.271  0.00  0.00    +0.000 N 
ATOM     32  C   UNL     1       2.272  13.091  19.427  0.00  0.00    +0.000 C 
ATOM     33  O   UNL     1       2.722  13.260  20.554  0.00  0.00    +0.000 OA
ATOM     34  H   UNL     1       2.241  13.527  17.466  0.00  0.00    +0.000 HD
ENDBRANCH  29  32
ENDBRANCH   1  29
TORSDOF 8
ENDMDL
MODEL 2
REMARK VINA RESULT:      -6.8      2.825      4.891
REMARK  Name = 
REMARK  15 active torsions:
REMARK  status: ('A' for Active; 'I' for Inactive)
REMARK    1  A    between atoms: C_1  and  N_2
REMARK    2  A    between atoms: C_3  and  O_5
REMARK    3  A    between atoms: O_5  and  C_6
REMARK    4  A    between atoms: C_6  and  C_7
REMARK    5  A    between atoms: C_6  and  C_21
REMARK    6  A    between atoms: C_12  and  O_13
REMARK    7  A    between atoms: O_13  and  C_14
REMARK    8  A    between atoms: C_17  and  C_18
REMARK    9  A    between atoms: C_17  and  C_19
REMARK   10  A    between atoms: C_21  and  C_22
REMARK   11  A    between atoms: C_21  and  C_23
REMARK   12  A    between atoms: C_26  and  O_27
REMARK   13  A    between atoms: O_27  and  C_28
REMARK   14  A    between atoms: C_29  and  O_30
REMARK   15  A    between atoms: O_30  and  C_31
REMARK                            x       y       z     vdW  Elec       q    Type
REMARK                         _______ _______ _______ _____ _____    ______ ____
ROOT
ATOM      1  C   UNL     1       0.505  10.097  19.235  0.00  0.00    +0.000 C 
ENDROOT
BRANCH   1   2
ATOM      2  C   UNL     1       1.099  11.494  19.098  0.00  0.00    +0.000 A 
ATOM      3  C   UNL     1       2.268  11.782  18.362  0.00  0.00    +0.000 A 
ATOM      4  C   UNL     1       2.665  13.114  18.124  0.00  0.00    +0.000 A 
ATOM      5  C   UNL     1       1.808  14.149  18.491  0.00  0.00    +0.000 A 
ATOM      6  C   UNL     1       0.611  13.835  19.134  0.00  0.00    +0.000 A 
ATOM      7  C   UNL     1       0.404  12.566  19.656  0.00  0.00    +0.000 A 
ATOM      8  C   UNL     1      -0.510  14.759  19.001  0.00  0.00    +0.000 C 
ATOM      9  C   UNL     1      -0.207  16.032  18.759  0.00  0.00    +0.000 C 
ATOM     10  C   UNL     1       1.242  16.464  18.742  0.00  0.00    +0.000 C 
ATOM     11  C   UNL     1       1.707  16.780  20.176  0.00  0.00    +0.000 C 
ATOM     12  C   UNL     1       1.357  17.734  17.895  0.00  0.00    +0.000 C 
ATOM     13  O   UNL     1       2.107  15.448  18.144  0.00  0.00    +0.000 OA
BRANCH   7  14
ATOM     14  O   UNL     1      -0.477  12.330  20.681  0.00  0.00    +0.000 OA
ATOM     15  C   UNL     1      -0.090  12.926  21.931  0.00  0.00    +0.000 C 
ENDBRANCH   7  14
ENDBRANCH   1   2
BRANCH   1  16
ATOM     16  C   UNL     1       1.025   9.208  20.438  0.00  0.00    +0.000 C 
ATOM     17  C   UNL     1      -0.104   9.119  21.491  0.00  0.00    +0.000 C 
BRANCH  16  18
ATOM     18  C   UNL     1       1.561   7.804  20.068  0.00  0.00    +0.000 A 
ATOM     19  C   UNL     1       1.366   6.655  20.854  0.00  0.00    +0.000 A 
ATOM     20  C   UNL     1       1.886   5.411  20.464  0.00  0.00    +0.000 A 
ATOM     21  C   UNL     1       2.569   5.259  19.256  0.00  0.00    +0.000 A 
ATOM     22  C   UNL     1       2.840   6.390  18.477  0.00  0.00    +0.000 A 
ATOM     23  C   UNL     1       2.372   7.642  18.928  0.00  0.00    +0.000 A 
ATOM     24  F   UNL     1       2.787   8.756  18.310  0.00  0.00    +0.000 F 
BRANCH  21  25
ATOM     25  O   UNL     1       3.007   3.980  19.006  0.00  0.00    +0.000 OA
ATOM     26  C   UNL     1       2.111   3.153  18.265  0.00  0.00    +0.000 C 
ENDBRANCH  21  25
BRANCH  22  27
ATOM     27  O   UNL     1       3.617   6.198  17.364  0.00  0.00    +0.000 OA
ATOM     28  C   UNL     1       5.022   6.353  17.500  0.00  0.00    +0.000 C 
ENDBRANCH  22  27
ENDBRANCH  16  18
ENDBRANCH   1  16
BRANCH   1  29
ATOM     29  O   UNL     1      -0.922  10.319  19.299  0.00  0.00    +0.000 OA
BRANCH  29  32
ATOM     30  C   UNL     1      -3.515  11.243  17.033  0.00  0.00    +0.000 C 
ATOM     31  N   UNL     1      -2.739  10.982  18.209  0.00  0.00    +0.000 N 
ATOM     32  C   UNL     1      -1.596  10.238  18.125  0.00  0.00    +0.000 C 
ATOM     33  O   UNL     1      -1.210   9.641  17.126  0.00  0.00    +0.000 OA
ATOM     34  H   UNL     1      -2.793  11.587  19.011  0.00  0.00    +0.000 HD
ENDBRANCH  29  32
ENDBRANCH   1  29
TORSDOF 8
ENDMDL
MODEL 3
REMARK VINA RESULT:      -6.8      2.679      4.487
REMARK  Name = 
REMARK  15 active torsions:
REMARK  status: ('A' for Active; 'I' for Inactive)
REMARK    1  A    between atoms: C_1  and  N_2
REMARK    2  A    between atoms: C_3  and  O_5
REMARK    3  A    between atoms: O_5  and  C_6
REMARK    4  A    between atoms: C_6  and  C_7
REMARK    5  A    between atoms: C_6  and  C_21
REMARK    6  A    between atoms: C_12  and  O_13
REMARK    7  A    between atoms: O_13  and  C_14
REMARK    8  A    between atoms: C_17  and  C_18
REMARK    9  A    between atoms: C_17  and  C_19
REMARK   10  A    between atoms: C_21  and  C_22
REMARK   11  A    between atoms: C_21  and  C_23
REMARK   12  A    between atoms: C_26  and  O_27
REMARK   13  A    between atoms: O_27  and  C_28
REMARK   14  A    between atoms: C_29  and  O_30
REMARK   15  A    between atoms: O_30  and  C_31
REMARK                            x       y       z     vdW  Elec       q    Type
REMARK                         _______ _______ _______ _____ _____    ______ ____
ROOT
ATOM      1  C   UNL     1       0.295  10.902  19.649  0.00  0.00    +0.000 C 
ENDROOT
BRANCH   1   2
ATOM      2  C   UNL     1       0.488  12.250  20.333  0.00  0.00    +0.000 A 
ATOM      3  C   UNL     1      -0.407  12.785  21.283  0.00  0.00    +0.000 A 
ATOM      4  C   UNL     1      -0.083  13.948  22.011  0.00  0.00    +0.000 A 
ATOM      5  C   UNL     1       1.199  14.480  21.895  0.00  0.00    +0.000 A 
ATOM      6  C   UNL     1       2.102  13.878  21.019  0.00  0.00    +0.000 A 
ATOM      7  C   UNL     1       1.660  12.962  20.075  0.00  0.00    +0.000 A 
ATOM      8  C   UNL     1       3.527  14.012  21.292  0.00  0.00    +0.000 C 
ATOM      9  C   UNL     1       3.902  15.081  21.990  0.00  0.00    +0.000 C 
ATOM     10  C   UNL     1       2.876  16.128  22.360  0.00  0.00    +0.000 C 
ATOM     11  C   UNL     1       2.711  17.127  21.200  0.00  0.00    +0.000 C 
ATOM     12  C   UNL     1       3.381  16.883  23.593  0.00  0.00    +0.000 C 
ATOM     13  O   UNL     1       1.585  15.530  22.699  0.00  0.00    +0.000 OA
BRANCH   7  14
ATOM     14  O   UNL     1       2.350  12.713  18.916  0.00  0.00    +0.000 OA
ATOM     15  C   UNL     1       2.277  13.781  17.955  0.00  0.00    +0.000 C 
ENDBRANCH   7  14
ENDBRANCH   1   2
BRANCH   1  16
ATOM     16  C   UNL     1       0.824   9.623  20.419  0.00  0.00    +0.000 C 
ATOM     17  C   UNL     1      -0.386   8.935  21.093  0.00  0.00    +0.000 C 
BRANCH  16  18
ATOM     18  C   UNL     1       1.650   8.615  19.583  0.00  0.00    +0.000 A 
ATOM     19  C   UNL     1       1.989   8.805  18.232  0.00  0.00    +0.000 A 
ATOM     20  C   UNL     1       2.735   7.846  17.528  0.00  0.00    +0.000 A 
ATOM     21  C   UNL     1       3.213   6.696  18.159  0.00  0.00    +0.000 A 
ATOM     22  C   UNL     1       2.843   6.439  19.484  0.00  0.00    +0.000 A 
ATOM     23  C   UNL     1       2.029   7.382  20.147  0.00  0.00    +0.000 A 
ATOM     24  F   UNL     1       1.500   7.066  21.337  0.00  0.00    +0.000 F 
BRANCH  21  25
ATOM     25  O   UNL     1       3.938   5.860  17.344  0.00  0.00    +0.000 OA
ATOM     26  C   UNL     1       4.940   6.488  16.546  0.00  0.00    +0.000 C 
ENDBRANCH  21  25
BRANCH  22  27
ATOM     27  O   UNL     1       3.241   5.239  20.012  0.00  0.00    +0.000 OA
ATOM     28  C   UNL     1       2.322   4.157  19.969  0.00  0.00    +0.000 C 
ENDBRANCH  22  27
ENDBRANCH  16  18
ENDBRANCH   1  16
BRANCH   1  29
ATOM     29  O   UNL     1      -1.125  10.832  19.389  0.00  0.00    +0.000 OA
BRANCH  29  32
ATOM     30  C   UNL     1      -2.548  10.037  16.217  0.00  0.00    +0.000 C 
ATOM     31  N   UNL     1      -1.884   9.976  17.486  0.00  0.00    +0.000 N 
ATOM     32  C   UNL     1      -1.519  11.128  18.125  0.00  0.00    +0.000 C 
ATOM     33  O   UNL     1      -1.594  12.256  17.651  0.00  0.00    +0.000 OA
ATOM     34  H   UNL     1      -1.979   9.172  18.083  0.00  0.00    +0.000 HD
ENDBRANCH  29  32
ENDBRANCH   1  29
TORSDOF 8
ENDMDL
MODEL 4
REMARK VINA RESULT:      -6.6      2.675      4.429
REMARK  Name = 
REMARK  15 active torsions:
REMARK  status: ('A' for Active; 'I' for Inactive)
REMARK    1  A    between atoms: C_1  and  N_2
REMARK    2  A    between atoms: C_3  and  O_5
REMARK    3  A    between atoms: O_5  and  C_6
REMARK    4  A    between atoms: C_6  and  C_7
REMARK    5  A    between atoms: C_6  and  C_21
REMARK    6  A    between atoms: C_12  and  O_13
REMARK    7  A    between atoms: O_13  and  C_14
REMARK    8  A    between atoms: C_17  and  C_18
REMARK    9  A    between atoms: C_17  and  C_19
REMARK   10  A    between atoms: C_21  and  C_22
REMARK   11  A    between atoms: C_21  and  C_23
REMARK   12  A    between atoms: C_26  and  O_27
REMARK   13  A    between atoms: O_27  and  C_28
REMARK   14  A    between atoms: C_29  and  O_30
REMARK   15  A    between atoms: O_30  and  C_31
REMARK                            x       y       z     vdW  Elec       q    Type
REMARK                         _______ _______ _______ _____ _____    ______ ____
ROOT
ATOM      1  C   UNL     1       0.388  10.848  18.891  0.00  0.00    +0.000 C 
ENDROOT
BRANCH   1   2
ATOM      2  C   UNL     1       0.953  12.262  18.965  0.00  0.00    +0.000 A 
ATOM      3  C   UNL     1       2.134  12.671  18.309  0.00  0.00    +0.000 A 
ATOM      4  C   UNL     1       2.506  14.030  18.268  0.00  0.00    +0.000 A 
ATOM      5  C   UNL     1       1.616  14.988  18.749  0.00  0.00    +0.000 A 
ATOM      6  C   UNL     1       0.411  14.566  19.308  0.00  0.00    +0.000 A 
ATOM      7  C   UNL     1       0.220  13.234  19.645  0.00  0.00    +0.000 A 
ATOM      8  C   UNL     1      -0.727  15.477  19.271  0.00  0.00    +0.000 C 
ATOM      9  C   UNL     1      -0.447  16.778  19.216  0.00  0.00    +0.000 C 
ATOM     10  C   UNL     1       0.992  17.235  19.300  0.00  0.00    +0.000 C 
ATOM     11  C   UNL     1       1.412  17.359  20.776  0.00  0.00    +0.000 C 
ATOM     12  C   UNL     1       1.099  18.612  18.639  0.00  0.00    +0.000 C 
ATOM     13  O   UNL     1       1.895  16.328  18.593  0.00  0.00    +0.000 OA
BRANCH   7  14
ATOM     14  O   UNL     1      -0.682  12.841  20.601  0.00  0.00    +0.000 OA
ATOM     15  C   UNL     1      -0.215  13.016  21.949  0.00  0.00    +0.000 C 
ENDBRANCH   7  14
ENDBRANCH   1   2
BRANCH   1  16
ATOM     16  C   UNL     1       0.934   9.798  19.943  0.00  0.00    +0.000 C 
ATOM     17  C   UNL     1      -0.246   9.363  20.842  0.00  0.00    +0.000 C 
BRANCH  16  18
ATOM     18  C   UNL     1       1.679   8.573  19.361  0.00  0.00    +0.000 A 
ATOM     19  C   UNL     1       2.119   8.478  18.030  0.00  0.00    +0.000 A 
ATOM     20  C   UNL     1       2.784   7.333  17.563  0.00  0.00    +0.000 A 
ATOM     21  C   UNL     1       3.079   6.269  18.418  0.00  0.00    +0.000 A 
ATOM     22  C   UNL     1       2.601   6.297  19.734  0.00  0.00    +0.000 A 
ATOM     23  C   UNL     1       1.870   7.427  20.157  0.00  0.00    +0.000 A 
ATOM     24  F   UNL     1       1.236   7.390  21.337  0.00  0.00    +0.000 F 
BRANCH  21  25
ATOM     25  O   UNL     1       3.744   5.226  17.821  0.00  0.00    +0.000 OA
ATOM     26  C   UNL     1       4.701   5.590  16.827  0.00  0.00    +0.000 C 
ENDBRANCH  21  25
BRANCH  22  27
ATOM     27  O   UNL     1       2.817   5.175  20.490  0.00  0.00    +0.000 OA
ATOM     28  C   UNL     1       1.739   4.265  20.650  0.00  0.00    +0.000 C 
ENDBRANCH  22  27
ENDBRANCH  16  18
ENDBRANCH   1  16
BRANCH   1  29
ATOM     29  O   UNL     1      -1.043  11.029  18.994  0.00  0.00    +0.000 OA
BRANCH  29  32
ATOM     30  C   UNL     1      -3.821  11.163  16.762  0.00  0.00    +0.000 C 
ATOM     31  N   UNL     1      -2.960  11.279  17.902  0.00  0.00    +0.000 N 
ATOM     32  C   UNL     1      -1.781  10.589  17.944  0.00  0.00    +0.000 C 
ATOM     33  O   UNL     1      -1.422   9.748  17.128  0.00  0.00    +0.000 OA
ATOM     34  H   UNL     1      -3.001  12.085  18.503  0.00  0.00    +0.000 HD
ENDBRANCH  29  32
ENDBRANCH   1  29
TORSDOF 8
ENDMDL
MODEL 5
REMARK VINA RESULT:      -6.6      2.501      3.435
REMARK  Name = 
REMARK  15 active torsions:
REMARK  status: ('A' for Active; 'I' for Inactive)
REMARK    1  A    between atoms: C_1  and  N_2
REMARK    2  A    between atoms: C_3  and  O_5
REMARK    3  A    between atoms: O_5  and  C_6
REMARK    4  A    between atoms: C_6  and  C_7
REMARK    5  A    between atoms: C_6  and  C_21
REMARK    6  A    between atoms: C_12  and  O_13
REMARK    7  A    between atoms: O_13  and  C_14
REMARK    8  A    between atoms: C_17  and  C_18
REMARK    9  A    between atoms: C_17  and  C_19
REMARK   10  A    between atoms: C_21  and  C_22
REMARK   11  A    between atoms: C_21  and  C_23
REMARK   12  A    between atoms: C_26  and  O_27
REMARK   13  A    between atoms: O_27  and  C_28
REMARK   14  A    between atoms: C_29  and  O_30
REMARK   15  A    between atoms: O_30  and  C_31
REMARK                            x       y       z     vdW  Elec       q    Type
REMARK                         _______ _______ _______ _____ _____    ______ ____
ROOT
ATOM      1  C   UNL     1       0.472  11.227  19.543  0.00  0.00    +0.000 C 
ENDROOT
BRANCH   1   2
ATOM      2  C   UNL     1      -0.898  11.185  18.876  0.00  0.00    +0.000 A 
ATOM      3  C   UNL     1      -1.329  10.140  18.031  0.00  0.00    +0.000 A 
ATOM      4  C   UNL     1      -2.666  10.067  17.592  0.00  0.00    +0.000 A 
ATOM      5  C   UNL     1      -3.600  10.953  18.125  0.00  0.00    +0.000 A 
ATOM      6  C   UNL     1      -3.169  11.920  19.033  0.00  0.00    +0.000 A 
ATOM      7  C   UNL     1      -1.816  12.188  19.185  0.00  0.00    +0.000 A 
ATOM      8  C   UNL     1      -4.127  12.433  20.004  0.00  0.00    +0.000 C 
ATOM      9  C   UNL     1      -5.412  12.381  19.660  0.00  0.00    +0.000 C 
ATOM     10  C   UNL     1      -5.794  11.905  18.277  0.00  0.00    +0.000 C 
ATOM     11  C   UNL     1      -5.729  13.083  17.286  0.00  0.00    +0.000 C 
ATOM     12  C   UNL     1      -7.231  11.381  18.327  0.00  0.00    +0.000 C 
ATOM     13  O   UNL     1      -4.936  10.813  17.819  0.00  0.00    +0.000 OA
BRANCH   7  14
ATOM     14  O   UNL     1      -1.356  13.392  19.654  0.00  0.00    +0.000 OA
ATOM     15  C   UNL     1      -1.390  13.511  21.087  0.00  0.00    +0.000 C 
ENDBRANCH   7  14
ENDBRANCH   1   2
BRANCH   1  16
ATOM     16  C   UNL     1       0.904   9.956  20.382  0.00  0.00    +0.000 C 
ATOM     17  C   UNL     1      -0.342   9.433  21.136  0.00  0.00    +0.000 C 
BRANCH  16  18
ATOM     18  C   UNL     1       1.600   8.821  19.593  0.00  0.00    +0.000 A 
ATOM     19  C   UNL     1       1.898   8.884  18.222  0.00  0.00    +0.000 A 
ATOM     20  C   UNL     1       2.525   7.815  17.564  0.00  0.00    +0.000 A 
ATOM     21  C   UNL     1       2.924   6.671  18.259  0.00  0.00    +0.000 A 
ATOM     22  C   UNL     1       2.588   6.542  19.612  0.00  0.00    +0.000 A 
ATOM     23  C   UNL     1       1.890   7.600  20.232  0.00  0.00    +0.000 A 
ATOM     24  F   UNL     1       1.385   7.417  21.460  0.00  0.00    +0.000 F 
BRANCH  21  25
ATOM     25  O   UNL     1       3.536   5.717  17.483  0.00  0.00    +0.000 OA
ATOM     26  C   UNL     1       4.917   5.941  17.202  0.00  0.00    +0.000 C 
ENDBRANCH  21  25
BRANCH  22  27
ATOM     27  O   UNL     1       2.898   5.349  20.211  0.00  0.00    +0.000 OA
ATOM     28  C   UNL     1       1.881   4.361  20.289  0.00  0.00    +0.000 C 
ENDBRANCH  22  27
ENDBRANCH  16  18
ENDBRANCH   1  16
BRANCH   1  29
ATOM     29  O   UNL     1       1.389  11.502  18.460  0.00  0.00    +0.000 OA
BRANCH  29  32
ATOM     30  C   UNL     1       2.660  14.312  20.251  0.00  0.00    +0.000 C 
ATOM     31  N   UNL     1       1.838  13.246  19.759  0.00  0.00    +0.000 N 
ATOM     32  C   UNL     1       2.169  12.605  18.599  0.00  0.00    +0.000 C 
ATOM     33  O   UNL     1       3.067  12.938  17.836  0.00  0.00    +0.000 OA
ATOM     34  H   UNL     1       1.242  12.723  20.378  0.00  0.00    +0.000 HD
ENDBRANCH  29  32
ENDBRANCH   1  29
TORSDOF 8
ENDMDL
MODEL 6
REMARK VINA RESULT:      -6.5      2.328      3.691
REMARK  Name = 
REMARK  15 active torsions:
REMARK  status: ('A' for Active; 'I' for Inactive)
REMARK    1  A    between atoms: C_1  and  N_2
REMARK    2  A    between atoms: C_3  and  O_5
REMARK    3  A    between atoms: O_5  and  C_6
REMARK    4  A    between atoms: C_6  and  C_7
REMARK    5  A    between atoms: C_6  and  C_21
REMARK    6  A    between atoms: C_12  and  O_13
REMARK    7  A    between atoms: O_13  and  C_14
REMARK    8  A    between atoms: C_17  and  C_18
REMARK    9  A    between atoms: C_17  and  C_19
REMARK   10  A    between atoms: C_21  and  C_22
REMARK   11  A    between atoms: C_21  and  C_23
REMARK   12  A    between atoms: C_26  and  O_27
REMARK   13  A    between atoms: O_27  and  C_28
REMARK   14  A    between atoms: C_29  and  O_30
REMARK   15  A    between atoms: O_30  and  C_31
REMARK                            x       y       z     vdW  Elec       q    Type
REMARK                         _______ _______ _______ _____ _____    ______ ____
ROOT
ATOM      1  C   UNL     1      -0.696  10.961  19.118  0.00  0.00    +0.000 C 
ENDROOT
BRANCH   1   2
ATOM      2  C   UNL     1      -1.280  11.370  20.465  0.00  0.00    +0.000 A 
ATOM      3  C   UNL     1      -0.897  10.794  21.696  0.00  0.00    +0.000 A 
ATOM      4  C   UNL     1      -1.339  11.337  22.919  0.00  0.00    +0.000 A 
ATOM      5  C   UNL     1      -2.034  12.544  22.909  0.00  0.00    +0.000 A 
ATOM      6  C   UNL     1      -2.321  13.146  21.684  0.00  0.00    +0.000 A 
ATOM      7  C   UNL     1      -2.181  12.434  20.501  0.00  0.00    +0.000 A 
ATOM      8  C   UNL     1      -2.494  14.593  21.647  0.00  0.00    +0.000 C 
ATOM      9  C   UNL     1      -2.895  15.174  22.775  0.00  0.00    +0.000 C 
ATOM     10  C   UNL     1      -3.244  14.319  23.972  0.00  0.00    +0.000 C 
ATOM     11  C   UNL     1      -4.708  13.852  23.866  0.00  0.00    +0.000 C 
ATOM     12  C   UNL     1      -3.088  15.170  25.235  0.00  0.00    +0.000 C 
ATOM     13  O   UNL     1      -2.354  13.165  24.096  0.00  0.00    +0.000 OA
BRANCH   7  14
ATOM     14  O   UNL     1      -2.875  12.760  19.364  0.00  0.00    +0.000 OA
ATOM     15  C   UNL     1      -4.259  12.371  19.395  0.00  0.00    +0.000 C 
ENDBRANCH   7  14
ENDBRANCH   1   2
BRANCH   1  16
ATOM     16  C   UNL     1       0.872  10.753  19.047  0.00  0.00    +0.000 C 
ATOM     17  C   UNL     1       1.531  11.733  20.045  0.00  0.00    +0.000 C 
BRANCH  16  18
ATOM     18  C   UNL     1       1.380   9.307  19.261  0.00  0.00    +0.000 A 
ATOM     19  C   UNL     1       1.304   8.620  20.485  0.00  0.00    +0.000 A 
ATOM     20  C   UNL     1       1.791   7.309  20.614  0.00  0.00    +0.000 A 
ATOM     21  C   UNL     1       2.319   6.623  19.518  0.00  0.00    +0.000 A 
ATOM     22  C   UNL     1       2.471   7.294  18.299  0.00  0.00    +0.000 A 
ATOM     23  C   UNL     1       2.043   8.636  18.216  0.00  0.00    +0.000 A 
ATOM     24  F   UNL     1       2.359   9.355  17.131  0.00  0.00    +0.000 F 
BRANCH  21  25
ATOM     25  O   UNL     1       2.743   5.345  19.797  0.00  0.00    +0.000 OA
ATOM     26  C   UNL     1       4.156   5.164  19.871  0.00  0.00    +0.000 C 
ENDBRANCH  21  25
BRANCH  22  27
ATOM     27  O   UNL     1       3.105   6.609  17.295  0.00  0.00    +0.000 OA
ATOM     28  C   UNL     1       4.461   6.931  17.026  0.00  0.00    +0.000 C 
ENDBRANCH  22  27
ENDBRANCH  16  18
ENDBRANCH   1  16
BRANCH   1  29
ATOM     29  O   UNL     1      -1.421   9.762  18.762  0.00  0.00    +0.000 OA
BRANCH  29  32
ATOM     30  C   UNL     1      -2.718  10.954  15.662  0.00  0.00    +0.000 C 
ATOM     31  N   UNL     1      -1.974  10.795  16.876  0.00  0.00    +0.000 N 
ATOM     32  C   UNL     1      -2.391   9.903  17.824  0.00  0.00    +0.000 C 
ATOM     33  O   UNL     1      -3.448   9.283  17.798  0.00  0.00    +0.000 OA
ATOM     34  H   UNL     1      -0.999  11.039  16.924  0.00  0.00    +0.000 HD
ENDBRANCH  29  32
ENDBRANCH   1  29
TORSDOF 8
ENDMDL
MODEL 7
REMARK VINA RESULT:      -6.5      3.313      7.459
REMARK  Name = 
REMARK  15 active torsions:
REMARK  status: ('A' for Active; 'I' for Inactive)
REMARK    1  A    between atoms: C_1  and  N_2
REMARK    2  A    between atoms: C_3  and  O_5
REMARK    3  A    between atoms: O_5  and  C_6
REMARK    4  A    between atoms: C_6  and  C_7
REMARK    5  A    between atoms: C_6  and  C_21
REMARK    6  A    between atoms: C_12  and  O_13
REMARK    7  A    between atoms: O_13  and  C_14
REMARK    8  A    between atoms: C_17  and  C_18
REMARK    9  A    between atoms: C_17  and  C_19
REMARK   10  A    between atoms: C_21  and  C_22
REMARK   11  A    between atoms: C_21  and  C_23
REMARK   12  A    between atoms: C_26  and  O_27
REMARK   13  A    between atoms: O_27  and  C_28
REMARK   14  A    between atoms: C_29  and  O_30
REMARK   15  A    between atoms: O_30  and  C_31
REMARK                            x       y       z     vdW  Elec       q    Type
REMARK                         _______ _______ _______ _____ _____    ______ ____
ROOT
ATOM      1  C   UNL     1      -0.879  11.891  19.174  0.00  0.00    +0.000 C 
ENDROOT
BRANCH   1   2
ATOM      2  C   UNL     1      -0.136  13.220  19.101  0.00  0.00    +0.000 A 
ATOM      3  C   UNL     1      -0.770  14.463  18.887  0.00  0.00    +0.000 A 
ATOM      4  C   UNL     1      -0.054  15.672  19.010  0.00  0.00    +0.000 A 
ATOM      5  C   UNL     1       1.251  15.637  19.496  0.00  0.00    +0.000 A 
ATOM      6  C   UNL     1       1.826  14.401  19.791  0.00  0.00    +0.000 A 
ATOM      7  C   UNL     1       1.236  13.227  19.346  0.00  0.00    +0.000 A 
ATOM      8  C   UNL     1       2.881  14.351  20.796  0.00  0.00    +0.000 C 
ATOM      9  C   UNL     1       3.587  15.465  20.975  0.00  0.00    +0.000 C 
ATOM     10  C   UNL     1       3.339  16.657  20.079  0.00  0.00    +0.000 C 
ATOM     11  C   UNL     1       4.165  16.517  18.787  0.00  0.00    +0.000 C 
ATOM     12  C   UNL     1       3.791  17.919  20.820  0.00  0.00    +0.000 C 
ATOM     13  O   UNL     1       1.921  16.812  19.757  0.00  0.00    +0.000 OA
BRANCH   7  14
ATOM     14  O   UNL     1       1.952  12.070  19.167  0.00  0.00    +0.000 OA
ATOM     15  C   UNL     1       2.608  11.983  17.891  0.00  0.00    +0.000 C 
ENDBRANCH   7  14
ENDBRANCH   1   2
BRANCH   1  16
ATOM     16  C   UNL     1      -1.394  11.432  20.600  0.00  0.00    +0.000 C 
ATOM     17  C   UNL     1      -0.369  10.430  21.180  0.00  0.00    +0.000 C 
BRANCH  16  18
ATOM     18  C   UNL     1      -1.708  12.563  21.609  0.00  0.00    +0.000 A 
ATOM     19  C   UNL     1      -0.813  13.004  22.599  0.00  0.00    +0.000 A 
ATOM     20  C   UNL     1      -1.164  14.031  23.490  0.00  0.00    +0.000 A 
ATOM     21  C   UNL     1      -2.392  14.687  23.390  0.00  0.00    +0.000 A 
ATOM     22  C   UNL     1      -3.336  14.234  22.460  0.00  0.00    +0.000 A 
ATOM     23  C   UNL     1      -2.987  13.150  21.627  0.00  0.00    +0.000 A 
ATOM     24  F   UNL     1      -3.935  12.573  20.875  0.00  0.00    +0.000 F 
BRANCH  21  25
ATOM     25  O   UNL     1      -2.586  15.678  24.322  0.00  0.00    +0.000 OA
ATOM     26  C   UNL     1      -2.346  15.306  25.679  0.00  0.00    +0.000 C 
ENDBRANCH  21  25
BRANCH  22  27
ATOM     27  O   UNL     1      -4.567  14.836  22.489  0.00  0.00    +0.000 OA
ATOM     28  C   UNL     1      -5.580  14.237  23.283  0.00  0.00    +0.000 C 
ENDBRANCH  22  27
ENDBRANCH  16  18
ENDBRANCH   1  16
BRANCH   1  29
ATOM     29  O   UNL     1      -1.959  12.031  18.223  0.00  0.00    +0.000 OA
BRANCH  29  32
ATOM     30  C   UNL     1      -3.021  10.666  15.105  0.00  0.00    +0.000 C 
ATOM     31  N   UNL     1      -2.898  11.453  16.296  0.00  0.00    +0.000 N 
ATOM     32  C   UNL     1      -2.096  11.029  17.319  0.00  0.00    +0.000 C 
ATOM     33  O   UNL     1      -1.540   9.939  17.378  0.00  0.00    +0.000 OA
ATOM     34  H   UNL     1      -3.085  12.441  16.286  0.00  0.00    +0.000 HD
ENDBRANCH  29  32
ENDBRANCH   1  29
TORSDOF 8
ENDMDL
MODEL 8
REMARK VINA RESULT:      -6.5      2.266      3.980
REMARK  Name = 
REMARK  15 active torsions:
REMARK  status: ('A' for Active; 'I' for Inactive)
REMARK    1  A    between atoms: C_1  and  N_2
REMARK    2  A    between atoms: C_3  and  O_5
REMARK    3  A    between atoms: O_5  and  C_6
REMARK    4  A    between atoms: C_6  and  C_7
REMARK    5  A    between atoms: C_6  and  C_21
REMARK    6  A    between atoms: C_12  and  O_13
REMARK    7  A    between atoms: O_13  and  C_14
REMARK    8  A    between atoms: C_17  and  C_18
REMARK    9  A    between atoms: C_17  and  C_19
REMARK   10  A    between atoms: C_21  and  C_22
REMARK   11  A    between atoms: C_21  and  C_23
REMARK   12  A    between atoms: C_26  and  O_27
REMARK   13  A    between atoms: O_27  and  C_28
REMARK   14  A    between atoms: C_29  and  O_30
REMARK   15  A    between atoms: O_30  and  C_31
REMARK                            x       y       z     vdW  Elec       q    Type
REMARK                         _______ _______ _______ _____ _____    ______ ____
ROOT
ATOM      1  C   UNL     1      -0.222  10.715  18.657  0.00  0.00    +0.000 C 
ENDROOT
BRANCH   1   2
ATOM      2  C   UNL     1      -0.697  11.254  20.001  0.00  0.00    +0.000 A 
ATOM      3  C   UNL     1      -0.687  10.505  21.197  0.00  0.00    +0.000 A 
ATOM      4  C   UNL     1      -0.968  11.114  22.437  0.00  0.00    +0.000 A 
ATOM      5  C   UNL     1      -1.104  12.499  22.492  0.00  0.00    +0.000 A 
ATOM      6  C   UNL     1      -1.015  13.232  21.309  0.00  0.00    +0.000 A 
ATOM      7  C   UNL     1      -1.081  12.593  20.079  0.00  0.00    +0.000 A 
ATOM      8  C   UNL     1      -0.576  14.620  21.384  0.00  0.00    +0.000 C 
ATOM      9  C   UNL     1      -0.796  15.252  22.535  0.00  0.00    +0.000 C 
ATOM     10  C   UNL     1      -1.563  14.554  23.635  0.00  0.00    +0.000 C 
ATOM     11  C   UNL     1      -3.075  14.743  23.413  0.00  0.00    +0.000 C 
ATOM     12  C   UNL     1      -1.177  15.193  24.972  0.00  0.00    +0.000 C 
ATOM     13  O   UNL     1      -1.238  13.131  23.709  0.00  0.00    +0.000 OA
BRANCH   7  14
ATOM     14  O   UNL     1      -1.484  13.239  18.938  0.00  0.00    +0.000 OA
ATOM     15  C   UNL     1      -0.406  13.833  18.194  0.00  0.00    +0.000 C 
ENDBRANCH   7  14
ENDBRANCH   1   2
BRANCH   1  16
ATOM     16  C   UNL     1       1.309  10.329  18.537  0.00  0.00    +0.000 C 
ATOM     17  C   UNL     1       2.131  11.382  19.315  0.00  0.00    +0.000 C 
BRANCH  16  18
ATOM     18  C   UNL     1       1.686   8.891  18.967  0.00  0.00    +0.000 A 
ATOM     19  C   UNL     1       1.498   8.382  20.263  0.00  0.00    +0.000 A 
ATOM     20  C   UNL     1       1.870   7.069  20.590  0.00  0.00    +0.000 A 
ATOM     21  C   UNL     1       2.390   6.203  19.626  0.00  0.00    +0.000 A 
ATOM     22  C   UNL     1       2.653   6.690  18.340  0.00  0.00    +0.000 A 
ATOM     23  C   UNL     1       2.340   8.037  18.058  0.00  0.00    +0.000 A 
ATOM     24  F   UNL     1       2.763   8.578  16.908  0.00  0.00    +0.000 F 
BRANCH  21  25
ATOM     25  O   UNL     1       2.695   4.947  20.093  0.00  0.00    +0.000 OA
ATOM     26  C   UNL     1       1.904   4.485  21.187  0.00  0.00    +0.000 C 
ENDBRANCH  21  25
BRANCH  22  27
ATOM     27  O   UNL     1       3.275   5.831  17.472  0.00  0.00    +0.000 OA
ATOM     28  C   UNL     1       4.686   5.923  17.344  0.00  0.00    +0.000 C 
ENDBRANCH  22  27
ENDBRANCH  16  18
ENDBRANCH   1  16
BRANCH   1  29
ATOM     29  O   UNL     1      -1.091   9.588  18.396  0.00  0.00    +0.000 OA
BRANCH  29  32
ATOM     30  C   UNL     1      -2.848  10.981  15.623  0.00  0.00    +0.000 C 
ATOM     31  N   UNL     1      -1.899  10.720  16.665  0.00  0.00    +0.000 N 
ATOM     32  C   UNL     1      -2.208   9.847  17.670  0.00  0.00    +0.000 C 
ATOM     33  O   UNL     1      -3.305   9.332  17.850  0.00  0.00    +0.000 OA
ATOM     34  H   UNL     1      -0.915  10.867  16.519  0.00  0.00    +0.000 HD
ENDBRANCH  29  32
ENDBRANCH   1  29
TORSDOF 8
ENDMDL
MODEL 9
REMARK VINA RESULT:      -6.5      4.787      8.210
REMARK  Name = 
REMARK  15 active torsions:
REMARK  status: ('A' for Active; 'I' for Inactive)
REMARK    1  A    between atoms: C_1  and  N_2
REMARK    2  A    between atoms: C_3  and  O_5
REMARK    3  A    between atoms: O_5  and  C_6
REMARK    4  A    between atoms: C_6  and  C_7
REMARK    5  A    between atoms: C_6  and  C_21
REMARK    6  A    between atoms: C_12  and  O_13
REMARK    7  A    between atoms: O_13  and  C_14
REMARK    8  A    between atoms: C_17  and  C_18
REMARK    9  A    between atoms: C_17  and  C_19
REMARK   10  A    between atoms: C_21  and  C_22
REMARK   11  A    between atoms: C_21  and  C_23
REMARK   12  A    between atoms: C_26  and  O_27
REMARK   13  A    between atoms: O_27  and  C_28
REMARK   14  A    between atoms: C_29  and  O_30
REMARK   15  A    between atoms: O_30  and  C_31
REMARK                            x       y       z     vdW  Elec       q    Type
REMARK                         _______ _______ _______ _____ _____    ______ ____
ROOT
ATOM      1  C   UNL     1       3.178   4.297  19.808  0.00  0.00    +0.000 C 
ENDROOT
BRANCH   1   2
ATOM      2  C   UNL     1       2.448   5.633  19.891  0.00  0.00    +0.000 A 
ATOM      3  C   UNL     1       2.058   6.241  21.103  0.00  0.00    +0.000 A 
ATOM      4  C   UNL     1       1.550   7.557  21.123  0.00  0.00    +0.000 A 
ATOM      5  C   UNL     1       1.581   8.310  19.952  0.00  0.00    +0.000 A 
ATOM      6  C   UNL     1       2.060   7.718  18.784  0.00  0.00    +0.000 A 
ATOM      7  C   UNL     1       2.229   6.342  18.710  0.00  0.00    +0.000 A 
ATOM      8  C   UNL     1       2.638   8.577  17.758  0.00  0.00    +0.000 C 
ATOM      9  C   UNL     1       2.214   9.839  17.730  0.00  0.00    +0.000 C 
ATOM     10  C   UNL     1       1.110  10.275  18.665  0.00  0.00    +0.000 C 
ATOM     11  C   UNL     1      -0.259   9.957  18.036  0.00  0.00    +0.000 C 
ATOM     12  C   UNL     1       1.220  11.789  18.868  0.00  0.00    +0.000 C 
ATOM     13  O   UNL     1       1.222   9.639  19.977  0.00  0.00    +0.000 OA
BRANCH   7  14
ATOM     14  O   UNL     1       2.216   5.665  17.518  0.00  0.00    +0.000 OA
ATOM     15  C   UNL     1       1.189   4.662  17.429  0.00  0.00    +0.000 C 
ENDBRANCH   7  14
ENDBRANCH   1   2
BRANCH   1  16
ATOM     16  C   UNL     1       4.757   4.345  19.705  0.00  0.00    +0.000 C 
ATOM     17  C   UNL     1       5.314   3.010  20.252  0.00  0.00    +0.000 C 
BRANCH  16  18
ATOM     18  C   UNL     1       5.341   4.667  18.308  0.00  0.00    +0.000 A 
ATOM     19  C   UNL     1       4.969   4.003  17.127  0.00  0.00    +0.000 A 
ATOM     20  C   UNL     1       5.543   4.340  15.892  0.00  0.00    +0.000 A 
ATOM     21  C   UNL     1       6.465   5.383  15.783  0.00  0.00    +0.000 A 
ATOM     22  C   UNL     1       6.910   6.026  16.944  0.00  0.00    +0.000 A 
ATOM     23  C   UNL     1       6.372   5.617  18.183  0.00  0.00    +0.000 A 
ATOM     24  F   UNL     1       6.924   6.074  19.316  0.00  0.00    +0.000 F 
BRANCH  21  25
ATOM     25  O   UNL     1       6.929   5.602  14.508  0.00  0.00    +0.000 OA
ATOM     26  C   UNL     1       6.732   4.532  13.585  0.00  0.00    +0.000 C 
ENDBRANCH  21  25
BRANCH  22  27
ATOM     27  O   UNL     1       7.903   6.958  16.789  0.00  0.00    +0.000 OA
ATOM     28  C   UNL     1       7.740   8.213  17.432  0.00  0.00    +0.000 C 
ENDBRANCH  22  27
ENDBRANCH  16  18
ENDBRANCH   1  16
BRANCH   1  29
ATOM     29  O   UNL     1       2.730   3.571  20.976  0.00  0.00    +0.000 OA
BRANCH  29  32
ATOM     30  C   UNL     1       0.699   1.337  19.080  0.00  0.00    +0.000 C 
ATOM     31  N   UNL     1       1.597   2.377  19.486  0.00  0.00    +0.000 N 
ATOM     32  C   UNL     1       1.666   2.748  20.800  0.00  0.00    +0.000 C 
ATOM     33  O   UNL     1       0.921   2.352  21.689  0.00  0.00    +0.000 OA
ATOM     34  H   UNL     1       2.409   2.605  18.938  0.00  0.00    +0.000 HD
ENDBRANCH  29  32
ENDBRANCH   1  29
TORSDOF 8
ENDMDL
