MODEL 1
REMARK VINA RESULT:      -8.3      0.000      0.000
REMARK  Name = 
REMARK  7 active torsions:
REMARK  status: ('A' for Active; 'I' for Inactive)
REMARK    1  A    between atoms: C_1  and  C_2
REMARK    2  A    between atoms: N_3  and  C_4
REMARK    3  A    between atoms: N_11  and  C_12
REMARK    4  A    between atoms: C_12  and  C_13
REMARK    5  A    between atoms: C_13  and  C_14
REMARK    6  A    between atoms: C_14  and  C_15
REMARK    7  A    between atoms: C_15  and  C_17
REMARK                            x       y       z     vdW  Elec       q    Type
REMARK                         _______ _______ _______ _____ _____    ______ ____
ROOT
ATOM      1  C   UNL     1       2.498   6.241  18.081  0.00  0.00    +0.000 C 
ATOM      2  C   UNL     1       3.341   5.233  18.859  0.00  0.00    +0.000 C 
ATOM      3  N   UNL     1       2.776   3.908  18.815  0.00  0.00    +0.000 N 
ATOM      4  C   UNL     1       1.485   3.578  19.373  0.00  0.00    +0.000 C 
ATOM      5  C   UNL     1       3.772   2.965  18.749  0.00  0.00    +0.000 C 
ATOM      6  O   UNL     1       3.654   1.769  18.958  0.00  0.00    +0.000 OA
ATOM      7  O   UNL     1       4.955   3.563  18.436  0.00  0.00    +0.000 OA
ATOM      8  C   UNL     1       4.777   4.999  18.337  0.00  0.00    +0.000 C 
ATOM      9  C   UNL     1       5.000   5.410  16.868  0.00  0.00    +0.000 C 
ATOM     10  C   UNL     1       6.470   5.330  16.442  0.00  0.00    +0.000 C 
ATOM     11  N   UNL     1       7.381   6.029  17.362  0.00  0.00    +0.000 NA
ATOM     12  C   UNL     1       7.239   5.446  18.703  0.00  0.00    +0.000 C 
ATOM     13  C   UNL     1       5.829   5.619  19.272  0.00  0.00    +0.000 C 
ENDROOT
BRANCH  11  14
ATOM     14  C   UNL     1       7.218   7.491  17.312  0.00  0.00    +0.000 C 
BRANCH  14  15
ATOM     15  C   UNL     1       8.267   8.245  18.138  0.00  0.00    +0.000 C 
BRANCH  15  16
ATOM     16  C   UNL     1       8.160   9.755  17.931  0.00  0.00    +0.000 C 
BRANCH  16  17
ATOM     17  C   UNL     1       9.162  10.503  18.796  0.00  0.00    +0.000 C 
ATOM     18  O   UNL     1       9.450  10.140  19.935  0.00  0.00    +0.000 OA
BRANCH  17  19
ATOM     19  C   UNL     1       9.805  11.733  18.245  0.00  0.00    +0.000 A 
ATOM     20  C   UNL     1      11.078  11.709  17.654  0.00  0.00    +0.000 A 
ATOM     21  C   UNL     1      11.641  12.887  17.157  0.00  0.00    +0.000 A 
ATOM     22  C   UNL     1      10.936  14.082  17.256  0.00  0.00    +0.000 A 
ATOM     23  F   UNL     1      11.478  15.208  16.783  0.00  0.00    +0.000 F 
ATOM     24  C   UNL     1       9.669  14.120  17.831  0.00  0.00    +0.000 A 
ATOM     25  C   UNL     1       9.103  12.946  18.326  0.00  0.00    +0.000 A 
ENDBRANCH  17  19
ENDBRANCH  16  17
ENDBRANCH  15  16
ENDBRANCH  14  15
ENDBRANCH  11  14
TORSDOF 5
ENDMDL
MODEL 2
REMARK VINA RESULT:      -8.1      0.457      1.071
REMARK  Name = 
REMARK  7 active torsions:
REMARK  status: ('A' for Active; 'I' for Inactive)
REMARK    1  A    between atoms: C_1  and  C_2
REMARK    2  A    between atoms: N_3  and  C_4
REMARK    3  A    between atoms: N_11  and  C_12
REMARK    4  A    between atoms: C_12  and  C_13
REMARK    5  A    between atoms: C_13  and  C_14
REMARK    6  A    between atoms: C_14  and  C_15
REMARK    7  A    between atoms: C_15  and  C_17
REMARK                            x       y       z     vdW  Elec       q    Type
REMARK                         _______ _______ _______ _____ _____    ______ ____
ROOT
ATOM      1  C   UNL     1       2.163   5.996  18.150  0.00  0.00    +0.000 C 
ATOM      2  C   UNL     1       3.030   4.869  18.707  0.00  0.00    +0.000 C 
ATOM      3  N   UNL     1       2.487   3.569  18.403  0.00  0.00    +0.000 N 
ATOM      4  C   UNL     1       1.207   3.110  18.891  0.00  0.00    +0.000 C 
ATOM      5  C   UNL     1       3.499   2.677  18.146  0.00  0.00    +0.000 C 
ATOM      6  O   UNL     1       3.403   1.461  18.113  0.00  0.00    +0.000 OA
ATOM      7  O   UNL     1       4.668   3.347  17.952  0.00  0.00    +0.000 OA
ATOM      8  C   UNL     1       4.465   4.771  18.141  0.00  0.00    +0.000 C 
ATOM      9  C   UNL     1       4.667   5.470  16.783  0.00  0.00    +0.000 C 
ATOM     10  C   UNL     1       6.134   5.504  16.342  0.00  0.00    +0.000 C 
ATOM     11  N   UNL     1       7.041   6.023  17.377  0.00  0.00    +0.000 NA
ATOM     12  C   UNL     1       6.921   5.182  18.576  0.00  0.00    +0.000 C 
ATOM     13  C   UNL     1       5.514   5.212  19.176  0.00  0.00    +0.000 C 
ENDROOT
BRANCH  11  14
ATOM     14  C   UNL     1       6.853   7.463  17.620  0.00  0.00    +0.000 C 
BRANCH  14  15
ATOM     15  C   UNL     1       8.167   8.250  17.635  0.00  0.00    +0.000 C 
BRANCH  15  16
ATOM     16  C   UNL     1       7.922   9.742  17.859  0.00  0.00    +0.000 C 
BRANCH  16  17
ATOM     17  C   UNL     1       9.047  10.372  18.665  0.00  0.00    +0.000 C 
ATOM     18  O   UNL     1       9.501   9.852  19.681  0.00  0.00    +0.000 OA
BRANCH  17  19
ATOM     19  C   UNL     1       9.605  11.680  18.211  0.00  0.00    +0.000 A 
ATOM     20  C   UNL     1       8.871  12.874  18.292  0.00  0.00    +0.000 A 
ATOM     21  C   UNL     1       9.434  14.073  17.849  0.00  0.00    +0.000 A 
ATOM     22  C   UNL     1      10.723  14.076  17.324  0.00  0.00    +0.000 A 
ATOM     23  F   UNL     1      11.258  15.224  16.899  0.00  0.00    +0.000 F 
ATOM     24  C   UNL     1      11.466  12.902  17.246  0.00  0.00    +0.000 A 
ATOM     25  C   UNL     1      10.909  11.704  17.689  0.00  0.00    +0.000 A 
ENDBRANCH  17  19
ENDBRANCH  16  17
ENDBRANCH  15  16
ENDBRANCH  14  15
ENDBRANCH  11  14
TORSDOF 5
ENDMDL
MODEL 3
REMARK VINA RESULT:      -7.8      0.981      1.221
REMARK  Name = 
REMARK  7 active torsions:
REMARK  status: ('A' for Active; 'I' for Inactive)
REMARK    1  A    between atoms: C_1  and  C_2
REMARK    2  A    between atoms: N_3  and  C_4
REMARK    3  A    between atoms: N_11  and  C_12
REMARK    4  A    between atoms: C_12  and  C_13
REMARK    5  A    between atoms: C_13  and  C_14
REMARK    6  A    between atoms: C_14  and  C_15
REMARK    7  A    between atoms: C_15  and  C_17
REMARK                            x       y       z     vdW  Elec       q    Type
REMARK                         _______ _______ _______ _____ _____    ______ ____
ROOT
ATOM      1  C   UNL     1       2.635   6.222  19.621  0.00  0.00    +0.000 C 
ATOM      2  C   UNL     1       3.562   5.022  19.433  0.00  0.00    +0.000 C 
ATOM      3  N   UNL     1       2.839   3.836  19.052  0.00  0.00    +0.000 N 
ATOM      4  C   UNL     1       1.848   3.205  19.894  0.00  0.00    +0.000 C 
ATOM      5  C   UNL     1       3.575   3.093  18.162  0.00  0.00    +0.000 C 
ATOM      6  O   UNL     1       3.377   1.931  17.848  0.00  0.00    +0.000 OA
ATOM      7  O   UNL     1       4.606   3.840  17.678  0.00  0.00    +0.000 OA
ATOM      8  C   UNL     1       4.616   5.146  18.310  0.00  0.00    +0.000 C 
ATOM      9  C   UNL     1       4.287   6.201  17.236  0.00  0.00    +0.000 C 
ATOM     10  C   UNL     1       5.433   6.418  16.242  0.00  0.00    +0.000 C 
ATOM     11  N   UNL     1       6.728   6.668  16.893  0.00  0.00    +0.000 NA
ATOM     12  C   UNL     1       7.054   5.525  17.756  0.00  0.00    +0.000 C 
ATOM     13  C   UNL     1       6.033   5.328  18.879  0.00  0.00    +0.000 C 
ENDROOT
BRANCH  11  14
ATOM     14  C   UNL     1       6.775   7.976  17.569  0.00  0.00    +0.000 C 
BRANCH  14  15
ATOM     15  C   UNL     1       8.201   8.450  17.869  0.00  0.00    +0.000 C 
BRANCH  15  16
ATOM     16  C   UNL     1       8.284   9.975  17.914  0.00  0.00    +0.000 C 
BRANCH  16  17
ATOM     17  C   UNL     1       9.234  10.445  19.004  0.00  0.00    +0.000 C 
ATOM     18  O   UNL     1       9.335   9.867  20.083  0.00  0.00    +0.000 OA
BRANCH  17  19
ATOM     19  C   UNL     1      10.059  11.665  18.757  0.00  0.00    +0.000 A 
ATOM     20  C   UNL     1      10.322  12.606  19.765  0.00  0.00    +0.000 A 
ATOM     21  C   UNL     1      11.095  13.735  19.483  0.00  0.00    +0.000 A 
ATOM     22  C   UNL     1      11.597  13.924  18.200  0.00  0.00    +0.000 A 
ATOM     23  F   UNL     1      12.333  15.006  17.933  0.00  0.00    +0.000 F 
ATOM     24  C   UNL     1      11.352  12.995  17.192  0.00  0.00    +0.000 A 
ATOM     25  C   UNL     1      10.584  11.866  17.469  0.00  0.00    +0.000 A 
ENDBRANCH  17  19
ENDBRANCH  16  17
ENDBRANCH  15  16
ENDBRANCH  14  15
ENDBRANCH  11  14
TORSDOF 5
ENDMDL
MODEL 4
REMARK VINA RESULT:      -7.7      5.622      6.856
REMARK  Name = 
REMARK  7 active torsions:
REMARK  status: ('A' for Active; 'I' for Inactive)
REMARK    1  A    between atoms: C_1  and  C_2
REMARK    2  A    between atoms: N_3  and  C_4
REMARK    3  A    between atoms: N_11  and  C_12
REMARK    4  A    between atoms: C_12  and  C_13
REMARK    5  A    between atoms: C_13  and  C_14
REMARK    6  A    between atoms: C_14  and  C_15
REMARK    7  A    between atoms: C_15  and  C_17
REMARK                            x       y       z     vdW  Elec       q    Type
REMARK                         _______ _______ _______ _____ _____    ______ ____
ROOT
ATOM      1  C   UNL     1       1.561   4.171  19.251  0.00  0.00    +0.000 C 
ATOM      2  C   UNL     1       2.914   4.086  19.956  0.00  0.00    +0.000 C 
ATOM      3  N   UNL     1       3.103   2.817  20.610  0.00  0.00    +0.000 N 
ATOM      4  C   UNL     1       2.271   2.353  21.697  0.00  0.00    +0.000 C 
ATOM      5  C   UNL     1       4.414   2.420  20.515  0.00  0.00    +0.000 C 
ATOM      6  O   UNL     1       4.957   1.545  21.168  0.00  0.00    +0.000 OA
ATOM      7  O   UNL     1       5.058   3.175  19.582  0.00  0.00    +0.000 OA
ATOM      8  C   UNL     1       4.161   4.182  19.048  0.00  0.00    +0.000 C 
ATOM      9  C   UNL     1       3.901   3.854  17.565  0.00  0.00    +0.000 C 
ATOM     10  C   UNL     1       5.114   4.130  16.671  0.00  0.00    +0.000 C 
ATOM     11  N   UNL     1       5.678   5.476  16.854  0.00  0.00    +0.000 NA
ATOM     12  C   UNL     1       6.074   5.636  18.260  0.00  0.00    +0.000 C 
ATOM     13  C   UNL     1       4.887   5.526  19.220  0.00  0.00    +0.000 C 
ENDROOT
BRANCH  11  14
ATOM     14  C   UNL     1       4.788   6.534  16.347  0.00  0.00    +0.000 C 
BRANCH  14  15
ATOM     15  C   UNL     1       4.266   7.464  17.448  0.00  0.00    +0.000 C 
BRANCH  15  16
ATOM     16  C   UNL     1       2.739   7.488  17.481  0.00  0.00    +0.000 C 
BRANCH  16  17
ATOM     17  C   UNL     1       2.217   8.830  17.969  0.00  0.00    +0.000 C 
ATOM     18  O   UNL     1       2.427   9.878  17.363  0.00  0.00    +0.000 OA
BRANCH  17  19
ATOM     19  C   UNL     1       1.438   8.873  19.242  0.00  0.00    +0.000 A 
ATOM     20  C   UNL     1       0.453   9.845  19.481  0.00  0.00    +0.000 A 
ATOM     21  C   UNL     1      -0.246   9.848  20.690  0.00  0.00    +0.000 A 
ATOM     22  C   UNL     1       0.042   8.889  21.656  0.00  0.00    +0.000 A 
ATOM     23  F   UNL     1      -0.626   8.897  22.812  0.00  0.00    +0.000 F 
ATOM     24  C   UNL     1       1.009   7.914  21.429  0.00  0.00    +0.000 A 
ATOM     25  C   UNL     1       1.707   7.905  20.223  0.00  0.00    +0.000 A 
ENDBRANCH  17  19
ENDBRANCH  16  17
ENDBRANCH  15  16
ENDBRANCH  14  15
ENDBRANCH  11  14
TORSDOF 5
ENDMDL
MODEL 5
REMARK VINA RESULT:      -7.3      7.256     10.418
REMARK  Name = 
REMARK  7 active torsions:
REMARK  status: ('A' for Active; 'I' for Inactive)
REMARK    1  A    between atoms: C_1  and  C_2
REMARK    2  A    between atoms: N_3  and  C_4
REMARK    3  A    between atoms: N_11  and  C_12
REMARK    4  A    between atoms: C_12  and  C_13
REMARK    5  A    between atoms: C_13  and  C_14
REMARK    6  A    between atoms: C_14  and  C_15
REMARK    7  A    between atoms: C_15  and  C_17
REMARK                            x       y       z     vdW  Elec       q    Type
REMARK                         _______ _______ _______ _____ _____    ______ ____
ROOT
ATOM      1  C   UNL     1      -3.242   9.969  17.642  0.00  0.00    +0.000 C 
ATOM      2  C   UNL     1      -3.015  11.406  18.110  0.00  0.00    +0.000 C 
ATOM      3  N   UNL     1      -4.054  11.855  19.001  0.00  0.00    +0.000 N 
ATOM      4  C   UNL     1      -5.438  11.980  18.606  0.00  0.00    +0.000 C 
ATOM      5  C   UNL     1      -3.529  12.665  19.977  0.00  0.00    +0.000 C 
ATOM      6  O   UNL     1      -4.153  13.407  20.718  0.00  0.00    +0.000 OA
ATOM      7  O   UNL     1      -2.172  12.549  19.995  0.00  0.00    +0.000 OA
ATOM      8  C   UNL     1      -1.734  11.656  18.939  0.00  0.00    +0.000 C 
ATOM      9  C   UNL     1      -1.136  10.396  19.593  0.00  0.00    +0.000 C 
ATOM     10  C   UNL     1       0.221  10.653  20.254  0.00  0.00    +0.000 C 
ATOM     11  N   UNL     1       1.181  11.331  19.369  0.00  0.00    +0.000 NA
ATOM     12  C   UNL     1       0.606  12.613  18.941  0.00  0.00    +0.000 C 
ATOM     13  C   UNL     1      -0.683  12.440  18.135  0.00  0.00    +0.000 C 
ENDROOT
BRANCH  11  14
ATOM     14  C   UNL     1       1.635  10.468  18.266  0.00  0.00    +0.000 C 
BRANCH  14  15
ATOM     15  C   UNL     1       1.905   9.023  18.700  0.00  0.00    +0.000 C 
BRANCH  15  16
ATOM     16  C   UNL     1       2.360   8.162  17.522  0.00  0.00    +0.000 C 
BRANCH  16  17
ATOM     17  C   UNL     1       3.189   6.977  17.992  0.00  0.00    +0.000 C 
ATOM     18  O   UNL     1       4.411   6.941  17.875  0.00  0.00    +0.000 OA
BRANCH  17  19
ATOM     19  C   UNL     1       2.485   5.809  18.600  0.00  0.00    +0.000 A 
ATOM     20  C   UNL     1       2.028   4.728  17.829  0.00  0.00    +0.000 A 
ATOM     21  C   UNL     1       1.369   3.660  18.443  0.00  0.00    +0.000 A 
ATOM     22  C   UNL     1       1.166   3.676  19.820  0.00  0.00    +0.000 A 
ATOM     23  F   UNL     1       0.534   2.654  20.403  0.00  0.00    +0.000 F 
ATOM     24  C   UNL     1       1.622   4.735  20.598  0.00  0.00    +0.000 A 
ATOM     25  C   UNL     1       2.282   5.802  19.990  0.00  0.00    +0.000 A 
ENDBRANCH  17  19
ENDBRANCH  16  17
ENDBRANCH  15  16
ENDBRANCH  14  15
ENDBRANCH  11  14
TORSDOF 5
ENDMDL
MODEL 6
REMARK VINA RESULT:      -7.3      1.837      2.076
REMARK  Name = 
REMARK  7 active torsions:
REMARK  status: ('A' for Active; 'I' for Inactive)
REMARK    1  A    between atoms: C_1  and  C_2
REMARK    2  A    between atoms: N_3  and  C_4
REMARK    3  A    between atoms: N_11  and  C_12
REMARK    4  A    between atoms: C_12  and  C_13
REMARK    5  A    between atoms: C_13  and  C_14
REMARK    6  A    between atoms: C_14  and  C_15
REMARK    7  A    between atoms: C_15  and  C_17
REMARK                            x       y       z     vdW  Elec       q    Type
REMARK                         _______ _______ _______ _____ _____    ______ ____
ROOT
ATOM      1  C   UNL     1       2.901   6.185  19.786  0.00  0.00    +0.000 C 
ATOM      2  C   UNL     1       3.414   4.846  19.260  0.00  0.00    +0.000 C 
ATOM      3  N   UNL     1       2.382   4.097  18.589  0.00  0.00    +0.000 N 
ATOM      4  C   UNL     1       1.191   3.619  19.252  0.00  0.00    +0.000 C 
ATOM      5  C   UNL     1       2.905   3.420  17.514  0.00  0.00    +0.000 C 
ATOM      6  O   UNL     1       2.373   2.508  16.903  0.00  0.00    +0.000 OA
ATOM      7  O   UNL     1       4.147   3.897  17.227  0.00  0.00    +0.000 OA
ATOM      8  C   UNL     1       4.525   4.917  18.187  0.00  0.00    +0.000 C 
ATOM      9  C   UNL     1       4.615   6.265  17.446  0.00  0.00    +0.000 C 
ATOM     10  C   UNL     1       5.833   6.358  16.521  0.00  0.00    +0.000 C 
ATOM     11  N   UNL     1       7.096   6.000  17.185  0.00  0.00    +0.000 NA
ATOM     12  C   UNL     1       6.989   4.628  17.699  0.00  0.00    +0.000 C 
ATOM     13  C   UNL     1       5.887   4.480  18.751  0.00  0.00    +0.000 C 
ENDROOT
BRANCH  11  14
ATOM     14  C   UNL     1       7.507   6.997  18.187  0.00  0.00    +0.000 C 
BRANCH  14  15
ATOM     15  C   UNL     1       7.917   8.340  17.572  0.00  0.00    +0.000 C 
BRANCH  15  16
ATOM     16  C   UNL     1       8.699   9.195  18.568  0.00  0.00    +0.000 C 
BRANCH  16  17
ATOM     17  C   UNL     1       8.572  10.675  18.245  0.00  0.00    +0.000 C 
ATOM     18  O   UNL     1       7.992  11.083  17.241  0.00  0.00    +0.000 OA
BRANCH  17  19
ATOM     19  C   UNL     1       9.193  11.666  19.173  0.00  0.00    +0.000 A 
ATOM     20  C   UNL     1       9.538  11.337  20.494  0.00  0.00    +0.000 A 
ATOM     21  C   UNL     1      10.111  12.300  21.327  0.00  0.00    +0.000 A 
ATOM     22  C   UNL     1      10.335  13.586  20.843  0.00  0.00    +0.000 A 
ATOM     23  F   UNL     1      10.881  14.505  21.644  0.00  0.00    +0.000 F 
ATOM     24  C   UNL     1      10.007  13.923  19.533  0.00  0.00    +0.000 A 
ATOM     25  C   UNL     1       9.437  12.965  18.698  0.00  0.00    +0.000 A 
ENDBRANCH  17  19
ENDBRANCH  16  17
ENDBRANCH  15  16
ENDBRANCH  14  15
ENDBRANCH  11  14
TORSDOF 5
ENDMDL
MODEL 7
REMARK VINA RESULT:      -7.2      5.684      7.754
REMARK  Name = 
REMARK  7 active torsions:
REMARK  status: ('A' for Active; 'I' for Inactive)
REMARK    1  A    between atoms: C_1  and  C_2
REMARK    2  A    between atoms: N_3  and  C_4
REMARK    3  A    between atoms: N_11  and  C_12
REMARK    4  A    between atoms: C_12  and  C_13
REMARK    5  A    between atoms: C_13  and  C_14
REMARK    6  A    between atoms: C_14  and  C_15
REMARK    7  A    between atoms: C_15  and  C_17
REMARK                            x       y       z     vdW  Elec       q    Type
REMARK                         _______ _______ _______ _____ _____    ______ ____
ROOT
ATOM      1  C   UNL     1       4.829   3.827  13.657  0.00  0.00    +0.000 C 
ATOM      2  C   UNL     1       6.281   4.009  14.093  0.00  0.00    +0.000 C 
ATOM      3  N   UNL     1       7.084   4.611  13.060  0.00  0.00    +0.000 N 
ATOM      4  C   UNL     1       7.327   3.988  11.779  0.00  0.00    +0.000 C 
ATOM      5  C   UNL     1       8.011   5.463  13.610  0.00  0.00    +0.000 C 
ATOM      6  O   UNL     1       8.994   5.922  13.054  0.00  0.00    +0.000 OA
ATOM      7  O   UNL     1       7.692   5.716  14.910  0.00  0.00    +0.000 OA
ATOM      8  C   UNL     1       6.518   4.954  15.293  0.00  0.00    +0.000 C 
ATOM      9  C   UNL     1       5.370   5.946  15.564  0.00  0.00    +0.000 C 
ATOM     10  C   UNL     1       5.561   6.741  16.859  0.00  0.00    +0.000 C 
ATOM     11  N   UNL     1       5.853   5.893  18.025  0.00  0.00    +0.000 NA
ATOM     12  C   UNL     1       7.071   5.118  17.755  0.00  0.00    +0.000 C 
ATOM     13  C   UNL     1       6.915   4.176  16.559  0.00  0.00    +0.000 C 
ENDROOT
BRANCH  11  14
ATOM     14  C   UNL     1       4.694   5.082  18.436  0.00  0.00    +0.000 C 
BRANCH  14  15
ATOM     15  C   UNL     1       3.784   5.795  19.442  0.00  0.00    +0.000 C 
BRANCH  15  16
ATOM     16  C   UNL     1       2.465   6.222  18.798  0.00  0.00    +0.000 C 
BRANCH  16  17
ATOM     17  C   UNL     1       2.372   7.735  18.681  0.00  0.00    +0.000 C 
ATOM     18  O   UNL     1       2.995   8.370  17.832  0.00  0.00    +0.000 OA
BRANCH  17  19
ATOM     19  C   UNL     1       1.506   8.475  19.646  0.00  0.00    +0.000 A 
ATOM     20  C   UNL     1       1.351   8.062  20.979  0.00  0.00    +0.000 A 
ATOM     21  C   UNL     1       0.524   8.783  21.843  0.00  0.00    +0.000 A 
ATOM     22  C   UNL     1      -0.147   9.909  21.375  0.00  0.00    +0.000 A 
ATOM     23  F   UNL     1      -0.939  10.595  22.203  0.00  0.00    +0.000 F 
ATOM     24  C   UNL     1       0.005  10.336  20.059  0.00  0.00    +0.000 A 
ATOM     25  C   UNL     1       0.830   9.620  19.194  0.00  0.00    +0.000 A 
ENDBRANCH  17  19
ENDBRANCH  16  17
ENDBRANCH  15  16
ENDBRANCH  14  15
ENDBRANCH  11  14
TORSDOF 5
ENDMDL
MODEL 8
REMARK VINA RESULT:      -7.2      7.061     10.091
REMARK  Name = 
REMARK  7 active torsions:
REMARK  status: ('A' for Active; 'I' for Inactive)
REMARK    1  A    between atoms: C_1  and  C_2
REMARK    2  A    between atoms: N_3  and  C_4
REMARK    3  A    between atoms: N_11  and  C_12
REMARK    4  A    between atoms: C_12  and  C_13
REMARK    5  A    between atoms: C_13  and  C_14
REMARK    6  A    between atoms: C_14  and  C_15
REMARK    7  A    between atoms: C_15  and  C_17
REMARK                            x       y       z     vdW  Elec       q    Type
REMARK                         _______ _______ _______ _____ _____    ______ ____
ROOT
ATOM      1  C   UNL     1      -2.884  10.066  16.858  0.00  0.00    +0.000 C 
ATOM      2  C   UNL     1      -2.848  11.396  17.609  0.00  0.00    +0.000 C 
ATOM      3  N   UNL     1      -4.032  11.599  18.405  0.00  0.00    +0.000 N 
ATOM      4  C   UNL     1      -5.357  11.714  17.840  0.00  0.00    +0.000 C 
ATOM      5  C   UNL     1      -3.715  12.235  19.580  0.00  0.00    +0.000 C 
ATOM      6  O   UNL     1      -4.495  12.780  20.344  0.00  0.00    +0.000 OA
ATOM      7  O   UNL     1      -2.367  12.201  19.775  0.00  0.00    +0.000 OA
ATOM      8  C   UNL     1      -1.716  11.558  18.649  0.00  0.00    +0.000 C 
ATOM      9  C   UNL     1      -1.102  10.233  19.142  0.00  0.00    +0.000 C 
ATOM     10  C   UNL     1       0.128  10.439  20.032  0.00  0.00    +0.000 C 
ATOM     11  N   UNL     1       1.133  11.333  19.437  0.00  0.00    +0.000 NA
ATOM     12  C   UNL     1       0.510  12.637  19.172  0.00  0.00    +0.000 C 
ATOM     13  C   UNL     1      -0.640  12.545  18.167  0.00  0.00    +0.000 C 
ENDROOT
BRANCH  11  14
ATOM     14  C   UNL     1       1.805  10.731  18.273  0.00  0.00    +0.000 C 
BRANCH  14  15
ATOM     15  C   UNL     1       1.364   9.288  18.002  0.00  0.00    +0.000 C 
BRANCH  15  16
ATOM     16  C   UNL     1       2.558   8.335  17.977  0.00  0.00    +0.000 C 
BRANCH  16  17
ATOM     17  C   UNL     1       2.406   7.230  19.010  0.00  0.00    +0.000 C 
ATOM     18  O   UNL     1       2.014   7.449  20.155  0.00  0.00    +0.000 OA
BRANCH  17  19
ATOM     19  C   UNL     1       2.763   5.834  18.622  0.00  0.00    +0.000 A 
ATOM     20  C   UNL     1       1.885   5.012  17.897  0.00  0.00    +0.000 A 
ATOM     21  C   UNL     1       2.262   3.710  17.562  0.00  0.00    +0.000 A 
ATOM     22  C   UNL     1       3.509   3.231  17.955  0.00  0.00    +0.000 A 
ATOM     23  F   UNL     1       3.865   1.984  17.635  0.00  0.00    +0.000 F 
ATOM     24  C   UNL     1       4.393   4.036  18.666  0.00  0.00    +0.000 A 
ATOM     25  C   UNL     1       4.022   5.338  19.000  0.00  0.00    +0.000 A 
ENDBRANCH  17  19
ENDBRANCH  16  17
ENDBRANCH  15  16
ENDBRANCH  14  15
ENDBRANCH  11  14
TORSDOF 5
ENDMDL
MODEL 9
REMARK VINA RESULT:      -7.1      6.765      9.340
REMARK  Name = 
REMARK  7 active torsions:
REMARK  status: ('A' for Active; 'I' for Inactive)
REMARK    1  A    between atoms: C_1  and  C_2
REMARK    2  A    between atoms: N_3  and  C_4
REMARK    3  A    between atoms: N_11  and  C_12
REMARK    4  A    between atoms: C_12  and  C_13
REMARK    5  A    between atoms: C_13  and  C_14
REMARK    6  A    between atoms: C_14  and  C_15
REMARK    7  A    between atoms: C_15  and  C_17
REMARK                            x       y       z     vdW  Elec       q    Type
REMARK                         _______ _______ _______ _____ _____    ______ ____
ROOT
ATOM      1  C   UNL     1      -2.970  10.110  16.487  0.00  0.00    +0.000 C 
ATOM      2  C   UNL     1      -2.951  11.404  17.299  0.00  0.00    +0.000 C 
ATOM      3  N   UNL     1      -4.197  11.629  17.986  0.00  0.00    +0.000 N 
ATOM      4  C   UNL     1      -5.456  11.827  17.304  0.00  0.00    +0.000 C 
ATOM      5  C   UNL     1      -3.969  12.201  19.214  0.00  0.00    +0.000 C 
ATOM      6  O   UNL     1      -4.796  12.748  19.924  0.00  0.00    +0.000 OA
ATOM      7  O   UNL     1      -2.650  12.097  19.535  0.00  0.00    +0.000 OA
ATOM      8  C   UNL     1      -1.919  11.473  18.448  0.00  0.00    +0.000 C 
ATOM      9  C   UNL     1      -1.412  10.102  18.935  0.00  0.00    +0.000 C 
ATOM     10  C   UNL     1      -0.266  10.215  19.946  0.00  0.00    +0.000 C 
ATOM     11  N   UNL     1       0.828  11.086  19.491  0.00  0.00    +0.000 NA
ATOM     12  C   UNL     1       0.288  12.427  19.228  0.00  0.00    +0.000 C 
ATOM     13  C   UNL     1      -0.762  12.429  18.114  0.00  0.00    +0.000 C 
ENDROOT
BRANCH  11  14
ATOM     14  C   UNL     1       1.583  10.502  18.370  0.00  0.00    +0.000 C 
BRANCH  14  15
ATOM     15  C   UNL     1       1.485   8.974  18.307  0.00  0.00    +0.000 C 
BRANCH  15  16
ATOM     16  C   UNL     1       2.742   8.358  17.691  0.00  0.00    +0.000 C 
BRANCH  16  17
ATOM     17  C   UNL     1       3.047   6.999  18.301  0.00  0.00    +0.000 C 
ATOM     18  O   UNL     1       2.312   6.469  19.130  0.00  0.00    +0.000 OA
BRANCH  17  19
ATOM     19  C   UNL     1       4.297   6.295  17.886  0.00  0.00    +0.000 A 
ATOM     20  C   UNL     1       4.919   6.540  16.652  0.00  0.00    +0.000 A 
ATOM     21  C   UNL     1       6.084   5.852  16.306  0.00  0.00    +0.000 A 
ATOM     22  C   UNL     1       6.621   4.920  17.189  0.00  0.00    +0.000 A 
ATOM     23  F   UNL     1       7.733   4.261  16.854  0.00  0.00    +0.000 F 
ATOM     24  C   UNL     1       6.021   4.673  18.420  0.00  0.00    +0.000 A 
ATOM     25  C   UNL     1       4.859   5.359  18.770  0.00  0.00    +0.000 A 
ENDBRANCH  17  19
ENDBRANCH  16  17
ENDBRANCH  15  16
ENDBRANCH  14  15
ENDBRANCH  11  14
TORSDOF 5
ENDMDL
