MODEL 1
REMARK VINA RESULT:      -7.6      0.000      0.000
REMARK  Name = 
REMARK  5 active torsions:
REMARK  status: ('A' for Active; 'I' for Inactive)
REMARK    1  A    between atoms: C_1  and  C_2
REMARK    2  A    between atoms: N_10  and  C_11
REMARK    3  A    between atoms: C_11  and  C_12
REMARK    4  A    between atoms: C_12  and  C_13
REMARK    5  A    between atoms: C_16  and  C_17
REMARK                            x       y       z     vdW  Elec       q    Type
REMARK                         _______ _______ _______ _____ _____    ______ ____
ROOT
ATOM      1  C   UNL     1       2.864   1.817  18.598  0.00  0.00    +0.000 C 
ENDROOT
BRANCH   1   2
ATOM      2  C   UNL     1       3.995   2.715  18.253  0.00  0.00    +0.000 A 
ATOM      3  N   UNL     1       4.944   3.093  19.120  0.00  0.00    +0.000 NA
ATOM      4  O   UNL     1       5.787   3.896  18.345  0.00  0.00    +0.000 OA
ATOM      5  C   UNL     1       5.255   3.912  17.085  0.00  0.00    +0.000 A 
ATOM      6  N   UNL     1       4.172   3.174  16.977  0.00  0.00    +0.000 NA
BRANCH   5   7
ATOM      7  C   UNL     1       5.969   4.715  16.045  0.00  0.00    +0.000 C 
ATOM      8  C   UNL     1       5.411   6.144  15.957  0.00  0.00    +0.000 C 
ATOM      9  C   UNL     1       5.813   6.986  17.168  0.00  0.00    +0.000 C 
ATOM     10  C   UNL     1       7.309   6.890  17.439  0.00  0.00    +0.000 C 
ATOM     11  O   UNL     1       7.746   5.534  17.522  0.00  0.00    +0.000 OA
ATOM     12  C   UNL     1       7.472   4.788  16.334  0.00  0.00    +0.000 C 
ENDBRANCH   5   7
ENDBRANCH   1   2
BRANCH   1  13
ATOM     13  C   UNL     1       1.535   2.542  18.779  0.00  0.00    +0.000 C 
BRANCH  13  23
ATOM     14  C   UNL     1       1.496   2.598  21.848  0.00  0.00    +0.000 C 
ATOM     15  C   UNL     1       1.665   3.784  20.972  0.00  0.00    +0.000 A 
ATOM     16  N   UNL     1       1.839   5.017  21.402  0.00  0.00    +0.000 NA
ATOM     17  C   UNL     1       1.970   5.792  20.280  0.00  0.00    +0.000 A 
ATOM     18  C   UNL     1       2.190   7.172  20.179  0.00  0.00    +0.000 A 
ATOM     19  C   UNL     1       2.290   7.749  18.910  0.00  0.00    +0.000 A 
ATOM     20  C   UNL     1       2.169   6.965  17.763  0.00  0.00    +0.000 A 
ATOM     21  C   UNL     1       1.949   5.581  17.841  0.00  0.00    +0.000 A 
ATOM     22  C   UNL     1       1.858   5.022  19.123  0.00  0.00    +0.000 A 
ATOM     23  N   UNL     1       1.666   3.742  19.592  0.00  0.00    +0.000 N 
ENDBRANCH  13  23
ENDBRANCH   1  13
TORSDOF 4
ENDMDL
MODEL 2
REMARK VINA RESULT:      -7.5      0.980      1.546
REMARK  Name = 
REMARK  5 active torsions:
REMARK  status: ('A' for Active; 'I' for Inactive)
REMARK    1  A    between atoms: C_1  and  C_2
REMARK    2  A    between atoms: N_10  and  C_11
REMARK    3  A    between atoms: C_11  and  C_12
REMARK    4  A    between atoms: C_12  and  C_13
REMARK    5  A    between atoms: C_16  and  C_17
REMARK                            x       y       z     vdW  Elec       q    Type
REMARK                         _______ _______ _______ _____ _____    ______ ____
ROOT
ATOM      1  C   UNL     1       3.014   1.993  18.474  0.00  0.00    +0.000 C 
ENDROOT
BRANCH   1   2
ATOM      2  C   UNL     1       4.180   2.902  18.611  0.00  0.00    +0.000 A 
ATOM      3  N   UNL     1       4.909   3.024  19.729  0.00  0.00    +0.000 NA
ATOM      4  O   UNL     1       5.890   3.955  19.373  0.00  0.00    +0.000 OA
ATOM      5  C   UNL     1       5.650   4.292  18.070  0.00  0.00    +0.000 A 
ATOM      6  N   UNL     1       4.629   3.644  17.554  0.00  0.00    +0.000 NA
BRANCH   5   7
ATOM      7  C   UNL     1       6.564   5.290  17.436  0.00  0.00    +0.000 C 
ATOM      8  C   UNL     1       7.461   4.636  16.374  0.00  0.00    +0.000 C 
ATOM      9  C   UNL     1       6.673   4.262  15.117  0.00  0.00    +0.000 C 
ATOM     10  C   UNL     1       5.829   5.429  14.623  0.00  0.00    +0.000 C 
ATOM     11  O   UNL     1       5.014   5.971  15.662  0.00  0.00    +0.000 OA
ATOM     12  C   UNL     1       5.775   6.429  16.782  0.00  0.00    +0.000 C 
ENDBRANCH   5   7
ENDBRANCH   1   2
BRANCH   1  13
ATOM     13  C   UNL     1       1.668   2.700  18.573  0.00  0.00    +0.000 C 
BRANCH  13  23
ATOM     14  C   UNL     1       1.431   2.608  21.632  0.00  0.00    +0.000 C 
ATOM     15  C   UNL     1       1.625   3.839  20.825  0.00  0.00    +0.000 A 
ATOM     16  N   UNL     1       1.740   5.052  21.322  0.00  0.00    +0.000 NA
ATOM     17  C   UNL     1       1.923   5.883  20.248  0.00  0.00    +0.000 A 
ATOM     18  C   UNL     1       2.113   7.272  20.226  0.00  0.00    +0.000 A 
ATOM     19  C   UNL     1       2.280   7.911  18.995  0.00  0.00    +0.000 A 
ATOM     20  C   UNL     1       2.252   7.181  17.806  0.00  0.00    +0.000 A 
ATOM     21  C   UNL     1       2.063   5.789  17.806  0.00  0.00    +0.000 A 
ATOM     22  C   UNL     1       1.904   5.168  19.052  0.00  0.00    +0.000 A 
ATOM     23  N   UNL     1       1.715   3.863  19.448  0.00  0.00    +0.000 N 
ENDBRANCH  13  23
ENDBRANCH   1  13
TORSDOF 4
ENDMDL
MODEL 3
REMARK VINA RESULT:      -7.3      4.926      7.139
REMARK  Name = 
REMARK  5 active torsions:
REMARK  status: ('A' for Active; 'I' for Inactive)
REMARK    1  A    between atoms: C_1  and  C_2
REMARK    2  A    between atoms: N_10  and  C_11
REMARK    3  A    between atoms: C_11  and  C_12
REMARK    4  A    between atoms: C_12  and  C_13
REMARK    5  A    between atoms: C_16  and  C_17
REMARK                            x       y       z     vdW  Elec       q    Type
REMARK                         _______ _______ _______ _____ _____    ______ ____
ROOT
ATOM      1  C   UNL     1       0.405   9.736  20.641  0.00  0.00    +0.000 C 
ENDROOT
BRANCH   1   2
ATOM      2  C   UNL     1       1.241   8.717  19.956  0.00  0.00    +0.000 A 
ATOM      3  N   UNL     1       1.708   8.848  18.707  0.00  0.00    +0.000 NA
ATOM      4  O   UNL     1       2.447   7.676  18.516  0.00  0.00    +0.000 OA
ATOM      5  C   UNL     1       2.350   6.963  19.678  0.00  0.00    +0.000 A 
ATOM      6  N   UNL     1       1.645   7.582  20.601  0.00  0.00    +0.000 NA
BRANCH   5   7
ATOM      7  C   UNL     1       3.054   5.646  19.741  0.00  0.00    +0.000 C 
ATOM      8  C   UNL     1       2.401   4.709  20.768  0.00  0.00    +0.000 C 
ATOM      9  C   UNL     1       1.049   4.187  20.282  0.00  0.00    +0.000 C 
ATOM     10  C   UNL     1       1.144   3.632  18.866  0.00  0.00    +0.000 C 
ATOM     11  O   UNL     1       1.746   4.567  17.971  0.00  0.00    +0.000 OA
ATOM     12  C   UNL     1       3.061   4.954  18.374  0.00  0.00    +0.000 C 
ENDBRANCH   5   7
ENDBRANCH   1   2
BRANCH   1  13
ATOM     13  C   UNL     1       0.296  11.054  19.882  0.00  0.00    +0.000 C 
BRANCH  13  23
ATOM     14  C   UNL     1      -1.480  12.928  21.542  0.00  0.00    +0.000 C 
ATOM     15  C   UNL     1      -1.891  12.247  20.288  0.00  0.00    +0.000 A 
ATOM     16  N   UNL     1      -3.069  12.375  19.715  0.00  0.00    +0.000 NA
ATOM     17  C   UNL     1      -3.024  11.603  18.585  0.00  0.00    +0.000 A 
ATOM     18  C   UNL     1      -4.011  11.402  17.610  0.00  0.00    +0.000 A 
ATOM     19  C   UNL     1      -3.733  10.558  16.531  0.00  0.00    +0.000 A 
ATOM     20  C   UNL     1      -2.495   9.923  16.428  0.00  0.00    +0.000 A 
ATOM     21  C   UNL     1      -1.493  10.111  17.392  0.00  0.00    +0.000 A 
ATOM     22  C   UNL     1      -1.790  10.965  18.463  0.00  0.00    +0.000 A 
ATOM     23  N   UNL     1      -1.083  11.396  19.562  0.00  0.00    +0.000 N 
ENDBRANCH  13  23
ENDBRANCH   1  13
TORSDOF 4
ENDMDL
MODEL 4
REMARK VINA RESULT:      -7.3      5.875      8.615
REMARK  Name = 
REMARK  5 active torsions:
REMARK  status: ('A' for Active; 'I' for Inactive)
REMARK    1  A    between atoms: C_1  and  C_2
REMARK    2  A    between atoms: N_10  and  C_11
REMARK    3  A    between atoms: C_11  and  C_12
REMARK    4  A    between atoms: C_12  and  C_13
REMARK    5  A    between atoms: C_16  and  C_17
REMARK                            x       y       z     vdW  Elec       q    Type
REMARK                         _______ _______ _______ _____ _____    ______ ____
ROOT
ATOM      1  C   UNL     1       8.597   9.857  18.164  0.00  0.00    +0.000 C 
ENDROOT
BRANCH   1   2
ATOM      2  C   UNL     1       8.169   8.439  18.066  0.00  0.00    +0.000 A 
ATOM      3  N   UNL     1       8.534   7.484  18.933  0.00  0.00    +0.000 NA
ATOM      4  O   UNL     1       7.876   6.346  18.453  0.00  0.00    +0.000 OA
ATOM      5  C   UNL     1       7.178   6.740  17.346  0.00  0.00    +0.000 A 
ATOM      6  N   UNL     1       7.304   8.025  17.091  0.00  0.00    +0.000 NA
BRANCH   5   7
ATOM      7  C   UNL     1       6.381   5.701  16.626  0.00  0.00    +0.000 C 
ATOM      8  C   UNL     1       5.930   4.580  17.576  0.00  0.00    +0.000 C 
ATOM      9  C   UNL     1       4.829   5.051  18.527  0.00  0.00    +0.000 C 
ATOM     10  C   UNL     1       3.707   5.752  17.774  0.00  0.00    +0.000 C 
ATOM     11  O   UNL     1       4.204   6.788  16.927  0.00  0.00    +0.000 OA
ATOM     12  C   UNL     1       5.143   6.312  15.961  0.00  0.00    +0.000 C 
ENDBRANCH   5   7
ENDBRANCH   1   2
BRANCH   1  13
ATOM     13  C   UNL     1       9.405  10.171  19.418  0.00  0.00    +0.000 C 
BRANCH  13  23
ATOM     14  C   UNL     1       8.625  11.781  21.911  0.00  0.00    +0.000 C 
ATOM     15  C   UNL     1       9.297  12.336  20.709  0.00  0.00    +0.000 A 
ATOM     16  N   UNL     1       9.663  13.592  20.566  0.00  0.00    +0.000 NA
ATOM     17  C   UNL     1      10.257  13.674  19.335  0.00  0.00    +0.000 A 
ATOM     18  C   UNL     1      10.834  14.783  18.702  0.00  0.00    +0.000 A 
ATOM     19  C   UNL     1      11.386  14.623  17.428  0.00  0.00    +0.000 A 
ATOM     20  C   UNL     1      11.359  13.381  16.794  0.00  0.00    +0.000 A 
ATOM     21  C   UNL     1      10.786  12.256  17.411  0.00  0.00    +0.000 A 
ATOM     22  C   UNL     1      10.244  12.438  18.690  0.00  0.00    +0.000 A 
ATOM     23  N   UNL     1       9.628  11.599  19.591  0.00  0.00    +0.000 N 
ENDBRANCH  13  23
ENDBRANCH   1  13
TORSDOF 4
ENDMDL
MODEL 5
REMARK VINA RESULT:      -7.2      3.504      6.117
REMARK  Name = 
REMARK  5 active torsions:
REMARK  status: ('A' for Active; 'I' for Inactive)
REMARK    1  A    between atoms: C_1  and  C_2
REMARK    2  A    between atoms: N_10  and  C_11
REMARK    3  A    between atoms: C_11  and  C_12
REMARK    4  A    between atoms: C_12  and  C_13
REMARK    5  A    between atoms: C_16  and  C_17
REMARK                            x       y       z     vdW  Elec       q    Type
REMARK                         _______ _______ _______ _____ _____    ______ ____
ROOT
ATOM      1  C   UNL     1       3.856   6.942  17.675  0.00  0.00    +0.000 C 
ENDROOT
BRANCH   1   2
ATOM      2  C   UNL     1       2.784   7.762  18.295  0.00  0.00    +0.000 A 
ATOM      3  N   UNL     1       2.317   7.570  19.537  0.00  0.00    +0.000 NA
ATOM      4  O   UNL     1       1.359   8.580  19.679  0.00  0.00    +0.000 OA
ATOM      5  C   UNL     1       1.355   9.278  18.504  0.00  0.00    +0.000 A 
ATOM      6  N   UNL     1       2.238   8.830  17.638  0.00  0.00    +0.000 NA
BRANCH   5   7
ATOM      7  C   UNL     1       0.403  10.425  18.385  0.00  0.00    +0.000 C 
ATOM      8  C   UNL     1      -0.809  10.247  19.313  0.00  0.00    +0.000 C 
ATOM      9  C   UNL     1      -0.436  10.451  20.781  0.00  0.00    +0.000 C 
ATOM     10  C   UNL     1       0.349  11.741  20.980  0.00  0.00    +0.000 C 
ATOM     11  O   UNL     1       1.466  11.823  20.095  0.00  0.00    +0.000 OA
ATOM     12  C   UNL     1       1.089  11.754  18.718  0.00  0.00    +0.000 C 
ENDBRANCH   5   7
ENDBRANCH   1   2
BRANCH   1  13
ATOM     13  C   UNL     1       3.416   5.529  17.310  0.00  0.00    +0.000 C 
BRANCH  13  23
ATOM     14  C   UNL     1       6.217   4.434  17.921  0.00  0.00    +0.000 C 
ATOM     15  C   UNL     1       4.978   4.073  18.655  0.00  0.00    +0.000 A 
ATOM     16  N   UNL     1       4.924   3.247  19.678  0.00  0.00    +0.000 NA
ATOM     17  C   UNL     1       3.611   3.210  20.065  0.00  0.00    +0.000 A 
ATOM     18  C   UNL     1       3.017   2.498  21.115  0.00  0.00    +0.000 A 
ATOM     19  C   UNL     1       1.639   2.619  21.320  0.00  0.00    +0.000 A 
ATOM     20  C   UNL     1       0.867   3.431  20.489  0.00  0.00    +0.000 A 
ATOM     21  C   UNL     1       1.442   4.154  19.431  0.00  0.00    +0.000 A 
ATOM     22  C   UNL     1       2.825   4.023  19.248  0.00  0.00    +0.000 A 
ATOM     23  N   UNL     1       3.723   4.565  18.356  0.00  0.00    +0.000 N 
ENDBRANCH  13  23
ENDBRANCH   1  13
TORSDOF 4
ENDMDL
MODEL 6
REMARK VINA RESULT:      -7.1      3.691      6.445
REMARK  Name = 
REMARK  5 active torsions:
REMARK  status: ('A' for Active; 'I' for Inactive)
REMARK    1  A    between atoms: C_1  and  C_2
REMARK    2  A    between atoms: N_10  and  C_11
REMARK    3  A    between atoms: C_11  and  C_12
REMARK    4  A    between atoms: C_12  and  C_13
REMARK    5  A    between atoms: C_16  and  C_17
REMARK                            x       y       z     vdW  Elec       q    Type
REMARK                         _______ _______ _______ _____ _____    ______ ____
ROOT
ATOM      1  C   UNL     1       3.565   7.359  17.440  0.00  0.00    +0.000 C 
ENDROOT
BRANCH   1   2
ATOM      2  C   UNL     1       2.547   8.164  18.163  0.00  0.00    +0.000 A 
ATOM      3  N   UNL     1       2.166   7.930  19.426  0.00  0.00    +0.000 NA
ATOM      4  O   UNL     1       1.230   8.941  19.671  0.00  0.00    +0.000 OA
ATOM      5  C   UNL     1       1.152   9.683  18.526  0.00  0.00    +0.000 A 
ATOM      6  N   UNL     1       1.968   9.260  17.585  0.00  0.00    +0.000 NA
BRANCH   5   7
ATOM      7  C   UNL     1       0.206  10.840  18.516  0.00  0.00    +0.000 C 
ATOM      8  C   UNL     1      -0.917  10.657  19.549  0.00  0.00    +0.000 C 
ATOM      9  C   UNL     1      -0.406  10.831  20.980  0.00  0.00    +0.000 C 
ATOM     10  C   UNL     1       0.408  12.109  21.127  0.00  0.00    +0.000 C 
ATOM     11  O   UNL     1       1.439  12.197  20.144  0.00  0.00    +0.000 OA
ATOM     12  C   UNL     1       0.935  12.156  18.807  0.00  0.00    +0.000 C 
ENDBRANCH   5   7
ENDBRANCH   1   2
BRANCH   1  13
ATOM     13  C   UNL     1       4.214   6.277  18.295  0.00  0.00    +0.000 C 
BRANCH  13  23
ATOM     14  C   UNL     1       5.051   4.357  16.051  0.00  0.00    +0.000 C 
ATOM     15  C   UNL     1       4.005   4.082  17.067  0.00  0.00    +0.000 A 
ATOM     16  N   UNL     1       3.311   2.966  17.148  0.00  0.00    +0.000 NA
ATOM     17  C   UNL     1       2.478   3.117  18.225  0.00  0.00    +0.000 A 
ATOM     18  C   UNL     1       1.545   2.216  18.755  0.00  0.00    +0.000 A 
ATOM     19  C   UNL     1       0.799   2.597  19.874  0.00  0.00    +0.000 A 
ATOM     20  C   UNL     1       0.977   3.854  20.452  0.00  0.00    +0.000 A 
ATOM     21  C   UNL     1       1.907   4.771  19.937  0.00  0.00    +0.000 A 
ATOM     22  C   UNL     1       2.648   4.367  18.818  0.00  0.00    +0.000 A 
ATOM     23  N   UNL     1       3.631   4.964  18.061  0.00  0.00    +0.000 N 
ENDBRANCH  13  23
ENDBRANCH   1  13
TORSDOF 4
ENDMDL
MODEL 7
REMARK VINA RESULT:      -7.1      4.014      6.893
REMARK  Name = 
REMARK  5 active torsions:
REMARK  status: ('A' for Active; 'I' for Inactive)
REMARK    1  A    between atoms: C_1  and  C_2
REMARK    2  A    between atoms: N_10  and  C_11
REMARK    3  A    between atoms: C_11  and  C_12
REMARK    4  A    between atoms: C_12  and  C_13
REMARK    5  A    between atoms: C_16  and  C_17
REMARK                            x       y       z     vdW  Elec       q    Type
REMARK                         _______ _______ _______ _____ _____    ______ ____
ROOT
ATOM      1  C   UNL     1       2.832   7.847  17.776  0.00  0.00    +0.000 C 
ENDROOT
BRANCH   1   2
ATOM      2  C   UNL     1       1.871   8.505  18.697  0.00  0.00    +0.000 A 
ATOM      3  N   UNL     1       1.781   8.233  20.006  0.00  0.00    +0.000 NA
ATOM      4  O   UNL     1       0.777   9.102  20.446  0.00  0.00    +0.000 OA
ATOM      5  C   UNL     1       0.372   9.813  19.351  0.00  0.00    +0.000 A 
ATOM      6  N   UNL     1       1.041   9.501  18.262  0.00  0.00    +0.000 NA
BRANCH   5   7
ATOM      7  C   UNL     1      -0.712  10.823  19.546  0.00  0.00    +0.000 C 
ATOM      8  C   UNL     1      -0.631  11.475  20.935  0.00  0.00    +0.000 C 
ATOM      9  C   UNL     1       0.555  12.434  21.044  0.00  0.00    +0.000 C 
ATOM     10  C   UNL     1       0.595  13.403  19.870  0.00  0.00    +0.000 C 
ATOM     11  O   UNL     1       0.531  12.721  18.618  0.00  0.00    +0.000 OA
ATOM     12  C   UNL     1      -0.646  11.922  18.480  0.00  0.00    +0.000 C 
ENDBRANCH   5   7
ENDBRANCH   1   2
BRANCH   1  13
ATOM     13  C   UNL     1       3.753   6.844  18.462  0.00  0.00    +0.000 C 
BRANCH  13  23
ATOM     14  C   UNL     1       5.250   5.490  16.150  0.00  0.00    +0.000 C 
ATOM     15  C   UNL     1       4.197   4.851  16.979  0.00  0.00    +0.000 A 
ATOM     16  N   UNL     1       3.782   3.609  16.840  0.00  0.00    +0.000 NA
ATOM     17  C   UNL     1       2.828   3.421  17.806  0.00  0.00    +0.000 A 
ATOM     18  C   UNL     1       2.083   2.271  18.101  0.00  0.00    +0.000 A 
ATOM     19  C   UNL     1       1.155   2.318  19.145  0.00  0.00    +0.000 A 
ATOM     20  C   UNL     1       0.970   3.490  19.878  0.00  0.00    +0.000 A 
ATOM     21  C   UNL     1       1.706   4.652  19.599  0.00  0.00    +0.000 A 
ATOM     22  C   UNL     1       2.635   4.582  18.552  0.00  0.00    +0.000 A 
ATOM     23  N   UNL     1       3.524   5.481  18.007  0.00  0.00    +0.000 N 
ENDBRANCH  13  23
ENDBRANCH   1  13
TORSDOF 4
ENDMDL
MODEL 8
REMARK VINA RESULT:      -7.1      4.288      7.236
REMARK  Name = 
REMARK  5 active torsions:
REMARK  status: ('A' for Active; 'I' for Inactive)
REMARK    1  A    between atoms: C_1  and  C_2
REMARK    2  A    between atoms: N_10  and  C_11
REMARK    3  A    between atoms: C_11  and  C_12
REMARK    4  A    between atoms: C_12  and  C_13
REMARK    5  A    between atoms: C_16  and  C_17
REMARK                            x       y       z     vdW  Elec       q    Type
REMARK                         _______ _______ _______ _____ _____    ______ ____
ROOT
ATOM      1  C   UNL     1       2.187   7.807  17.896  0.00  0.00    +0.000 C 
ENDROOT
BRANCH   1   2
ATOM      2  C   UNL     1       1.672   8.830  18.841  0.00  0.00    +0.000 A 
ATOM      3  N   UNL     1       1.387   8.587  20.128  0.00  0.00    +0.000 NA
ATOM      4  O   UNL     1       0.970   9.833  20.606  0.00  0.00    +0.000 OA
ATOM      5  C   UNL     1       1.053  10.700  19.552  0.00  0.00    +0.000 A 
ATOM      6  N   UNL     1       1.511  10.133  18.457  0.00  0.00    +0.000 NA
BRANCH   5   7
ATOM      7  C   UNL     1       0.654  12.120  19.793  0.00  0.00    +0.000 C 
ATOM      8  C   UNL     1       0.050  12.756  18.531  0.00  0.00    +0.000 C 
ATOM      9  C   UNL     1      -1.344  12.206  18.229  0.00  0.00    +0.000 C 
ATOM     10  C   UNL     1      -2.235  12.244  19.464  0.00  0.00    +0.000 C 
ATOM     11  O   UNL     1      -1.612  11.622  20.587  0.00  0.00    +0.000 OA
ATOM     12  C   UNL     1      -0.364  12.226  20.934  0.00  0.00    +0.000 C 
ENDBRANCH   5   7
ENDBRANCH   1   2
BRANCH   1  13
ATOM     13  C   UNL     1       3.369   7.011  18.436  0.00  0.00    +0.000 C 
BRANCH  13  23
ATOM     14  C   UNL     1       5.203   5.917  16.231  0.00  0.00    +0.000 C 
ATOM     15  C   UNL     1       4.199   5.122  16.983  0.00  0.00    +0.000 A 
ATOM     16  N   UNL     1       3.979   3.835  16.812  0.00  0.00    +0.000 NA
ATOM     17  C   UNL     1       2.999   3.499  17.708  0.00  0.00    +0.000 A 
ATOM     18  C   UNL     1       2.410   2.250  17.948  0.00  0.00    +0.000 A 
ATOM     19  C   UNL     1       1.416   2.148  18.925  0.00  0.00    +0.000 A 
ATOM     20  C   UNL     1       1.013   3.272  19.647  0.00  0.00    +0.000 A 
ATOM     21  C   UNL     1       1.590   4.532  19.423  0.00  0.00    +0.000 A 
ATOM     22  C   UNL     1       2.589   4.610  18.443  0.00  0.00    +0.000 A 
ATOM     23  N   UNL     1       3.373   5.635  17.963  0.00  0.00    +0.000 N 
ENDBRANCH  13  23
ENDBRANCH   1  13
TORSDOF 4
ENDMDL
MODEL 9
REMARK VINA RESULT:      -7.1      4.025      6.504
REMARK  Name = 
REMARK  5 active torsions:
REMARK  status: ('A' for Active; 'I' for Inactive)
REMARK    1  A    between atoms: C_1  and  C_2
REMARK    2  A    between atoms: N_10  and  C_11
REMARK    3  A    between atoms: C_11  and  C_12
REMARK    4  A    between atoms: C_12  and  C_13
REMARK    5  A    between atoms: C_16  and  C_17
REMARK                            x       y       z     vdW  Elec       q    Type
REMARK                         _______ _______ _______ _____ _____    ______ ____
ROOT
ATOM      1  C   UNL     1       1.202   9.321  17.991  0.00  0.00    +0.000 C 
ENDROOT
BRANCH   1   2
ATOM      2  C   UNL     1       2.133   8.181  18.193  0.00  0.00    +0.000 A 
ATOM      3  N   UNL     1       3.217   7.956  17.437  0.00  0.00    +0.000 NA
ATOM      4  O   UNL     1       3.778   6.812  18.014  0.00  0.00    +0.000 OA
ATOM      5  C   UNL     1       2.973   6.473  19.065  0.00  0.00    +0.000 A 
ATOM      6  N   UNL     1       1.968   7.306  19.230  0.00  0.00    +0.000 NA
BRANCH   5   7
ATOM      7  C   UNL     1       3.348   5.265  19.861  0.00  0.00    +0.000 C 
ATOM      8  C   UNL     1       2.245   4.886  20.862  0.00  0.00    +0.000 C 
ATOM      9  C   UNL     1       1.024   4.289  20.161  0.00  0.00    +0.000 C 
ATOM     10  C   UNL     1       1.424   3.187  19.190  0.00  0.00    +0.000 C 
ATOM     11  O   UNL     1       2.440   3.622  18.285  0.00  0.00    +0.000 OA
ATOM     12  C   UNL     1       3.624   4.063  18.952  0.00  0.00    +0.000 C 
ENDBRANCH   5   7
ENDBRANCH   1   2
BRANCH   1  13
ATOM     13  C   UNL     1       1.677  10.623  18.625  0.00  0.00    +0.000 C 
BRANCH  13  23
ATOM     14  C   UNL     1      -0.093  13.093  18.191  0.00  0.00    +0.000 C 
ATOM     15  C   UNL     1      -0.088  12.246  19.410  0.00  0.00    +0.000 A 
ATOM     16  N   UNL     1      -0.861  12.436  20.459  0.00  0.00    +0.000 NA
ATOM     17  C   UNL     1      -0.554  11.432  21.339  0.00  0.00    +0.000 A 
ATOM     18  C   UNL     1      -1.100  11.165  22.603  0.00  0.00    +0.000 A 
ATOM     19  C   UNL     1      -0.623  10.070  23.327  0.00  0.00    +0.000 A 
ATOM     20  C   UNL     1       0.384   9.258  22.804  0.00  0.00    +0.000 A 
ATOM     21  C   UNL     1       0.944   9.507  21.541  0.00  0.00    +0.000 A 
ATOM     22  C   UNL     1       0.446  10.607  20.829  0.00  0.00    +0.000 A 
ATOM     23  N   UNL     1       0.725  11.146  19.594  0.00  0.00    +0.000 N 
ENDBRANCH  13  23
ENDBRANCH   1  13
TORSDOF 4
ENDMDL
