MODEL 1
REMARK VINA RESULT:      -7.5      0.000      0.000
REMARK  Name = 
REMARK  5 active torsions:
REMARK  status: ('A' for Active; 'I' for Inactive)
REMARK    1  A    between atoms: C_2  and  O_3
REMARK    2  A    between atoms: C_2  and  C_14
REMARK    3  A    between atoms: O_3  and  N_4
REMARK    4  A    between atoms: C_5  and  C_6
REMARK    5  A    between atoms: C_9  and  O_10
REMARK                            x       y       z     vdW  Elec       q    Type
REMARK                         _______ _______ _______ _____ _____    ______ ____
ROOT
ATOM      1  N   UNL     1       4.602   4.930  16.325  0.00  0.00    +0.000 NA
ATOM      2  C   UNL     1       3.896   5.641  17.143  0.00  0.00    +0.000 C 
ENDROOT
BRANCH   2   3
ATOM      3  C   UNL     1       3.049   5.004  18.177  0.00  0.00    +0.000 A 
ATOM      4  C   UNL     1       3.195   5.333  19.532  0.00  0.00    +0.000 A 
ATOM      5  C   UNL     1       2.429   4.681  20.505  0.00  0.00    +0.000 A 
ATOM      6  C   UNL     1       1.519   3.702  20.116  0.00  0.00    +0.000 A 
ATOM      7  C   UNL     1       1.365   3.391  18.765  0.00  0.00    +0.000 A 
ATOM      8  F   UNL     1       0.489   2.448  18.384  0.00  0.00    +0.000 F 
ATOM      9  C   UNL     1       2.120   4.037  17.789  0.00  0.00    +0.000 A 
BRANCH   6  10
ATOM     10  O   UNL     1       0.773   3.029  21.041  0.00  0.00    +0.000 OA
ATOM     11  H   UNL     1      -0.136   3.371  21.033  0.00  0.00    +0.000 HD
ENDBRANCH   6  10
ENDBRANCH   2   3
BRANCH   1  12
ATOM     12  O   UNL     1       5.282   5.752  15.398  0.00  0.00    +0.000 OA
BRANCH  12  14
ATOM     13  O   UNL     1       7.323   5.084  14.517  0.00  0.00    +0.000 OA
ATOM     14  C   UNL     1       6.619   5.458  15.447  0.00  0.00    +0.000 C 
BRANCH  14  15
ATOM     15  C   UNL     1       7.182   5.655  16.803  0.00  0.00    +0.000 A 
ATOM     16  C   UNL     1       7.430   6.962  17.244  0.00  0.00    +0.000 A 
ATOM     17  C   UNL     1       7.947   7.183  18.518  0.00  0.00    +0.000 A 
ATOM     18  C   UNL     1       8.204   6.082  19.318  0.00  0.00    +0.000 A 
ATOM     19  N   UNL     1       7.980   4.806  18.926  0.00  0.00    +0.000 NA
ATOM     20  C   UNL     1       7.474   4.621  17.678  0.00  0.00    +0.000 A 
ENDBRANCH  14  15
ENDBRANCH  12  14
ENDBRANCH   1  12
TORSDOF 5
ENDMDL
MODEL 2
REMARK VINA RESULT:      -7.3      2.174      3.249
REMARK  Name = 
REMARK  5 active torsions:
REMARK  status: ('A' for Active; 'I' for Inactive)
REMARK    1  A    between atoms: C_2  and  O_3
REMARK    2  A    between atoms: C_2  and  C_14
REMARK    3  A    between atoms: O_3  and  N_4
REMARK    4  A    between atoms: C_5  and  C_6
REMARK    5  A    between atoms: C_9  and  O_10
REMARK                            x       y       z     vdW  Elec       q    Type
REMARK                         _______ _______ _______ _____ _____    ______ ____
ROOT
ATOM      1  N   UNL     1       5.670   5.157  19.494  0.00  0.00    +0.000 NA
ATOM      2  C   UNL     1       5.270   3.940  19.320  0.00  0.00    +0.000 C 
ENDROOT
BRANCH   2   3
ATOM      3  C   UNL     1       3.830   3.596  19.346  0.00  0.00    +0.000 A 
ATOM      4  C   UNL     1       3.002   3.881  18.251  0.00  0.00    +0.000 A 
ATOM      5  C   UNL     1       1.631   3.605  18.311  0.00  0.00    +0.000 A 
ATOM      6  C   UNL     1       1.096   3.043  19.468  0.00  0.00    +0.000 A 
ATOM      7  C   UNL     1       1.928   2.745  20.547  0.00  0.00    +0.000 A 
ATOM      8  F   UNL     1       1.418   2.205  21.663  0.00  0.00    +0.000 F 
ATOM      9  C   UNL     1       3.294   3.014  20.496  0.00  0.00    +0.000 A 
BRANCH   6  10
ATOM     10  O   UNL     1      -0.241   2.784  19.568  0.00  0.00    +0.000 OA
ATOM     11  H   UNL     1      -0.640   2.799  18.683  0.00  0.00    +0.000 HD
ENDBRANCH   6  10
ENDBRANCH   2   3
BRANCH   1  12
ATOM     12  O   UNL     1       7.081   5.232  19.483  0.00  0.00    +0.000 OA
BRANCH  12  14
ATOM     13  O   UNL     1       8.224   7.088  18.683  0.00  0.00    +0.000 OA
ATOM     14  C   UNL     1       7.467   6.137  18.530  0.00  0.00    +0.000 C 
BRANCH  14  15
ATOM     15  C   UNL     1       6.864   5.844  17.209  0.00  0.00    +0.000 A 
ATOM     16  C   UNL     1       7.270   4.689  16.526  0.00  0.00    +0.000 A 
ATOM     17  C   UNL     1       6.712   4.378  15.288  0.00  0.00    +0.000 A 
ATOM     18  C   UNL     1       5.760   5.238  14.767  0.00  0.00    +0.000 A 
ATOM     19  N   UNL     1       5.345   6.363  15.395  0.00  0.00    +0.000 NA
ATOM     20  C   UNL     1       5.906   6.641  16.601  0.00  0.00    +0.000 A 
ENDBRANCH  14  15
ENDBRANCH  12  14
ENDBRANCH   1  12
TORSDOF 5
ENDMDL
MODEL 3
REMARK VINA RESULT:      -7.3      3.599      4.442
REMARK  Name = 
REMARK  5 active torsions:
REMARK  status: ('A' for Active; 'I' for Inactive)
REMARK    1  A    between atoms: C_2  and  O_3
REMARK    2  A    between atoms: C_2  and  C_14
REMARK    3  A    between atoms: O_3  and  N_4
REMARK    4  A    between atoms: C_5  and  C_6
REMARK    5  A    between atoms: C_9  and  O_10
REMARK                            x       y       z     vdW  Elec       q    Type
REMARK                         _______ _______ _______ _____ _____    ______ ____
ROOT
ATOM      1  N   UNL     1       3.392   4.991  18.925  0.00  0.00    +0.000 NA
ATOM      2  C   UNL     1       3.239   6.055  18.206  0.00  0.00    +0.000 C 
ENDROOT
BRANCH   2   3
ATOM      3  C   UNL     1       2.459   7.211  18.705  0.00  0.00    +0.000 A 
ATOM      4  C   UNL     1       2.131   8.278  17.855  0.00  0.00    +0.000 A 
ATOM      5  C   UNL     1       1.445   9.392  18.353  0.00  0.00    +0.000 A 
ATOM      6  C   UNL     1       1.090   9.431  19.699  0.00  0.00    +0.000 A 
ATOM      7  C   UNL     1       1.403   8.360  20.535  0.00  0.00    +0.000 A 
ATOM      8  F   UNL     1       1.064   8.393  21.832  0.00  0.00    +0.000 F 
ATOM      9  C   UNL     1       2.083   7.245  20.048  0.00  0.00    +0.000 A 
BRANCH   6  10
ATOM     10  O   UNL     1       0.441  10.514  20.222  0.00  0.00    +0.000 OA
ATOM     11  H   UNL     1       0.649  11.301  19.693  0.00  0.00    +0.000 HD
ENDBRANCH   6  10
ENDBRANCH   2   3
BRANCH   1  12
ATOM     12  O   UNL     1       4.122   4.006  18.222  0.00  0.00    +0.000 OA
BRANCH  12  14
ATOM     13  O   UNL     1       6.153   4.462  19.251  0.00  0.00    +0.000 OA
ATOM     14  C   UNL     1       5.451   4.338  18.254  0.00  0.00    +0.000 C 
BRANCH  14  15
ATOM     15  C   UNL     1       6.008   4.534  16.896  0.00  0.00    +0.000 A 
ATOM     16  C   UNL     1       5.412   3.860  15.821  0.00  0.00    +0.000 A 
ATOM     17  C   UNL     1       5.903   4.033  14.530  0.00  0.00    +0.000 A 
ATOM     18  C   UNL     1       6.984   4.879  14.351  0.00  0.00    +0.000 A 
ATOM     19  N   UNL     1       7.588   5.544  15.363  0.00  0.00    +0.000 NA
ATOM     20  C   UNL     1       7.087   5.356  16.613  0.00  0.00    +0.000 A 
ENDBRANCH  14  15
ENDBRANCH  12  14
ENDBRANCH   1  12
TORSDOF 5
ENDMDL
MODEL 4
REMARK VINA RESULT:      -7.3      2.245      3.663
REMARK  Name = 
REMARK  5 active torsions:
REMARK  status: ('A' for Active; 'I' for Inactive)
REMARK    1  A    between atoms: C_2  and  O_3
REMARK    2  A    between atoms: C_2  and  C_14
REMARK    3  A    between atoms: O_3  and  N_4
REMARK    4  A    between atoms: C_5  and  C_6
REMARK    5  A    between atoms: C_9  and  O_10
REMARK                            x       y       z     vdW  Elec       q    Type
REMARK                         _______ _______ _______ _____ _____    ______ ____
ROOT
ATOM      1  N   UNL     1       5.320   6.038  17.280  0.00  0.00    +0.000 NA
ATOM      2  C   UNL     1       4.355   5.278  16.874  0.00  0.00    +0.000 C 
ENDROOT
BRANCH   2   3
ATOM      3  C   UNL     1       3.331   4.771  17.816  0.00  0.00    +0.000 A 
ATOM      4  C   UNL     1       2.518   3.680  17.477  0.00  0.00    +0.000 A 
ATOM      5  C   UNL     1       1.513   3.248  18.351  0.00  0.00    +0.000 A 
ATOM      6  C   UNL     1       1.329   3.912  19.561  0.00  0.00    +0.000 A 
ATOM      7  C   UNL     1       2.152   4.985  19.901  0.00  0.00    +0.000 A 
ATOM      8  F   UNL     1       1.978   5.628  21.065  0.00  0.00    +0.000 F 
ATOM      9  C   UNL     1       3.156   5.420  19.039  0.00  0.00    +0.000 A 
BRANCH   6  10
ATOM     10  O   UNL     1       0.342   3.531  20.426  0.00  0.00    +0.000 OA
ATOM     11  H   UNL     1       0.577   3.810  21.326  0.00  0.00    +0.000 HD
ENDBRANCH   6  10
ENDBRANCH   2   3
BRANCH   1  12
ATOM     12  O   UNL     1       6.200   6.348  16.219  0.00  0.00    +0.000 OA
BRANCH  12  14
ATOM     13  O   UNL     1       7.686   4.664  16.805  0.00  0.00    +0.000 OA
ATOM     14  C   UNL     1       7.004   5.264  15.983  0.00  0.00    +0.000 C 
BRANCH  14  15
ATOM     15  C   UNL     1       6.968   4.843  14.564  0.00  0.00    +0.000 A 
ATOM     16  C   UNL     1       6.057   3.849  14.181  0.00  0.00    +0.000 A 
ATOM     17  C   UNL     1       5.988   3.440  12.851  0.00  0.00    +0.000 A 
ATOM     18  C   UNL     1       6.841   4.039  11.939  0.00  0.00    +0.000 A 
ATOM     19  N   UNL     1       7.735   4.999  12.272  0.00  0.00    +0.000 NA
ATOM     20  C   UNL     1       7.779   5.380  13.576  0.00  0.00    +0.000 A 
ENDBRANCH  14  15
ENDBRANCH  12  14
ENDBRANCH   1  12
TORSDOF 5
ENDMDL
MODEL 5
REMARK VINA RESULT:      -7.2      1.424      1.814
REMARK  Name = 
REMARK  5 active torsions:
REMARK  status: ('A' for Active; 'I' for Inactive)
REMARK    1  A    between atoms: C_2  and  O_3
REMARK    2  A    between atoms: C_2  and  C_14
REMARK    3  A    between atoms: O_3  and  N_4
REMARK    4  A    between atoms: C_5  and  C_6
REMARK    5  A    between atoms: C_9  and  O_10
REMARK                            x       y       z     vdW  Elec       q    Type
REMARK                         _______ _______ _______ _____ _____    ______ ____
ROOT
ATOM      1  N   UNL     1       5.039   4.249  16.158  0.00  0.00    +0.000 NA
ATOM      2  C   UNL     1       4.527   3.204  16.721  0.00  0.00    +0.000 C 
ENDROOT
BRANCH   2   3
ATOM      3  C   UNL     1       3.434   3.326  17.713  0.00  0.00    +0.000 A 
ATOM      4  C   UNL     1       2.338   2.452  17.687  0.00  0.00    +0.000 A 
ATOM      5  C   UNL     1       1.282   2.614  18.592  0.00  0.00    +0.000 A 
ATOM      6  C   UNL     1       1.331   3.652  19.519  0.00  0.00    +0.000 A 
ATOM      7  C   UNL     1       2.432   4.507  19.552  0.00  0.00    +0.000 A 
ATOM      8  F   UNL     1       2.483   5.509  20.443  0.00  0.00    +0.000 F 
ATOM      9  C   UNL     1       3.488   4.352  18.657  0.00  0.00    +0.000 A 
BRANCH   6  10
ATOM     10  O   UNL     1       0.307   3.853  20.401  0.00  0.00    +0.000 OA
ATOM     11  H   UNL     1       0.505   4.626  20.954  0.00  0.00    +0.000 HD
ENDBRANCH   6  10
ENDBRANCH   2   3
BRANCH   1  12
ATOM     12  O   UNL     1       6.099   3.891  15.295  0.00  0.00    +0.000 OA
BRANCH  12  14
ATOM     13  O   UNL     1       7.524   5.431  14.301  0.00  0.00    +0.000 OA
ATOM     14  C   UNL     1       7.021   4.904  15.287  0.00  0.00    +0.000 C 
BRANCH  14  15
ATOM     15  C   UNL     1       7.375   5.346  16.655  0.00  0.00    +0.000 A 
ATOM     16  C   UNL     1       7.397   6.720  16.932  0.00  0.00    +0.000 A 
ATOM     17  C   UNL     1       7.712   7.169  18.212  0.00  0.00    +0.000 A 
ATOM     18  C   UNL     1       7.998   6.225  19.183  0.00  0.00    +0.000 A 
ATOM     19  N   UNL     1       7.989   4.891  18.953  0.00  0.00    +0.000 NA
ATOM     20  C   UNL     1       7.678   4.481  17.695  0.00  0.00    +0.000 A 
ENDBRANCH  14  15
ENDBRANCH  12  14
ENDBRANCH   1  12
TORSDOF 5
ENDMDL
MODEL 6
REMARK VINA RESULT:      -7.2      2.167      3.130
REMARK  Name = 
REMARK  5 active torsions:
REMARK  status: ('A' for Active; 'I' for Inactive)
REMARK    1  A    between atoms: C_2  and  O_3
REMARK    2  A    between atoms: C_2  and  C_14
REMARK    3  A    between atoms: O_3  and  N_4
REMARK    4  A    between atoms: C_5  and  C_6
REMARK    5  A    between atoms: C_9  and  O_10
REMARK                            x       y       z     vdW  Elec       q    Type
REMARK                         _______ _______ _______ _____ _____    ______ ____
ROOT
ATOM      1  N   UNL     1       6.160   4.355  19.035  0.00  0.00    +0.000 NA
ATOM      2  C   UNL     1       5.037   4.586  19.634  0.00  0.00    +0.000 C 
ENDROOT
BRANCH   2   3
ATOM      3  C   UNL     1       3.815   3.821  19.295  0.00  0.00    +0.000 A 
ATOM      4  C   UNL     1       3.646   3.264  18.019  0.00  0.00    +0.000 A 
ATOM      5  C   UNL     1       2.461   2.595  17.692  0.00  0.00    +0.000 A 
ATOM      6  C   UNL     1       1.452   2.486  18.646  0.00  0.00    +0.000 A 
ATOM      7  C   UNL     1       1.633   3.026  19.919  0.00  0.00    +0.000 A 
ATOM      8  F   UNL     1       0.664   2.924  20.840  0.00  0.00    +0.000 F 
ATOM      9  C   UNL     1       2.810   3.692  20.254  0.00  0.00    +0.000 A 
BRANCH   6  10
ATOM     10  O   UNL     1       0.274   1.859  18.352  0.00  0.00    +0.000 OA
ATOM     11  H   UNL     1       0.459   1.013  17.914  0.00  0.00    +0.000 HD
ENDBRANCH   6  10
ENDBRANCH   2   3
BRANCH   1  12
ATOM     12  O   UNL     1       7.164   5.241  19.483  0.00  0.00    +0.000 OA
BRANCH  12  14
ATOM     13  O   UNL     1       8.157   7.121  18.549  0.00  0.00    +0.000 OA
ATOM     14  C   UNL     1       7.469   6.110  18.469  0.00  0.00    +0.000 C 
BRANCH  14  15
ATOM     15  C   UNL     1       6.871   5.693  17.180  0.00  0.00    +0.000 A 
ATOM     16  C   UNL     1       5.811   6.446  16.655  0.00  0.00    +0.000 A 
ATOM     17  C   UNL     1       5.235   6.089  15.439  0.00  0.00    +0.000 A 
ATOM     18  C   UNL     1       5.738   4.980  14.779  0.00  0.00    +0.000 A 
ATOM     19  N   UNL     1       6.758   4.227  15.255  0.00  0.00    +0.000 NA
ATOM     20  C   UNL     1       7.301   4.600  16.443  0.00  0.00    +0.000 A 
ENDBRANCH  14  15
ENDBRANCH  12  14
ENDBRANCH   1  12
TORSDOF 5
ENDMDL
MODEL 7
REMARK VINA RESULT:      -7.2      1.383      1.538
REMARK  Name = 
REMARK  5 active torsions:
REMARK  status: ('A' for Active; 'I' for Inactive)
REMARK    1  A    between atoms: C_2  and  O_3
REMARK    2  A    between atoms: C_2  and  C_14
REMARK    3  A    between atoms: O_3  and  N_4
REMARK    4  A    between atoms: C_5  and  C_6
REMARK    5  A    between atoms: C_9  and  O_10
REMARK                            x       y       z     vdW  Elec       q    Type
REMARK                         _______ _______ _______ _____ _____    ______ ____
ROOT
ATOM      1  N   UNL     1       4.465   4.610  16.785  0.00  0.00    +0.000 NA
ATOM      2  C   UNL     1       3.592   5.157  17.567  0.00  0.00    +0.000 C 
ENDROOT
BRANCH   2   3
ATOM      3  C   UNL     1       3.009   4.412  18.706  0.00  0.00    +0.000 A 
ATOM      4  C   UNL     1       1.676   4.613  19.091  0.00  0.00    +0.000 A 
ATOM      5  C   UNL     1       1.154   3.946  20.206  0.00  0.00    +0.000 A 
ATOM      6  C   UNL     1       1.970   3.081  20.929  0.00  0.00    +0.000 A 
ATOM      7  C   UNL     1       3.290   2.871  20.531  0.00  0.00    +0.000 A 
ATOM      8  F   UNL     1       4.081   2.038  21.224  0.00  0.00    +0.000 F 
ATOM      9  C   UNL     1       3.818   3.527  19.421  0.00  0.00    +0.000 A 
BRANCH   6  10
ATOM     10  O   UNL     1       1.500   2.433  22.036  0.00  0.00    +0.000 OA
ATOM     11  H   UNL     1       1.863   1.533  22.061  0.00  0.00    +0.000 HD
ENDBRANCH   6  10
ENDBRANCH   2   3
BRANCH   1  12
ATOM     12  O   UNL     1       4.833   5.490  15.743  0.00  0.00    +0.000 OA
BRANCH  12  14
ATOM     13  O   UNL     1       6.785   5.221  14.515  0.00  0.00    +0.000 OA
ATOM     14  C   UNL     1       6.190   5.422  15.567  0.00  0.00    +0.000 C 
BRANCH  14  15
ATOM     15  C   UNL     1       6.926   5.636  16.834  0.00  0.00    +0.000 A 
ATOM     16  C   UNL     1       7.235   6.949  17.218  0.00  0.00    +0.000 A 
ATOM     17  C   UNL     1       7.915   7.186  18.410  0.00  0.00    +0.000 A 
ATOM     18  C   UNL     1       8.270   6.097  19.187  0.00  0.00    +0.000 A 
ATOM     19  N   UNL     1       7.992   4.816  18.849  0.00  0.00    +0.000 NA
ATOM     20  C   UNL     1       7.327   4.614  17.681  0.00  0.00    +0.000 A 
ENDBRANCH  14  15
ENDBRANCH  12  14
ENDBRANCH   1  12
TORSDOF 5
ENDMDL
MODEL 8
REMARK VINA RESULT:      -7.2      2.039      3.382
REMARK  Name = 
REMARK  5 active torsions:
REMARK  status: ('A' for Active; 'I' for Inactive)
REMARK    1  A    between atoms: C_2  and  O_3
REMARK    2  A    between atoms: C_2  and  C_14
REMARK    3  A    between atoms: O_3  and  N_4
REMARK    4  A    between atoms: C_5  and  C_6
REMARK    5  A    between atoms: C_9  and  O_10
REMARK                            x       y       z     vdW  Elec       q    Type
REMARK                         _______ _______ _______ _____ _____    ______ ____
ROOT
ATOM      1  N   UNL     1       5.290   5.167  17.523  0.00  0.00    +0.000 NA
ATOM      2  C   UNL     1       4.007   5.302  17.435  0.00  0.00    +0.000 C 
ENDROOT
BRANCH   2   3
ATOM      3  C   UNL     1       3.101   4.694  18.435  0.00  0.00    +0.000 A 
ATOM      4  C   UNL     1       2.626   5.439  19.524  0.00  0.00    +0.000 A 
ATOM      5  C   UNL     1       1.819   4.836  20.496  0.00  0.00    +0.000 A 
ATOM      6  C   UNL     1       1.491   3.489  20.372  0.00  0.00    +0.000 A 
ATOM      7  C   UNL     1       1.951   2.757  19.277  0.00  0.00    +0.000 A 
ATOM      8  F   UNL     1       1.638   1.458  19.153  0.00  0.00    +0.000 F 
ATOM      9  C   UNL     1       2.753   3.349  18.304  0.00  0.00    +0.000 A 
BRANCH   6  10
ATOM     10  O   UNL     1       0.725   2.863  21.314  0.00  0.00    +0.000 OA
ATOM     11  H   UNL     1       0.009   3.457  21.594  0.00  0.00    +0.000 HD
ENDBRANCH   6  10
ENDBRANCH   2   3
BRANCH   1  12
ATOM     12  O   UNL     1       5.940   5.784  16.430  0.00  0.00    +0.000 OA
BRANCH  12  14
ATOM     13  O   UNL     1       7.885   4.552  16.731  0.00  0.00    +0.000 OA
ATOM     14  C   UNL     1       6.979   4.986  16.029  0.00  0.00    +0.000 C 
BRANCH  14  15
ATOM     15  C   UNL     1       6.906   4.660  14.586  0.00  0.00    +0.000 A 
ATOM     16  C   UNL     1       5.921   3.763  14.150  0.00  0.00    +0.000 A 
ATOM     17  C   UNL     1       5.816   3.445  12.798  0.00  0.00    +0.000 A 
ATOM     18  C   UNL     1       6.705   4.037  11.918  0.00  0.00    +0.000 A 
ATOM     19  N   UNL     1       7.670   4.905  12.302  0.00  0.00    +0.000 NA
ATOM     20  C   UNL     1       7.749   5.197  13.627  0.00  0.00    +0.000 A 
ENDBRANCH  14  15
ENDBRANCH  12  14
ENDBRANCH   1  12
TORSDOF 5
ENDMDL
MODEL 9
REMARK VINA RESULT:      -7.1      1.331      1.375
REMARK  Name = 
REMARK  5 active torsions:
REMARK  status: ('A' for Active; 'I' for Inactive)
REMARK    1  A    between atoms: C_2  and  O_3
REMARK    2  A    between atoms: C_2  and  C_14
REMARK    3  A    between atoms: O_3  and  N_4
REMARK    4  A    between atoms: C_5  and  C_6
REMARK    5  A    between atoms: C_9  and  O_10
REMARK                            x       y       z     vdW  Elec       q    Type
REMARK                         _______ _______ _______ _____ _____    ______ ____
ROOT
ATOM      1  N   UNL     1       4.802   4.675  16.791  0.00  0.00    +0.000 NA
ATOM      2  C   UNL     1       3.887   3.787  17.009  0.00  0.00    +0.000 C 
ENDROOT
BRANCH   2   3
ATOM      3  C   UNL     1       3.379   3.530  18.376  0.00  0.00    +0.000 A 
ATOM      4  C   UNL     1       4.109   2.744  19.279  0.00  0.00    +0.000 A 
ATOM      5  C   UNL     1       3.590   2.458  20.547  0.00  0.00    +0.000 A 
ATOM      6  C   UNL     1       2.342   2.962  20.905  0.00  0.00    +0.000 A 
ATOM      7  C   UNL     1       1.629   3.758  20.009  0.00  0.00    +0.000 A 
ATOM      8  F   UNL     1       0.426   4.245  20.349  0.00  0.00    +0.000 F 
ATOM      9  C   UNL     1       2.138   4.050  18.746  0.00  0.00    +0.000 A 
BRANCH   6  10
ATOM     10  O   UNL     1       1.797   2.683  22.126  0.00  0.00    +0.000 OA
ATOM     11  H   UNL     1       2.329   3.103  22.821  0.00  0.00    +0.000 HD
ENDBRANCH   6  10
ENDBRANCH   2   3
BRANCH   1  12
ATOM     12  O   UNL     1       5.164   4.704  15.426  0.00  0.00    +0.000 OA
BRANCH  12  14
ATOM     13  O   UNL     1       7.174   5.040  14.313  0.00  0.00    +0.000 OA
ATOM     14  C   UNL     1       6.490   5.035  15.330  0.00  0.00    +0.000 C 
BRANCH  14  15
ATOM     15  C   UNL     1       7.063   5.423  16.639  0.00  0.00    +0.000 A 
ATOM     16  C   UNL     1       7.165   6.786  16.950  0.00  0.00    +0.000 A 
ATOM     17  C   UNL     1       7.686   7.185  18.178  0.00  0.00    +0.000 A 
ATOM     18  C   UNL     1       8.096   6.202  19.063  0.00  0.00    +0.000 A 
ATOM     19  N   UNL     1       8.016   4.877  18.798  0.00  0.00    +0.000 NA
ATOM     20  C   UNL     1       7.502   4.517  17.592  0.00  0.00    +0.000 A 
ENDBRANCH  14  15
ENDBRANCH  12  14
ENDBRANCH   1  12
TORSDOF 5
ENDMDL
