MODEL 1
REMARK VINA RESULT:      -6.7      0.000      0.000
REMARK  Name = 
REMARK  6 active torsions:
REMARK  status: ('A' for Active; 'I' for Inactive)
REMARK    1  A    between atoms: C_1  and  C_2
REMARK    2  A    between atoms: C_5  and  C_6
REMARK    3  A    between atoms: C_7  and  N_8
REMARK    4  A    between atoms: N_8  and  C_9
REMARK    5  A    between atoms: N_8  and  S_10
REMARK    6  A    between atoms: S_10  and  C_13
REMARK                            x       y       z     vdW  Elec       q    Type
REMARK                         _______ _______ _______ _____ _____    ______ ____
ROOT
ATOM      1  N   UNL     1       3.416   5.041  18.504  0.00  0.00    +0.000 N 
ATOM      2  C   UNL     1       3.220   6.416  18.013  0.00  0.00    +0.000 C 
ENDROOT
BRANCH   1   9
ATOM      3  C   UNL     1       2.235   2.050  17.804  0.00  0.00    +0.000 C 
ATOM      4  C   UNL     1       1.831   3.044  18.823  0.00  0.00    +0.000 A 
ATOM      5  N   UNL     1       0.835   2.728  19.663  0.00  0.00    +0.000 NA
ATOM      6  O   UNL     1       0.677   3.813  20.493  0.00  0.00    +0.000 OA
ATOM      7  C   UNL     1       1.581   4.771  20.166  0.00  0.00    +0.000 A 
ATOM      8  C   UNL     1       1.546   5.989  20.993  0.00  0.00    +0.000 C 
ATOM      9  C   UNL     1       2.346   4.343  19.104  0.00  0.00    +0.000 A 
ENDBRANCH   1   9
BRANCH   1  10
ATOM     10  S   UNL     1       5.030   4.595  18.835  0.00  0.00    +0.000 S 
ATOM     11  O   UNL     1       5.651   5.660  19.598  0.00  0.00    +0.000 OA
ATOM     12  O   UNL     1       5.087   3.220  19.281  0.00  0.00    +0.000 OA
BRANCH  10  13
ATOM     13  C   UNL     1       5.916   4.601  17.278  0.00  0.00    +0.000 A 
ATOM     14  C   UNL     1       7.195   4.996  16.919  0.00  0.00    +0.000 A 
ATOM     15  C   UNL     1       7.465   4.771  15.532  0.00  0.00    +0.000 A 
ATOM     16  C   UNL     1       6.380   4.221  14.904  0.00  0.00    +0.000 A 
ATOM     17 CL   UNL     1       6.260   3.783  13.247  0.00  0.00    +0.000 Cl
ATOM     18  S   UNL     1       5.064   3.976  15.929  0.00  0.00    +0.000 S 
ENDBRANCH  10  13
ENDBRANCH   1  10
TORSDOF 3
ENDMDL
MODEL 2
REMARK VINA RESULT:      -6.6      0.472      1.914
REMARK  Name = 
REMARK  6 active torsions:
REMARK  status: ('A' for Active; 'I' for Inactive)
REMARK    1  A    between atoms: C_1  and  C_2
REMARK    2  A    between atoms: C_5  and  C_6
REMARK    3  A    between atoms: C_7  and  N_8
REMARK    4  A    between atoms: N_8  and  C_9
REMARK    5  A    between atoms: N_8  and  S_10
REMARK    6  A    between atoms: S_10  and  C_13
REMARK                            x       y       z     vdW  Elec       q    Type
REMARK                         _______ _______ _______ _____ _____    ______ ____
ROOT
ATOM      1  N   UNL     1       3.509   5.087  18.527  0.00  0.00    +0.000 N 
ATOM      2  C   UNL     1       3.285   6.467  18.066  0.00  0.00    +0.000 C 
ENDROOT
BRANCH   1   9
ATOM      3  C   UNL     1       1.562   5.952  21.036  0.00  0.00    +0.000 C 
ATOM      4  C   UNL     1       1.600   4.726  20.209  0.00  0.00    +0.000 A 
ATOM      5  N   UNL     1       0.692   3.767  20.446  0.00  0.00    +0.000 NA
ATOM      6  O   UNL     1       0.951   2.764  19.542  0.00  0.00    +0.000 OA
ATOM      7  C   UNL     1       1.998   3.120  18.755  0.00  0.00    +0.000 A 
ATOM      8  C   UNL     1       2.374   2.146  17.717  0.00  0.00    +0.000 C 
ATOM      9  C   UNL     1       2.460   4.361  19.132  0.00  0.00    +0.000 A 
ENDBRANCH   1   9
BRANCH   1  10
ATOM     10  S   UNL     1       5.134   4.658  18.824  0.00  0.00    +0.000 S 
ATOM     11  O   UNL     1       5.765   5.738  19.556  0.00  0.00    +0.000 OA
ATOM     12  O   UNL     1       5.215   3.290  19.286  0.00  0.00    +0.000 OA
BRANCH  10  13
ATOM     13  C   UNL     1       5.981   4.651  17.245  0.00  0.00    +0.000 A 
ATOM     14  C   UNL     1       7.238   5.074  16.843  0.00  0.00    +0.000 A 
ATOM     15  C   UNL     1       7.480   4.822  15.455  0.00  0.00    +0.000 A 
ATOM     16  C   UNL     1       6.397   4.223  14.870  0.00  0.00    +0.000 A 
ATOM     17 CL   UNL     1       6.249   3.739  13.228  0.00  0.00    +0.000 Cl
ATOM     18  S   UNL     1       5.115   3.966  15.934  0.00  0.00    +0.000 S 
ENDBRANCH  10  13
ENDBRANCH   1  10
TORSDOF 3
ENDMDL
MODEL 3
REMARK VINA RESULT:      -6.6      2.629      3.492
REMARK  Name = 
REMARK  6 active torsions:
REMARK  status: ('A' for Active; 'I' for Inactive)
REMARK    1  A    between atoms: C_1  and  C_2
REMARK    2  A    between atoms: C_5  and  C_6
REMARK    3  A    between atoms: C_7  and  N_8
REMARK    4  A    between atoms: N_8  and  C_9
REMARK    5  A    between atoms: N_8  and  S_10
REMARK    6  A    between atoms: S_10  and  C_13
REMARK                            x       y       z     vdW  Elec       q    Type
REMARK                         _______ _______ _______ _____ _____    ______ ____
ROOT
ATOM      1  N   UNL     1       5.601   5.443  16.707  0.00  0.00    +0.000 N 
ATOM      2  C   UNL     1       4.899   6.689  16.357  0.00  0.00    +0.000 C 
ENDROOT
BRANCH   1   9
ATOM      3  C   UNL     1       3.173   3.260  17.130  0.00  0.00    +0.000 C 
ATOM      4  C   UNL     1       4.200   3.770  18.065  0.00  0.00    +0.000 A 
ATOM      5  N   UNL     1       4.226   3.280  19.313  0.00  0.00    +0.000 NA
ATOM      6  O   UNL     1       5.267   3.913  19.950  0.00  0.00    +0.000 OA
ATOM      7  C   UNL     1       5.874   4.769  19.089  0.00  0.00    +0.000 A 
ATOM      8  C   UNL     1       7.031   5.503  19.630  0.00  0.00    +0.000 C 
ATOM      9  C   UNL     1       5.238   4.727  17.869  0.00  0.00    +0.000 A 
ENDBRANCH   1   9
BRANCH   1  10
ATOM     10  S   UNL     1       7.153   5.249  16.026  0.00  0.00    +0.000 S 
ATOM     11  O   UNL     1       7.769   6.557  15.911  0.00  0.00    +0.000 OA
ATOM     12  O   UNL     1       7.844   4.147  16.660  0.00  0.00    +0.000 OA
BRANCH  10  13
ATOM     13  C   UNL     1       6.929   4.723  14.328  0.00  0.00    +0.000 A 
ATOM     14  C   UNL     1       7.643   4.956  13.163  0.00  0.00    +0.000 A 
ATOM     15  C   UNL     1       7.082   4.278  12.035  0.00  0.00    +0.000 A 
ATOM     16  C   UNL     1       5.968   3.568  12.395  0.00  0.00    +0.000 A 
ATOM     17 CL   UNL     1       4.983   2.605  11.368  0.00  0.00    +0.000 Cl
ATOM     18  S   UNL     1       5.589   3.698  14.033  0.00  0.00    +0.000 S 
ENDBRANCH  10  13
ENDBRANCH   1  10
TORSDOF 3
ENDMDL
MODEL 4
REMARK VINA RESULT:      -6.5      3.433      6.061
REMARK  Name = 
REMARK  6 active torsions:
REMARK  status: ('A' for Active; 'I' for Inactive)
REMARK    1  A    between atoms: C_1  and  C_2
REMARK    2  A    between atoms: C_5  and  C_6
REMARK    3  A    between atoms: C_7  and  N_8
REMARK    4  A    between atoms: N_8  and  C_9
REMARK    5  A    between atoms: N_8  and  S_10
REMARK    6  A    between atoms: S_10  and  C_13
REMARK                            x       y       z     vdW  Elec       q    Type
REMARK                         _______ _______ _______ _____ _____    ______ ____
ROOT
ATOM      1  N   UNL     1       5.454   4.533  17.727  0.00  0.00    +0.000 N 
ATOM      2  C   UNL     1       5.903   4.227  19.096  0.00  0.00    +0.000 C 
ENDROOT
BRANCH   1   9
ATOM      3  C   UNL     1       5.964   3.675  14.590  0.00  0.00    +0.000 C 
ATOM      4  C   UNL     1       6.582   4.727  15.426  0.00  0.00    +0.000 A 
ATOM      5  N   UNL     1       7.500   5.529  14.867  0.00  0.00    +0.000 NA
ATOM      6  O   UNL     1       7.895   6.403  15.852  0.00  0.00    +0.000 OA
ATOM      7  C   UNL     1       7.211   6.139  16.994  0.00  0.00    +0.000 A 
ATOM      8  C   UNL     1       7.515   7.019  18.136  0.00  0.00    +0.000 C 
ATOM      9  C   UNL     1       6.359   5.077  16.790  0.00  0.00    +0.000 A 
ENDBRANCH   1   9
BRANCH   1  10
ATOM     10  S   UNL     1       3.773   4.750  17.527  0.00  0.00    +0.000 S 
ATOM     11  O   UNL     1       3.528   6.140  17.198  0.00  0.00    +0.000 OA
ATOM     12  O   UNL     1       3.223   3.680  16.724  0.00  0.00    +0.000 OA
BRANCH  10  13
ATOM     13  C   UNL     1       3.014   4.543  19.137  0.00  0.00    +0.000 A 
ATOM     14  C   UNL     1       2.655   5.435  20.136  0.00  0.00    +0.000 A 
ATOM     15  C   UNL     1       2.032   4.785  21.248  0.00  0.00    +0.000 A 
ATOM     16  C   UNL     1       1.952   3.433  21.044  0.00  0.00    +0.000 A 
ATOM     17 CL   UNL     1       1.277   2.268  22.110  0.00  0.00    +0.000 Cl
ATOM     18  S   UNL     1       2.600   2.937  19.568  0.00  0.00    +0.000 S 
ENDBRANCH  10  13
ENDBRANCH   1  10
TORSDOF 3
ENDMDL
MODEL 5
REMARK VINA RESULT:      -6.5      1.920      2.524
REMARK  Name = 
REMARK  6 active torsions:
REMARK  status: ('A' for Active; 'I' for Inactive)
REMARK    1  A    between atoms: C_1  and  C_2
REMARK    2  A    between atoms: C_5  and  C_6
REMARK    3  A    between atoms: C_7  and  N_8
REMARK    4  A    between atoms: N_8  and  C_9
REMARK    5  A    between atoms: N_8  and  S_10
REMARK    6  A    between atoms: S_10  and  C_13
REMARK                            x       y       z     vdW  Elec       q    Type
REMARK                         _______ _______ _______ _____ _____    ______ ____
ROOT
ATOM      1  N   UNL     1       3.655   3.692  18.807  0.00  0.00    +0.000 N 
ATOM      2  C   UNL     1       2.801   3.497  17.623  0.00  0.00    +0.000 C 
ENDROOT
BRANCH   1   9
ATOM      3  C   UNL     1       1.029   4.717  20.507  0.00  0.00    +0.000 C 
ATOM      4  C   UNL     1       2.064   3.708  20.825  0.00  0.00    +0.000 A 
ATOM      5  N   UNL     1       1.963   3.032  21.979  0.00  0.00    +0.000 NA
ATOM      6  O   UNL     1       3.034   2.171  22.012  0.00  0.00    +0.000 OA
ATOM      7  C   UNL     1       3.768   2.316  20.880  0.00  0.00    +0.000 A 
ATOM      8  C   UNL     1       4.942   1.433  20.765  0.00  0.00    +0.000 C 
ATOM      9  C   UNL     1       3.204   3.285  20.082  0.00  0.00    +0.000 A 
ENDBRANCH   1   9
BRANCH   1  10
ATOM     10  S   UNL     1       4.862   4.890  18.663  0.00  0.00    +0.000 S 
ATOM     11  O   UNL     1       4.303   6.156  19.093  0.00  0.00    +0.000 OA
ATOM     12  O   UNL     1       6.116   4.403  19.195  0.00  0.00    +0.000 OA
BRANCH  10  13
ATOM     13  C   UNL     1       5.175   5.124  16.915  0.00  0.00    +0.000 A 
ATOM     14  C   UNL     1       5.051   6.215  16.069  0.00  0.00    +0.000 A 
ATOM     15  C   UNL     1       5.464   5.917  14.731  0.00  0.00    +0.000 A 
ATOM     16  C   UNL     1       5.879   4.617  14.624  0.00  0.00    +0.000 A 
ATOM     17 CL   UNL     1       6.462   3.833  13.211  0.00  0.00    +0.000 Cl
ATOM     18  S   UNL     1       5.780   3.759  16.073  0.00  0.00    +0.000 S 
ENDBRANCH  10  13
ENDBRANCH   1  10
TORSDOF 3
ENDMDL
MODEL 6
REMARK VINA RESULT:      -6.4      2.275      3.091
REMARK  Name = 
REMARK  6 active torsions:
REMARK  status: ('A' for Active; 'I' for Inactive)
REMARK    1  A    between atoms: C_1  and  C_2
REMARK    2  A    between atoms: C_5  and  C_6
REMARK    3  A    between atoms: C_7  and  N_8
REMARK    4  A    between atoms: N_8  and  C_9
REMARK    5  A    between atoms: N_8  and  S_10
REMARK    6  A    between atoms: S_10  and  C_13
REMARK                            x       y       z     vdW  Elec       q    Type
REMARK                         _______ _______ _______ _____ _____    ______ ____
ROOT
ATOM      1  N   UNL     1       2.757   3.874  18.417  0.00  0.00    +0.000 N 
ATOM      2  C   UNL     1       1.969   3.700  17.185  0.00  0.00    +0.000 C 
ENDROOT
BRANCH   1   9
ATOM      3  C   UNL     1       2.981   7.136  18.044  0.00  0.00    +0.000 C 
ATOM      4  C   UNL     1       2.508   6.315  19.180  0.00  0.00    +0.000 A 
ATOM      5  N   UNL     1       2.047   6.941  20.272  0.00  0.00    +0.000 NA
ATOM      6  O   UNL     1       1.674   5.952  21.151  0.00  0.00    +0.000 OA
ATOM      7  C   UNL     1       1.894   4.737  20.588  0.00  0.00    +0.000 A 
ATOM      8  C   UNL     1       1.515   3.576  21.410  0.00  0.00    +0.000 C 
ATOM      9  C   UNL     1       2.429   4.900  19.330  0.00  0.00    +0.000 A 
ENDBRANCH   1   9
BRANCH   1  10
ATOM     10  S   UNL     1       4.331   3.215  18.390  0.00  0.00    +0.000 S 
ATOM     11  O   UNL     1       4.763   3.010  19.758  0.00  0.00    +0.000 OA
ATOM     12  O   UNL     1       4.413   2.155  17.409  0.00  0.00    +0.000 OA
BRANCH  10  13
ATOM     13  C   UNL     1       5.431   4.487  17.773  0.00  0.00    +0.000 A 
ATOM     14  C   UNL     1       5.722   4.950  16.499  0.00  0.00    +0.000 A 
ATOM     15  C   UNL     1       6.660   6.030  16.513  0.00  0.00    +0.000 A 
ATOM     16  C   UNL     1       7.040   6.333  17.793  0.00  0.00    +0.000 A 
ATOM     17 CL   UNL     1       8.142   7.558  18.279  0.00  0.00    +0.000 Cl
ATOM     18  S   UNL     1       6.306   5.361  18.959  0.00  0.00    +0.000 S 
ENDBRANCH  10  13
ENDBRANCH   1  10
TORSDOF 3
ENDMDL
MODEL 7
REMARK VINA RESULT:      -6.4      1.102      2.250
REMARK  Name = 
REMARK  6 active torsions:
REMARK  status: ('A' for Active; 'I' for Inactive)
REMARK    1  A    between atoms: C_1  and  C_2
REMARK    2  A    between atoms: C_5  and  C_6
REMARK    3  A    between atoms: C_7  and  N_8
REMARK    4  A    between atoms: N_8  and  C_9
REMARK    5  A    between atoms: N_8  and  S_10
REMARK    6  A    between atoms: S_10  and  C_13
REMARK                            x       y       z     vdW  Elec       q    Type
REMARK                         _______ _______ _______ _____ _____    ______ ____
ROOT
ATOM      1  N   UNL     1       3.453   5.192  18.296  0.00  0.00    +0.000 N 
ATOM      2  C   UNL     1       3.112   6.571  17.909  0.00  0.00    +0.000 C 
ENDROOT
BRANCH   1   9
ATOM      3  C   UNL     1       1.647   5.958  20.939  0.00  0.00    +0.000 C 
ATOM      4  C   UNL     1       1.718   4.720  20.132  0.00  0.00    +0.000 A 
ATOM      5  N   UNL     1       0.914   3.698  20.459  0.00  0.00    +0.000 NA
ATOM      6  O   UNL     1       1.180   2.698  19.554  0.00  0.00    +0.000 OA
ATOM      7  C   UNL     1       2.129   3.117  18.679  0.00  0.00    +0.000 A 
ATOM      8  C   UNL     1       2.500   2.152  17.630  0.00  0.00    +0.000 C 
ATOM      9  C   UNL     1       2.517   4.400  18.996  0.00  0.00    +0.000 A 
ENDBRANCH   1   9
BRANCH   1  10
ATOM     10  S   UNL     1       5.120   4.836  18.384  0.00  0.00    +0.000 S 
ATOM     11  O   UNL     1       5.823   6.039  18.782  0.00  0.00    +0.000 OA
ATOM     12  O   UNL     1       5.327   3.581  19.074  0.00  0.00    +0.000 OA
BRANCH  10  13
ATOM     13  C   UNL     1       5.689   4.531  16.713  0.00  0.00    +0.000 A 
ATOM     14  C   UNL     1       5.350   3.588  15.755  0.00  0.00    +0.000 A 
ATOM     15  C   UNL     1       6.069   3.773  14.531  0.00  0.00    +0.000 A 
ATOM     16  C   UNL     1       6.920   4.842  14.619  0.00  0.00    +0.000 A 
ATOM     17 CL   UNL     1       7.968   5.429  13.391  0.00  0.00    +0.000 Cl
ATOM     18  S   UNL     1       6.876   5.614  16.118  0.00  0.00    +0.000 S 
ENDBRANCH  10  13
ENDBRANCH   1  10
TORSDOF 3
ENDMDL
MODEL 8
REMARK VINA RESULT:      -6.3      0.991      1.176
REMARK  Name = 
REMARK  6 active torsions:
REMARK  status: ('A' for Active; 'I' for Inactive)
REMARK    1  A    between atoms: C_1  and  C_2
REMARK    2  A    between atoms: C_5  and  C_6
REMARK    3  A    between atoms: C_7  and  N_8
REMARK    4  A    between atoms: N_8  and  C_9
REMARK    5  A    between atoms: N_8  and  S_10
REMARK    6  A    between atoms: S_10  and  C_13
REMARK                            x       y       z     vdW  Elec       q    Type
REMARK                         _______ _______ _______ _____ _____    ______ ____
ROOT
ATOM      1  N   UNL     1       3.396   5.251  18.327  0.00  0.00    +0.000 N 
ATOM      2  C   UNL     1       3.080   6.642  17.965  0.00  0.00    +0.000 C 
ENDROOT
BRANCH   1   9
ATOM      3  C   UNL     1       2.432   2.173  17.669  0.00  0.00    +0.000 C 
ATOM      4  C   UNL     1       2.017   3.119  18.728  0.00  0.00    +0.000 A 
ATOM      5  N   UNL     1       1.114   2.710  19.632  0.00  0.00    +0.000 NA
ATOM      6  O   UNL     1       0.922   3.770  20.486  0.00  0.00    +0.000 OA
ATOM      7  C   UNL     1       1.714   4.806  20.110  0.00  0.00    +0.000 A 
ATOM      8  C   UNL     1       1.632   6.010  20.955  0.00  0.00    +0.000 C 
ATOM      9  C   UNL     1       2.436   4.456  18.991  0.00  0.00    +0.000 A 
ENDBRANCH   1   9
BRANCH   1  10
ATOM     10  S   UNL     1       5.056   4.871  18.442  0.00  0.00    +0.000 S 
ATOM     11  O   UNL     1       5.770   6.065  18.850  0.00  0.00    +0.000 OA
ATOM     12  O   UNL     1       5.235   3.614  19.136  0.00  0.00    +0.000 OA
BRANCH  10  13
ATOM     13  C   UNL     1       5.647   4.557  16.780  0.00  0.00    +0.000 A 
ATOM     14  C   UNL     1       5.313   3.615  15.819  0.00  0.00    +0.000 A 
ATOM     15  C   UNL     1       6.051   3.790  14.606  0.00  0.00    +0.000 A 
ATOM     16  C   UNL     1       6.911   4.851  14.704  0.00  0.00    +0.000 A 
ATOM     17 CL   UNL     1       7.982   5.425  13.490  0.00  0.00    +0.000 Cl
ATOM     18  S   UNL     1       6.852   5.627  16.200  0.00  0.00    +0.000 S 
ENDBRANCH  10  13
ENDBRANCH   1  10
TORSDOF 3
ENDMDL
MODEL 9
REMARK VINA RESULT:      -6.3      3.467      5.901
REMARK  Name = 
REMARK  6 active torsions:
REMARK  status: ('A' for Active; 'I' for Inactive)
REMARK    1  A    between atoms: C_1  and  C_2
REMARK    2  A    between atoms: C_5  and  C_6
REMARK    3  A    between atoms: C_7  and  N_8
REMARK    4  A    between atoms: N_8  and  C_9
REMARK    5  A    between atoms: N_8  and  S_10
REMARK    6  A    between atoms: S_10  and  C_13
REMARK                            x       y       z     vdW  Elec       q    Type
REMARK                         _______ _______ _______ _____ _____    ______ ____
ROOT
ATOM      1  N   UNL     1       4.414   5.132  17.452  0.00  0.00    +0.000 N 
ATOM      2  C   UNL     1       3.778   6.434  17.190  0.00  0.00    +0.000 C 
ENDROOT
BRANCH   1   9
ATOM      3  C   UNL     1       5.683   4.258  14.543  0.00  0.00    +0.000 C 
ATOM      4  C   UNL     1       6.330   4.552  15.841  0.00  0.00    +0.000 A 
ATOM      5  N   UNL     1       7.668   4.502  15.912  0.00  0.00    +0.000 NA
ATOM      6  O   UNL     1       7.993   4.820  17.210  0.00  0.00    +0.000 OA
ATOM      7  C   UNL     1       6.861   5.074  17.913  0.00  0.00    +0.000 A 
ATOM      8  C   UNL     1       7.058   5.456  19.322  0.00  0.00    +0.000 C 
ATOM      9  C   UNL     1       5.763   4.917  17.097  0.00  0.00    +0.000 A 
ENDBRANCH   1   9
BRANCH   1  10
ATOM     10  S   UNL     1       3.351   3.810  17.634  0.00  0.00    +0.000 S 
ATOM     11  O   UNL     1       2.156   4.074  16.857  0.00  0.00    +0.000 OA
ATOM     12  O   UNL     1       4.074   2.564  17.499  0.00  0.00    +0.000 OA
BRANCH  10  13
ATOM     13  C   UNL     1       2.776   3.816  19.331  0.00  0.00    +0.000 A 
ATOM     14  C   UNL     1       2.798   4.773  20.334  0.00  0.00    +0.000 A 
ATOM     15  C   UNL     1       2.174   4.316  21.537  0.00  0.00    +0.000 A 
ATOM     16  C   UNL     1       1.712   3.035  21.393  0.00  0.00    +0.000 A 
ATOM     17 CL   UNL     1       0.895   2.095  22.576  0.00  0.00    +0.000 Cl
ATOM     18  S   UNL     1       2.010   2.381  19.868  0.00  0.00    +0.000 S 
ENDBRANCH  10  13
ENDBRANCH   1  10
TORSDOF 3
ENDMDL
