MODEL 1
REMARK VINA RESULT:      -7.2      0.000      0.000
REMARK  Name = 
REMARK  7 active torsions:
REMARK  status: ('A' for Active; 'I' for Inactive)
REMARK    1  A    between atoms: C_1  and  O_2
REMARK    2  A    between atoms: O_2  and  C_3
REMARK    3  A    between atoms: C_6  and  C_7
REMARK    4  A    between atoms: C_15  and  C_17
REMARK    5  A    between atoms: C_17  and  C_18
REMARK    6  A    between atoms: C_17  and  C_19
REMARK    7  A    between atoms: C_17  and  C_20
REMARK                            x       y       z     vdW  Elec       q    Type
REMARK                         _______ _______ _______ _____ _____    ______ ____
ROOT
ATOM      1  C   UNL     1       1.607   9.730  17.989  0.00  0.00    +0.000 A 
ATOM      2  C   UNL     1       2.485  10.827  17.977  0.00  0.00    +0.000 A 
ATOM      3  C   UNL     1       2.069  12.126  18.398  0.00  0.00    +0.000 A 
ATOM      4  C   UNL     1       0.797  12.360  18.962  0.00  0.00    +0.000 A 
ATOM      5  C   UNL     1      -0.169  11.353  18.742  0.00  0.00    +0.000 A 
ATOM      6  C   UNL     1       0.244  10.098  18.105  0.00  0.00    +0.000 A 
ATOM      7  C   UNL     1      -1.513  11.309  19.472  0.00  0.00    +0.000 C 
ATOM      8  N   UNL     1      -1.474  11.658  20.931  0.00  0.00    +0.000 N 
ATOM      9  C   UNL     1      -1.135  10.949  22.126  0.00  0.00    +0.000 C 
ATOM     10  O   UNL     1      -1.586  11.351  23.211  0.00  0.00    +0.000 OA
ATOM     11  C   UNL     1      -1.596  13.069  21.129  0.00  0.00    +0.000 C 
ATOM     12  C   UNL     1      -0.250  13.623  21.003  0.00  0.00    +0.000 A 
ATOM     13  C   UNL     1       0.431  14.342  21.960  0.00  0.00    +0.000 A 
ATOM     14  N   UNL     1       1.676  14.635  21.521  0.00  0.00    +0.000 NA
ATOM     15  N   UNL     1       1.811  14.109  20.322  0.00  0.00    +0.000 NA
ATOM     16  N   UNL     1       0.702  13.370  20.008  0.00  0.00    +0.000 N 
ENDROOT
BRANCH   1  20
ATOM     17  C   UNL     1       3.396   5.795  19.237  0.00  0.00    +0.000 A 
ATOM     18  C   UNL     1       2.448   6.444  20.003  0.00  0.00    +0.000 A 
ATOM     19  C   UNL     1       1.769   7.565  19.487  0.00  0.00    +0.000 A 
ATOM     20  C   UNL     1       2.120   8.264  18.284  0.00  0.00    +0.000 A 
ATOM     21  C   UNL     1       3.122   7.596  17.555  0.00  0.00    +0.000 A 
ATOM     22  C   UNL     1       3.714   6.368  18.000  0.00  0.00    +0.000 A 
BRANCH  17  24
ATOM     23  C   UNL     1       5.057   4.199  18.940  0.00  0.00    +0.000 C 
ATOM     24  O   UNL     1       4.006   4.705  19.788  0.00  0.00    +0.000 OA
ENDBRANCH  17  24
ENDBRANCH   1  20
BRANCH   9  25
ATOM     25  C   UNL     1      -0.047   9.822  22.202  0.00  0.00    +0.000 C 
ATOM     26  C   UNL     1       0.120   9.453  23.603  0.00  0.00    +0.000 C 
ATOM     27  C   UNL     1      -0.496   8.473  21.573  0.00  0.00    +0.000 C 
ATOM     28  C   UNL     1       1.344  10.206  21.698  0.00  0.00    +0.000 C 
ENDBRANCH   9  25
TORSDOF 3
ENDMDL
MODEL 2
REMARK VINA RESULT:      -7.1      1.003      1.356
REMARK  Name = 
REMARK  7 active torsions:
REMARK  status: ('A' for Active; 'I' for Inactive)
REMARK    1  A    between atoms: C_1  and  O_2
REMARK    2  A    between atoms: O_2  and  C_3
REMARK    3  A    between atoms: C_6  and  C_7
REMARK    4  A    between atoms: C_15  and  C_17
REMARK    5  A    between atoms: C_17  and  C_18
REMARK    6  A    between atoms: C_17  and  C_19
REMARK    7  A    between atoms: C_17  and  C_20
REMARK                            x       y       z     vdW  Elec       q    Type
REMARK                         _______ _______ _______ _____ _____    ______ ____
ROOT
ATOM      1  C   UNL     1       1.621   9.213  18.097  0.00  0.00    +0.000 A 
ATOM      2  C   UNL     1       2.555  10.256  17.986  0.00  0.00    +0.000 A 
ATOM      3  C   UNL     1       2.201  11.613  18.259  0.00  0.00    +0.000 A 
ATOM      4  C   UNL     1       0.934  11.969  18.767  0.00  0.00    +0.000 A 
ATOM      5  C   UNL     1      -0.079  10.993  18.635  0.00  0.00    +0.000 A 
ATOM      6  C   UNL     1       0.278   9.658  18.145  0.00  0.00    +0.000 A 
ATOM      7  C   UNL     1      -1.435  11.094  19.338  0.00  0.00    +0.000 C 
ATOM      8  N   UNL     1      -1.401  11.596  20.752  0.00  0.00    +0.000 N 
ATOM      9  C   UNL     1      -1.118  11.003  22.022  0.00  0.00    +0.000 C 
ATOM     10  O   UNL     1      -1.564  11.540  23.049  0.00  0.00    +0.000 OA
ATOM     11  C   UNL     1      -1.452  13.024  20.796  0.00  0.00    +0.000 C 
ATOM     12  C   UNL     1      -0.078  13.494  20.640  0.00  0.00    +0.000 A 
ATOM     13  C   UNL     1       0.624  14.276  21.529  0.00  0.00    +0.000 A 
ATOM     14  N   UNL     1       1.889  14.458  21.088  0.00  0.00    +0.000 NA
ATOM     15  N   UNL     1       2.016  13.801  19.954  0.00  0.00    +0.000 NA
ATOM     16  N   UNL     1       0.875  13.088  19.698  0.00  0.00    +0.000 N 
ENDROOT
BRANCH   1  20
ATOM     17  C   UNL     1       2.319   4.923  19.259  0.00  0.00    +0.000 A 
ATOM     18  C   UNL     1       2.257   5.323  17.939  0.00  0.00    +0.000 A 
ATOM     19  C   UNL     1       2.238   6.694  17.616  0.00  0.00    +0.000 A 
ATOM     20  C   UNL     1       2.054   7.763  18.556  0.00  0.00    +0.000 A 
ATOM     21  C   UNL     1       2.077   7.308  19.888  0.00  0.00    +0.000 A 
ATOM     22  C   UNL     1       2.249   5.927  20.232  0.00  0.00    +0.000 A 
BRANCH  17  24
ATOM     23  C   UNL     1       1.044   3.067  19.829  0.00  0.00    +0.000 C 
ATOM     24  O   UNL     1       2.352   3.580  19.505  0.00  0.00    +0.000 OA
ENDBRANCH  17  24
ENDBRANCH   1  20
BRANCH   9  25
ATOM     25  C   UNL     1      -0.091   9.838  22.241  0.00  0.00    +0.000 C 
ATOM     26  C   UNL     1      -0.032   9.554  23.670  0.00  0.00    +0.000 C 
ATOM     27  C   UNL     1      -0.561   8.471  21.668  0.00  0.00    +0.000 C 
ATOM     28  C   UNL     1       1.346  10.129  21.808  0.00  0.00    +0.000 C 
ENDBRANCH   9  25
TORSDOF 3
ENDMDL
MODEL 3
REMARK VINA RESULT:      -6.6      0.549      1.317
REMARK  Name = 
REMARK  7 active torsions:
REMARK  status: ('A' for Active; 'I' for Inactive)
REMARK    1  A    between atoms: C_1  and  O_2
REMARK    2  A    between atoms: O_2  and  C_3
REMARK    3  A    between atoms: C_6  and  C_7
REMARK    4  A    between atoms: C_15  and  C_17
REMARK    5  A    between atoms: C_17  and  C_18
REMARK    6  A    between atoms: C_17  and  C_19
REMARK    7  A    between atoms: C_17  and  C_20
REMARK                            x       y       z     vdW  Elec       q    Type
REMARK                         _______ _______ _______ _____ _____    ______ ____
ROOT
ATOM      1  C   UNL     1       1.744   9.575  18.088  0.00  0.00    +0.000 A 
ATOM      2  C   UNL     1       2.572  10.706  18.005  0.00  0.00    +0.000 A 
ATOM      3  C   UNL     1       2.085  12.016  18.298  0.00  0.00    +0.000 A 
ATOM      4  C   UNL     1       0.786  12.238  18.801  0.00  0.00    +0.000 A 
ATOM      5  C   UNL     1      -0.127  11.170  18.642  0.00  0.00    +0.000 A 
ATOM      6  C   UNL     1       0.363   9.885  18.132  0.00  0.00    +0.000 A 
ATOM      7  C   UNL     1      -1.491  11.126  19.334  0.00  0.00    +0.000 C 
ATOM      8  N   UNL     1      -1.516  11.602  20.757  0.00  0.00    +0.000 N 
ATOM      9  C   UNL     1      -1.186  11.016  22.019  0.00  0.00    +0.000 C 
ATOM     10  O   UNL     1      -1.690  11.489  23.051  0.00  0.00    +0.000 OA
ATOM     11  C   UNL     1      -1.708  13.018  20.826  0.00  0.00    +0.000 C 
ATOM     12  C   UNL     1      -0.385  13.622  20.691  0.00  0.00    +0.000 A 
ATOM     13  C   UNL     1       0.231  14.453  21.600  0.00  0.00    +0.000 A 
ATOM     14  N   UNL     1       1.475  14.765  21.174  0.00  0.00    +0.000 NA
ATOM     15  N   UNL     1       1.674  14.144  20.030  0.00  0.00    +0.000 NA
ATOM     16  N   UNL     1       0.610  13.328  19.751  0.00  0.00    +0.000 N 
ENDROOT
BRANCH   1  20
ATOM     17  C   UNL     1       2.971   5.338  18.976  0.00  0.00    +0.000 A 
ATOM     18  C   UNL     1       3.293   5.960  17.786  0.00  0.00    +0.000 A 
ATOM     19  C   UNL     1       3.068   7.341  17.626  0.00  0.00    +0.000 A 
ATOM     20  C   UNL     1       2.312   8.166  18.526  0.00  0.00    +0.000 A 
ATOM     21  C   UNL     1       1.963   7.482  19.706  0.00  0.00    +0.000 A 
ATOM     22  C   UNL     1       2.322   6.115  19.943  0.00  0.00    +0.000 A 
BRANCH  17  24
ATOM     23  C   UNL     1       3.534   3.423  17.788  0.00  0.00    +0.000 C 
ATOM     24  O   UNL     1       3.230   4.001  19.073  0.00  0.00    +0.000 OA
ENDBRANCH  17  24
ENDBRANCH   1  20
BRANCH   9  25
ATOM     25  C   UNL     1      -0.052   9.953  22.227  0.00  0.00    +0.000 C 
ATOM     26  C   UNL     1      -0.390   8.776  21.435  0.00  0.00    +0.000 C 
ATOM     27  C   UNL     1       1.314  10.364  21.611  0.00  0.00    +0.000 C 
ATOM     28  C   UNL     1       0.139   9.458  23.660  0.00  0.00    +0.000 C 
ENDBRANCH   9  25
TORSDOF 3
ENDMDL
MODEL 4
REMARK VINA RESULT:      -6.5      0.741      1.082
REMARK  Name = 
REMARK  7 active torsions:
REMARK  status: ('A' for Active; 'I' for Inactive)
REMARK    1  A    between atoms: C_1  and  O_2
REMARK    2  A    between atoms: O_2  and  C_3
REMARK    3  A    between atoms: C_6  and  C_7
REMARK    4  A    between atoms: C_15  and  C_17
REMARK    5  A    between atoms: C_17  and  C_18
REMARK    6  A    between atoms: C_17  and  C_19
REMARK    7  A    between atoms: C_17  and  C_20
REMARK                            x       y       z     vdW  Elec       q    Type
REMARK                         _______ _______ _______ _____ _____    ______ ____
ROOT
ATOM      1  C   UNL     1       1.540   9.249  18.021  0.00  0.00    +0.000 A 
ATOM      2  C   UNL     1       2.520  10.253  17.951  0.00  0.00    +0.000 A 
ATOM      3  C   UNL     1       2.227  11.612  18.279  0.00  0.00    +0.000 A 
ATOM      4  C   UNL     1       0.978  12.003  18.805  0.00  0.00    +0.000 A 
ATOM      5  C   UNL     1      -0.079  11.080  18.635  0.00  0.00    +0.000 A 
ATOM      6  C   UNL     1       0.218   9.751  18.090  0.00  0.00    +0.000 A 
ATOM      7  C   UNL     1      -1.428  11.214  19.345  0.00  0.00    +0.000 C 
ATOM      8  N   UNL     1      -1.371  11.655  20.778  0.00  0.00    +0.000 N 
ATOM      9  C   UNL     1      -1.114  10.999  22.022  0.00  0.00    +0.000 C 
ATOM     10  O   UNL     1      -1.535  11.513  23.071  0.00  0.00    +0.000 OA
ATOM     11  C   UNL     1      -1.358  13.082  20.880  0.00  0.00    +0.000 C 
ATOM     12  C   UNL     1       0.036  13.494  20.740  0.00  0.00    +0.000 A 
ATOM     13  C   UNL     1       0.773  14.208  21.659  0.00  0.00    +0.000 A 
ATOM     14  N   UNL     1       2.045  14.350  21.223  0.00  0.00    +0.000 NA
ATOM     15  N   UNL     1       2.142  13.735  20.063  0.00  0.00    +0.000 NA
ATOM     16  N   UNL     1       0.970  13.085  19.780  0.00  0.00    +0.000 N 
ENDROOT
BRANCH   1  20
ATOM     17  C   UNL     1       3.109   5.224  19.279  0.00  0.00    +0.000 A 
ATOM     18  C   UNL     1       2.814   6.214  20.195  0.00  0.00    +0.000 A 
ATOM     19  C   UNL     1       2.140   7.380  19.783  0.00  0.00    +0.000 A 
ATOM     20  C   UNL     1       1.907   7.763  18.420  0.00  0.00    +0.000 A 
ATOM     21  C   UNL     1       2.264   6.746  17.514  0.00  0.00    +0.000 A 
ATOM     22  C   UNL     1       2.811   5.491  17.937  0.00  0.00    +0.000 A 
BRANCH  17  24
ATOM     23  C   UNL     1       2.814   3.131  20.243  0.00  0.00    +0.000 C 
ATOM     24  O   UNL     1       3.748   4.111  19.745  0.00  0.00    +0.000 OA
ENDBRANCH  17  24
ENDBRANCH   1  20
BRANCH   9  25
ATOM     25  C   UNL     1      -0.141   9.781  22.191  0.00  0.00    +0.000 C 
ATOM     26  C   UNL     1       1.168  10.178  21.687  0.00  0.00    +0.000 C 
ATOM     27  C   UNL     1       0.183   9.437  23.672  0.00  0.00    +0.000 C 
ATOM     28  C   UNL     1      -0.522   8.515  21.422  0.00  0.00    +0.000 C 
ENDBRANCH   9  25
TORSDOF 3
ENDMDL
MODEL 5
REMARK VINA RESULT:      -6.3      4.808      6.999
REMARK  Name = 
REMARK  7 active torsions:
REMARK  status: ('A' for Active; 'I' for Inactive)
REMARK    1  A    between atoms: C_1  and  O_2
REMARK    2  A    between atoms: O_2  and  C_3
REMARK    3  A    between atoms: C_6  and  C_7
REMARK    4  A    between atoms: C_15  and  C_17
REMARK    5  A    between atoms: C_17  and  C_18
REMARK    6  A    between atoms: C_17  and  C_19
REMARK    7  A    between atoms: C_17  and  C_20
REMARK                            x       y       z     vdW  Elec       q    Type
REMARK                         _______ _______ _______ _____ _____    ______ ____
ROOT
ATOM      1  C   UNL     1      -1.940  12.459  20.348  0.00  0.00    +0.000 A 
ATOM      2  C   UNL     1      -1.875  11.724  21.544  0.00  0.00    +0.000 A 
ATOM      3  C   UNL     1      -2.549  12.155  22.727  0.00  0.00    +0.000 A 
ATOM      4  C   UNL     1      -3.412  13.271  22.734  0.00  0.00    +0.000 A 
ATOM      5  C   UNL     1      -3.283  14.156  21.640  0.00  0.00    +0.000 A 
ATOM      6  C   UNL     1      -2.409  13.784  20.522  0.00  0.00    +0.000 A 
ATOM      7  C   UNL     1      -4.287  15.274  21.345  0.00  0.00    +0.000 C 
ATOM      8  N   UNL     1      -5.732  14.921  21.541  0.00  0.00    +0.000 N 
ATOM      9  C   UNL     1      -6.713  14.236  20.759  0.00  0.00    +0.000 C 
ATOM     10  O   UNL     1      -7.916  14.451  20.981  0.00  0.00    +0.000 OA
ATOM     11  C   UNL     1      -6.138  15.133  22.895  0.00  0.00    +0.000 C 
ATOM     12  C   UNL     1      -5.786  13.919  23.628  0.00  0.00    +0.000 A 
ATOM     13  C   UNL     1      -6.651  13.105  24.323  0.00  0.00    +0.000 A 
ATOM     14  N   UNL     1      -5.986  12.037  24.819  0.00  0.00    +0.000 NA
ATOM     15  N   UNL     1      -4.727  12.141  24.445  0.00  0.00    +0.000 NA
ATOM     16  N   UNL     1      -4.577  13.213  23.606  0.00  0.00    +0.000 N 
ENDROOT
BRANCH   1  20
ATOM     17  C   UNL     1      -2.307  10.116  16.525  0.00  0.00    +0.000 A 
ATOM     18  C   UNL     1      -3.208  11.104  16.867  0.00  0.00    +0.000 A 
ATOM     19  C   UNL     1      -2.949  11.947  17.966  0.00  0.00    +0.000 A 
ATOM     20  C   UNL     1      -1.913  11.745  18.938  0.00  0.00    +0.000 A 
ATOM     21  C   UNL     1      -1.042  10.699  18.576  0.00  0.00    +0.000 A 
ATOM     22  C   UNL     1      -1.211   9.933  17.377  0.00  0.00    +0.000 A 
BRANCH  17  24
ATOM     23  C   UNL     1      -3.322  10.093  14.436  0.00  0.00    +0.000 C 
ATOM     24  O   UNL     1      -2.607   9.344  15.440  0.00  0.00    +0.000 OA
ENDBRANCH  17  24
ENDBRANCH   1  20
BRANCH   9  25
ATOM     25  C   UNL     1      -6.391  13.054  19.779  0.00  0.00    +0.000 C 
ATOM     26  C   UNL     1      -7.654  12.550  19.253  0.00  0.00    +0.000 C 
ATOM     27  C   UNL     1      -5.663  13.497  18.479  0.00  0.00    +0.000 C 
ATOM     28  C   UNL     1      -5.683  11.851  20.401  0.00  0.00    +0.000 C 
ENDBRANCH   9  25
TORSDOF 3
ENDMDL
MODEL 6
REMARK VINA RESULT:      -6.2      7.563      9.385
REMARK  Name = 
REMARK  7 active torsions:
REMARK  status: ('A' for Active; 'I' for Inactive)
REMARK    1  A    between atoms: C_1  and  O_2
REMARK    2  A    between atoms: O_2  and  C_3
REMARK    3  A    between atoms: C_6  and  C_7
REMARK    4  A    between atoms: C_15  and  C_17
REMARK    5  A    between atoms: C_17  and  C_18
REMARK    6  A    between atoms: C_17  and  C_19
REMARK    7  A    between atoms: C_17  and  C_20
REMARK                            x       y       z     vdW  Elec       q    Type
REMARK                         _______ _______ _______ _____ _____    ______ ____
ROOT
ATOM      1  C   UNL     1       9.248  13.645  22.510  0.00  0.00    +0.000 A 
ATOM      2  C   UNL     1       8.182  12.893  23.029  0.00  0.00    +0.000 A 
ATOM      3  C   UNL     1       7.021  13.516  23.581  0.00  0.00    +0.000 A 
ATOM      4  C   UNL     1       6.824  14.912  23.528  0.00  0.00    +0.000 A 
ATOM      5  C   UNL     1       7.974  15.687  23.259  0.00  0.00    +0.000 A 
ATOM      6  C   UNL     1       9.223  15.007  22.900  0.00  0.00    +0.000 A 
ATOM      7  C   UNL     1       7.918  17.179  22.921  0.00  0.00    +0.000 C 
ATOM      8  N   UNL     1       6.803  17.599  22.008  0.00  0.00    +0.000 N 
ATOM      9  C   UNL     1       6.597  17.571  20.594  0.00  0.00    +0.000 C 
ATOM     10  O   UNL     1       5.772  18.352  20.091  0.00  0.00    +0.000 OA
ATOM     11  C   UNL     1       5.611  17.885  22.746  0.00  0.00    +0.000 C 
ATOM     12  C   UNL     1       4.923  16.611  22.932  0.00  0.00    +0.000 A 
ATOM     13  C   UNL     1       3.648  16.301  22.512  0.00  0.00    +0.000 A 
ATOM     14  N   UNL     1       3.367  15.010  22.797  0.00  0.00    +0.000 NA
ATOM     15  N   UNL     1       4.431  14.486  23.370  0.00  0.00    +0.000 NA
ATOM     16  N   UNL     1       5.458  15.391  23.363  0.00  0.00    +0.000 N 
ENDROOT
BRANCH   1  20
ATOM     17  C   UNL     1      11.320  12.447  18.700  0.00  0.00    +0.000 A 
ATOM     18  C   UNL     1      11.401  13.729  19.206  0.00  0.00    +0.000 A 
ATOM     19  C   UNL     1      10.910  14.013  20.495  0.00  0.00    +0.000 A 
ATOM     20  C   UNL     1      10.108  13.126  21.289  0.00  0.00    +0.000 A 
ATOM     21  C   UNL     1      10.010  11.844  20.717  0.00  0.00    +0.000 A 
ATOM     22  C   UNL     1      10.638  11.501  19.474  0.00  0.00    +0.000 A 
BRANCH  17  24
ATOM     23  C   UNL     1      11.626  13.373  16.592  0.00  0.00    +0.000 C 
ATOM     24  O   UNL     1      11.829  12.234  17.452  0.00  0.00    +0.000 OA
ENDBRANCH  17  24
ENDBRANCH   1  20
BRANCH   9  25
ATOM     25  C   UNL     1       7.176  16.468  19.641  0.00  0.00    +0.000 C 
ATOM     26  C   UNL     1       6.693  16.741  18.292  0.00  0.00    +0.000 C 
ATOM     27  C   UNL     1       8.716  16.552  19.447  0.00  0.00    +0.000 C 
ATOM     28  C   UNL     1       6.758  15.032  19.957  0.00  0.00    +0.000 C 
ENDBRANCH   9  25
TORSDOF 3
ENDMDL
MODEL 7
REMARK VINA RESULT:      -6.2      6.199      9.984
REMARK  Name = 
REMARK  7 active torsions:
REMARK  status: ('A' for Active; 'I' for Inactive)
REMARK    1  A    between atoms: C_1  and  O_2
REMARK    2  A    between atoms: O_2  and  C_3
REMARK    3  A    between atoms: C_6  and  C_7
REMARK    4  A    between atoms: C_15  and  C_17
REMARK    5  A    between atoms: C_17  and  C_18
REMARK    6  A    between atoms: C_17  and  C_19
REMARK    7  A    between atoms: C_17  and  C_20
REMARK                            x       y       z     vdW  Elec       q    Type
REMARK                         _______ _______ _______ _____ _____    ______ ____
ROOT
ATOM      1  C   UNL     1      -6.528  14.850  23.549  0.00  0.00    +0.000 A 
ATOM      2  C   UNL     1      -7.225  13.745  24.066  0.00  0.00    +0.000 A 
ATOM      3  C   UNL     1      -7.872  12.799  23.214  0.00  0.00    +0.000 A 
ATOM      4  C   UNL     1      -7.749  12.850  21.809  0.00  0.00    +0.000 A 
ATOM      5  C   UNL     1      -7.288  14.074  21.275  0.00  0.00    +0.000 A 
ATOM      6  C   UNL     1      -6.824  15.121  22.191  0.00  0.00    +0.000 A 
ATOM      7  C   UNL     1      -6.858  14.241  19.815  0.00  0.00    +0.000 C 
ATOM      8  N   UNL     1      -6.064  13.107  19.236  0.00  0.00    +0.000 N 
ATOM      9  C   UNL     1      -4.691  12.712  19.287  0.00  0.00    +0.000 C 
ATOM     10  O   UNL     1      -4.241  11.981  18.389  0.00  0.00    +0.000 OA
ATOM     11  C   UNL     1      -6.921  12.095  18.700  0.00  0.00    +0.000 C 
ATOM     12  C   UNL     1      -7.277  11.221  19.814  0.00  0.00    +0.000 A 
ATOM     13  C   UNL     1      -7.040   9.867  19.899  0.00  0.00    +0.000 A 
ATOM     14  N   UNL     1      -7.445   9.400  21.101  0.00  0.00    +0.000 NA
ATOM     15  N   UNL     1      -7.917  10.419  21.789  0.00  0.00    +0.000 NA
ATOM     16  N   UNL     1      -7.721  11.582  21.092  0.00  0.00    +0.000 N 
ENDROOT
BRANCH   1  20
ATOM     17  C   UNL     1      -2.754  16.743  25.103  0.00  0.00    +0.000 A 
ATOM     18  C   UNL     1      -3.890  17.483  24.840  0.00  0.00    +0.000 A 
ATOM     19  C   UNL     1      -5.105  16.833  24.549  0.00  0.00    +0.000 A 
ATOM     20  C   UNL     1      -5.248  15.431  24.273  0.00  0.00    +0.000 A 
ATOM     21  C   UNL     1      -4.057  14.720  24.508  0.00  0.00    +0.000 A 
ATOM     22  C   UNL     1      -2.851  15.355  24.954  0.00  0.00    +0.000 A 
BRANCH  17  24
ATOM     23  C   UNL     1      -0.559  16.553  25.839  0.00  0.00    +0.000 C 
ATOM     24  O   UNL     1      -1.613  17.433  25.395  0.00  0.00    +0.000 OA
ENDBRANCH  17  24
ENDBRANCH   1  20
BRANCH   9  25
ATOM     25  C   UNL     1      -3.751  12.952  20.520  0.00  0.00    +0.000 C 
ATOM     26  C   UNL     1      -3.671  14.389  20.751  0.00  0.00    +0.000 C 
ATOM     27  C   UNL     1      -4.342  12.448  21.866  0.00  0.00    +0.000 C 
ATOM     28  C   UNL     1      -2.309  12.469  20.359  0.00  0.00    +0.000 C 
ENDBRANCH   9  25
TORSDOF 3
ENDMDL
MODEL 8
REMARK VINA RESULT:      -6.1      4.856      8.756
REMARK  Name = 
REMARK  7 active torsions:
REMARK  status: ('A' for Active; 'I' for Inactive)
REMARK    1  A    between atoms: C_1  and  O_2
REMARK    2  A    between atoms: O_2  and  C_3
REMARK    3  A    between atoms: C_6  and  C_7
REMARK    4  A    between atoms: C_15  and  C_17
REMARK    5  A    between atoms: C_17  and  C_18
REMARK    6  A    between atoms: C_17  and  C_19
REMARK    7  A    between atoms: C_17  and  C_20
REMARK                            x       y       z     vdW  Elec       q    Type
REMARK                         _______ _______ _______ _____ _____    ______ ____
ROOT
ATOM      1  C   UNL     1       1.246   6.415  19.586  0.00  0.00    +0.000 A 
ATOM      2  C   UNL     1       1.368   5.780  20.833  0.00  0.00    +0.000 A 
ATOM      3  C   UNL     1       1.757   4.410  20.943  0.00  0.00    +0.000 A 
ATOM      4  C   UNL     1       2.157   3.652  19.823  0.00  0.00    +0.000 A 
ATOM      5  C   UNL     1       1.794   4.178  18.562  0.00  0.00    +0.000 A 
ATOM      6  C   UNL     1       1.192   5.514  18.495  0.00  0.00    +0.000 A 
ATOM      7  C   UNL     1       2.344   3.638  17.240  0.00  0.00    +0.000 C 
ATOM      8  N   UNL     1       3.803   3.283  17.237  0.00  0.00    +0.000 N 
ATOM      9  C   UNL     1       5.017   4.025  17.100  0.00  0.00    +0.000 C 
ATOM     10  O   UNL     1       6.043   3.435  16.723  0.00  0.00    +0.000 OA
ATOM     11  C   UNL     1       4.010   1.941  17.686  0.00  0.00    +0.000 C 
ATOM     12  C   UNL     1       4.069   1.997  19.145  0.00  0.00    +0.000 A 
ATOM     13  C   UNL     1       5.119   1.589  19.936  0.00  0.00    +0.000 A 
ATOM     14  N   UNL     1       4.851   1.852  21.235  0.00  0.00    +0.000 NA
ATOM     15  N   UNL     1       3.669   2.430  21.290  0.00  0.00    +0.000 NA
ATOM     16  N   UNL     1       3.201   2.657  20.023  0.00  0.00    +0.000 N 
ENDROOT
BRANCH   1  20
ATOM     17  C   UNL     1       1.619  10.859  18.989  0.00  0.00    +0.000 A 
ATOM     18  C   UNL     1       1.097  10.317  20.146  0.00  0.00    +0.000 A 
ATOM     19  C   UNL     1       1.180   8.930  20.378  0.00  0.00    +0.000 A 
ATOM     20  C   UNL     1       1.576   7.951  19.406  0.00  0.00    +0.000 A 
ATOM     21  C   UNL     1       2.059   8.542  18.223  0.00  0.00    +0.000 A 
ATOM     22  C   UNL     1       2.120   9.962  18.037  0.00  0.00    +0.000 A 
BRANCH  17  24
ATOM     23  C   UNL     1       2.660  12.748  18.129  0.00  0.00    +0.000 C 
ATOM     24  O   UNL     1       1.522  12.211  18.832  0.00  0.00    +0.000 OA
ENDBRANCH  17  24
ENDBRANCH   1  20
BRANCH   9  25
ATOM     25  C   UNL     1       5.211   5.497  17.604  0.00  0.00    +0.000 C 
ATOM     26  C   UNL     1       6.609   5.860  17.404  0.00  0.00    +0.000 C 
ATOM     27  C   UNL     1       4.483   6.560  16.735  0.00  0.00    +0.000 C 
ATOM     28  C   UNL     1       4.922   5.735  19.087  0.00  0.00    +0.000 C 
ENDBRANCH   9  25
TORSDOF 3
ENDMDL
MODEL 9
REMARK VINA RESULT:      -6.1      5.354      7.151
REMARK  Name = 
REMARK  7 active torsions:
REMARK  status: ('A' for Active; 'I' for Inactive)
REMARK    1  A    between atoms: C_1  and  O_2
REMARK    2  A    between atoms: O_2  and  C_3
REMARK    3  A    between atoms: C_6  and  C_7
REMARK    4  A    between atoms: C_15  and  C_17
REMARK    5  A    between atoms: C_17  and  C_18
REMARK    6  A    between atoms: C_17  and  C_19
REMARK    7  A    between atoms: C_17  and  C_20
REMARK                            x       y       z     vdW  Elec       q    Type
REMARK                         _______ _______ _______ _____ _____    ______ ____
ROOT
ATOM      1  C   UNL     1      -5.533  12.941  20.289  0.00  0.00    +0.000 A 
ATOM      2  C   UNL     1      -6.041  14.240  20.116  0.00  0.00    +0.000 A 
ATOM      3  C   UNL     1      -6.035  15.195  21.178  0.00  0.00    +0.000 A 
ATOM      4  C   UNL     1      -5.414  14.934  22.418  0.00  0.00    +0.000 A 
ATOM      5  C   UNL     1      -5.141  13.576  22.696  0.00  0.00    +0.000 A 
ATOM      6  C   UNL     1      -5.361  12.576  21.646  0.00  0.00    +0.000 A 
ATOM      7  C   UNL     1      -4.260  13.122  23.862  0.00  0.00    +0.000 C 
ATOM      8  N   UNL     1      -3.028  13.944  24.108  0.00  0.00    +0.000 N 
ATOM      9  C   UNL     1      -1.723  13.996  23.527  0.00  0.00    +0.000 C 
ATOM     10  O   UNL     1      -0.788  14.474  24.191  0.00  0.00    +0.000 OA
ATOM     11  C   UNL     1      -3.310  15.054  24.964  0.00  0.00    +0.000 C 
ATOM     12  C   UNL     1      -3.802  16.126  24.103  0.00  0.00    +0.000 A 
ATOM     13  C   UNL     1      -3.254  17.381  23.964  0.00  0.00    +0.000 A 
ATOM     14  N   UNL     1      -3.934  18.085  23.031  0.00  0.00    +0.000 NA
ATOM     15  N   UNL     1      -4.889  17.309  22.562  0.00  0.00    +0.000 NA
ATOM     16  N   UNL     1      -4.773  16.053  23.096  0.00  0.00    +0.000 N 
ENDROOT
BRANCH   1  20
ATOM     17  C   UNL     1      -3.281  11.236  16.787  0.00  0.00    +0.000 A 
ATOM     18  C   UNL     1      -2.657  11.545  17.978  0.00  0.00    +0.000 A 
ATOM     19  C   UNL     1      -3.422  11.886  19.110  0.00  0.00    +0.000 A 
ATOM     20  C   UNL     1      -4.830  12.166  19.103  0.00  0.00    +0.000 A 
ATOM     21  C   UNL     1      -5.421  11.882  17.858  0.00  0.00    +0.000 A 
ATOM     22  C   UNL     1      -4.672  11.388  16.740  0.00  0.00    +0.000 A 
BRANCH  17  24
ATOM     23  C   UNL     1      -3.219  10.184  14.717  0.00  0.00    +0.000 C 
ATOM     24  O   UNL     1      -2.484  10.897  15.732  0.00  0.00    +0.000 OA
ENDBRANCH  17  24
ENDBRANCH   1  20
BRANCH   9  25
ATOM     25  C   UNL     1      -1.418  13.699  22.017  0.00  0.00    +0.000 C 
ATOM     26  C   UNL     1       0.006  13.922  21.794  0.00  0.00    +0.000 C 
ATOM     27  C   UNL     1      -1.566  12.200  21.631  0.00  0.00    +0.000 C 
ATOM     28  C   UNL     1      -2.147  14.583  21.006  0.00  0.00    +0.000 C 
ENDBRANCH   9  25
TORSDOF 3
ENDMDL
