MODEL 1
REMARK VINA RESULT:      -7.7      0.000      0.000
REMARK  Name = 
REMARK  5 active torsions:
REMARK  status: ('A' for Active; 'I' for Inactive)
REMARK    1  A    between atoms: C_2  and  C_3
REMARK    2  A    between atoms: C_3  and  O_4
REMARK    3  A    between atoms: O_4  and  C_5
REMARK    4  A    between atoms: C_5  and  C_7
REMARK    5  A    between atoms: N_16  and  C_17
REMARK                            x       y       z     vdW  Elec       q    Type
REMARK                         _______ _______ _______ _____ _____    ______ ____
ROOT
ATOM      1  C   UNL     1       2.550   3.657  20.981  0.00  0.00    +0.000 C 
ENDROOT
BRANCH   1   3
ATOM      2  O   UNL     1       0.999   4.594  19.414  0.00  0.00    +0.000 OA
ATOM      3  C   UNL     1       1.933   4.809  20.185  0.00  0.00    +0.000 C 
ATOM      4  N   UNL     1       2.532   6.041  20.386  0.00  0.00    +0.000 N 
ATOM      5  H   UNL     1       3.431   6.055  20.878  0.00  0.00    +0.000 HD
BRANCH   4   6
ATOM      6  C   UNL     1       2.069   7.287  19.902  0.00  0.00    +0.000 A 
ATOM      7  C   UNL     1       1.366   8.203  20.694  0.00  0.00    +0.000 A 
ATOM      8  C   UNL     1       0.958   9.426  20.161  0.00  0.00    +0.000 A 
ATOM      9 CL   UNL     1       0.106  10.543  21.157  0.00  0.00    +0.000 Cl
ATOM     10  C   UNL     1       1.240   9.758  18.836  0.00  0.00    +0.000 A 
ATOM     11  C   UNL     1       1.940   8.857  18.037  0.00  0.00    +0.000 A 
ATOM     12  C   UNL     1       2.354   7.637  18.575  0.00  0.00    +0.000 A 
ATOM     13  F   UNL     1       3.027   6.783  17.788  0.00  0.00    +0.000 F 
ENDBRANCH   4   6
ENDBRANCH   1   3
BRANCH   1  14
ATOM     14  O   UNL     1       2.978   2.556  20.178  0.00  0.00    +0.000 OA
BRANCH  14  15
ATOM     15  C   UNL     1       4.312   2.482  19.978  0.00  0.00    +0.000 C 
ATOM     16  O   UNL     1       5.067   1.718  20.563  0.00  0.00    +0.000 OA
BRANCH  15  17
ATOM     17  C   UNL     1       4.748   3.415  18.907  0.00  0.00    +0.000 A 
ATOM     18  C   UNL     1       4.207   3.378  17.617  0.00  0.00    +0.000 A 
ATOM     19  C   UNL     1       4.677   4.248  16.625  0.00  0.00    +0.000 A 
ATOM     20  C   UNL     1       5.704   5.166  16.923  0.00  0.00    +0.000 A 
ATOM     21  N   UNL     1       6.271   6.066  16.037  0.00  0.00    +0.000 NA
ATOM     22  C   UNL     1       7.203   6.757  16.652  0.00  0.00    +0.000 A 
ATOM     23  S   UNL     1       7.456   6.396  18.305  0.00  0.00    +0.000 S 
ATOM     24  C   UNL     1       6.224   5.193  18.219  0.00  0.00    +0.000 A 
ATOM     25  C   UNL     1       5.761   4.333  19.226  0.00  0.00    +0.000 A 
ENDBRANCH  15  17
ENDBRANCH  14  15
ENDBRANCH   1  14
TORSDOF 5
ENDMDL
MODEL 2
REMARK VINA RESULT:      -7.5      1.440      1.809
REMARK  Name = 
REMARK  5 active torsions:
REMARK  status: ('A' for Active; 'I' for Inactive)
REMARK    1  A    between atoms: C_2  and  C_3
REMARK    2  A    between atoms: C_3  and  O_4
REMARK    3  A    between atoms: O_4  and  C_5
REMARK    4  A    between atoms: C_5  and  C_7
REMARK    5  A    between atoms: N_16  and  C_17
REMARK                            x       y       z     vdW  Elec       q    Type
REMARK                         _______ _______ _______ _____ _____    ______ ____
ROOT
ATOM      1  C   UNL     1       2.724   3.500  20.902  0.00  0.00    +0.000 C 
ENDROOT
BRANCH   1   3
ATOM      2  O   UNL     1       0.665   4.567  20.301  0.00  0.00    +0.000 OA
ATOM      3  C   UNL     1       1.877   4.696  20.462  0.00  0.00    +0.000 C 
ATOM      4  N   UNL     1       2.591   5.862  20.238  0.00  0.00    +0.000 N 
ATOM      5  H   UNL     1       3.611   5.790  20.193  0.00  0.00    +0.000 HD
BRANCH   4   6
ATOM      6  C   UNL     1       2.044   7.141  19.978  0.00  0.00    +0.000 A 
ATOM      7  C   UNL     1       1.389   7.906  20.950  0.00  0.00    +0.000 A 
ATOM      8  C   UNL     1       0.895   9.172  20.634  0.00  0.00    +0.000 A 
ATOM      9 CL   UNL     1       0.102  10.100  21.849  0.00  0.00    +0.000 Cl
ATOM     10  C   UNL     1       1.042   9.697  19.350  0.00  0.00    +0.000 A 
ATOM     11  C   UNL     1       1.694   8.948  18.374  0.00  0.00    +0.000 A 
ATOM     12  C   UNL     1       2.195   7.685  18.694  0.00  0.00    +0.000 A 
ATOM     13  F   UNL     1       2.819   6.979  17.739  0.00  0.00    +0.000 F 
ENDBRANCH   4   6
ENDBRANCH   1   3
BRANCH   1  14
ATOM     14  O   UNL     1       3.981   3.396  20.232  0.00  0.00    +0.000 OA
BRANCH  14  15
ATOM     15  C   UNL     1       3.912   2.966  18.954  0.00  0.00    +0.000 C 
ATOM     16  O   UNL     1       3.107   2.148  18.532  0.00  0.00    +0.000 OA
BRANCH  15  17
ATOM     17  C   UNL     1       4.911   3.658  18.099  0.00  0.00    +0.000 A 
ATOM     18  C   UNL     1       5.840   4.566  18.619  0.00  0.00    +0.000 A 
ATOM     19  C   UNL     1       6.735   5.229  17.770  0.00  0.00    +0.000 A 
ATOM     20  C   UNL     1       6.702   4.985  16.383  0.00  0.00    +0.000 A 
ATOM     21  N   UNL     1       7.515   5.581  15.434  0.00  0.00    +0.000 NA
ATOM     22  C   UNL     1       7.204   5.125  14.242  0.00  0.00    +0.000 A 
ATOM     23  S   UNL     1       5.949   3.964  14.173  0.00  0.00    +0.000 S 
ATOM     24  C   UNL     1       5.774   4.068  15.885  0.00  0.00    +0.000 A 
ATOM     25  C   UNL     1       4.873   3.391  16.721  0.00  0.00    +0.000 A 
ENDBRANCH  15  17
ENDBRANCH  14  15
ENDBRANCH   1  14
TORSDOF 5
ENDMDL
MODEL 3
REMARK VINA RESULT:      -7.1      6.354      8.418
REMARK  Name = 
REMARK  5 active torsions:
REMARK  status: ('A' for Active; 'I' for Inactive)
REMARK    1  A    between atoms: C_2  and  C_3
REMARK    2  A    between atoms: C_3  and  O_4
REMARK    3  A    between atoms: O_4  and  C_5
REMARK    4  A    between atoms: C_5  and  C_7
REMARK    5  A    between atoms: N_16  and  C_17
REMARK                            x       y       z     vdW  Elec       q    Type
REMARK                         _______ _______ _______ _____ _____    ______ ____
ROOT
ATOM      1  C   UNL     1       7.911   9.380  17.783  0.00  0.00    +0.000 C 
ENDROOT
BRANCH   1   3
ATOM      2  O   UNL     1       8.044   7.116  18.555  0.00  0.00    +0.000 OA
ATOM      3  C   UNL     1       7.472   7.914  17.814  0.00  0.00    +0.000 C 
ATOM      4  N   UNL     1       6.448   7.595  16.938  0.00  0.00    +0.000 N 
ATOM      5  H   UNL     1       6.204   8.287  16.224  0.00  0.00    +0.000 HD
BRANCH   4   6
ATOM      6  C   UNL     1       5.754   6.364  16.875  0.00  0.00    +0.000 A 
ATOM      7  C   UNL     1       4.509   6.154  17.480  0.00  0.00    +0.000 A 
ATOM      8  C   UNL     1       3.866   4.922  17.358  0.00  0.00    +0.000 A 
ATOM      9 CL   UNL     1       2.330   4.690  18.101  0.00  0.00    +0.000 Cl
ATOM     10  C   UNL     1       4.448   3.880  16.636  0.00  0.00    +0.000 A 
ATOM     11  C   UNL     1       5.685   4.075  16.026  0.00  0.00    +0.000 A 
ATOM     12  C   UNL     1       6.323   5.312  16.143  0.00  0.00    +0.000 A 
ATOM     13  F   UNL     1       7.515   5.479  15.550  0.00  0.00    +0.000 F 
ENDBRANCH   4   6
ENDBRANCH   1   3
BRANCH   1  14
ATOM     14  O   UNL     1       9.256   9.596  18.210  0.00  0.00    +0.000 OA
BRANCH  14  15
ATOM     15  C   UNL     1       9.420  10.616  19.081  0.00  0.00    +0.000 C 
ATOM     16  O   UNL     1       9.205  10.553  20.282  0.00  0.00    +0.000 OA
BRANCH  15  17
ATOM     17  C   UNL     1       9.955  11.824  18.399  0.00  0.00    +0.000 A 
ATOM     18  C   UNL     1      11.145  11.802  17.665  0.00  0.00    +0.000 A 
ATOM     19  C   UNL     1      11.635  12.974  17.074  0.00  0.00    +0.000 A 
ATOM     20  C   UNL     1      10.929  14.185  17.221  0.00  0.00    +0.000 A 
ATOM     21  N   UNL     1      11.308  15.413  16.706  0.00  0.00    +0.000 NA
ATOM     22  C   UNL     1      10.421  16.321  17.043  0.00  0.00    +0.000 A 
ATOM     23  S   UNL     1       9.090  15.780  17.972  0.00  0.00    +0.000 S 
ATOM     24  C   UNL     1       9.738  14.183  17.950  0.00  0.00    +0.000 A 
ATOM     25  C   UNL     1       9.230  13.017  18.543  0.00  0.00    +0.000 A 
ENDBRANCH  15  17
ENDBRANCH  14  15
ENDBRANCH   1  14
TORSDOF 5
ENDMDL
MODEL 4
REMARK VINA RESULT:      -7.1      1.926      2.372
REMARK  Name = 
REMARK  5 active torsions:
REMARK  status: ('A' for Active; 'I' for Inactive)
REMARK    1  A    between atoms: C_2  and  C_3
REMARK    2  A    between atoms: C_3  and  O_4
REMARK    3  A    between atoms: O_4  and  C_5
REMARK    4  A    between atoms: C_5  and  C_7
REMARK    5  A    between atoms: N_16  and  C_17
REMARK                            x       y       z     vdW  Elec       q    Type
REMARK                         _______ _______ _______ _____ _____    ______ ____
ROOT
ATOM      1  C   UNL     1       2.979   4.655  20.452  0.00  0.00    +0.000 C 
ENDROOT
BRANCH   1   3
ATOM      2  O   UNL     1       0.683   5.329  20.561  0.00  0.00    +0.000 OA
ATOM      3  C   UNL     1       1.854   5.692  20.469  0.00  0.00    +0.000 C 
ATOM      4  N   UNL     1       2.272   7.006  20.334  0.00  0.00    +0.000 N 
ATOM      5  H   UNL     1       3.242   7.166  20.047  0.00  0.00    +0.000 HD
BRANCH   4   6
ATOM      6  C   UNL     1       1.466   8.160  20.472  0.00  0.00    +0.000 A 
ATOM      7  C   UNL     1       0.836   8.516  21.670  0.00  0.00    +0.000 A 
ATOM      8  C   UNL     1       0.074   9.682  21.745  0.00  0.00    +0.000 A 
ATOM      9 CL   UNL     1      -0.682  10.106  23.233  0.00  0.00    +0.000 Cl
ATOM     10  C   UNL     1      -0.077  10.511  20.634  0.00  0.00    +0.000 A 
ATOM     11  C   UNL     1       0.546  10.170  19.435  0.00  0.00    +0.000 A 
ATOM     12  C   UNL     1       1.315   9.007  19.365  0.00  0.00    +0.000 A 
ATOM     13  F   UNL     1       1.906   8.696  18.201  0.00  0.00    +0.000 F 
ENDBRANCH   4   6
ENDBRANCH   1   3
BRANCH   1  14
ATOM     14  O   UNL     1       4.112   5.035  19.670  0.00  0.00    +0.000 OA
BRANCH  14  15
ATOM     15  C   UNL     1       4.867   4.007  19.223  0.00  0.00    +0.000 C 
ATOM     16  O   UNL     1       4.857   2.877  19.688  0.00  0.00    +0.000 OA
BRANCH  15  17
ATOM     17  C   UNL     1       5.681   4.410  18.047  0.00  0.00    +0.000 A 
ATOM     18  C   UNL     1       6.760   5.295  18.152  0.00  0.00    +0.000 A 
ATOM     19  C   UNL     1       7.474   5.681  17.011  0.00  0.00    +0.000 A 
ATOM     20  C   UNL     1       7.105   5.180  15.746  0.00  0.00    +0.000 A 
ATOM     21  N   UNL     1       7.711   5.491  14.541  0.00  0.00    +0.000 NA
ATOM     22  C   UNL     1       7.104   4.851  13.568  0.00  0.00    +0.000 A 
ATOM     23  S   UNL     1       5.798   3.841  14.017  0.00  0.00    +0.000 S 
ATOM     24  C   UNL     1       6.031   4.291  15.664  0.00  0.00    +0.000 A 
ATOM     25  C   UNL     1       5.309   3.889  16.799  0.00  0.00    +0.000 A 
ENDBRANCH  15  17
ENDBRANCH  14  15
ENDBRANCH   1  14
TORSDOF 5
ENDMDL
MODEL 5
REMARK VINA RESULT:      -7.0      5.350      6.863
REMARK  Name = 
REMARK  5 active torsions:
REMARK  status: ('A' for Active; 'I' for Inactive)
REMARK    1  A    between atoms: C_2  and  C_3
REMARK    2  A    between atoms: C_3  and  O_4
REMARK    3  A    between atoms: O_4  and  C_5
REMARK    4  A    between atoms: C_5  and  C_7
REMARK    5  A    between atoms: N_16  and  C_17
REMARK                            x       y       z     vdW  Elec       q    Type
REMARK                         _______ _______ _______ _____ _____    ______ ____
ROOT
ATOM      1  C   UNL     1       8.074   7.395  17.993  0.00  0.00    +0.000 C 
ENDROOT
BRANCH   1   3
ATOM      2  O   UNL     1       7.533   9.692  17.578  0.00  0.00    +0.000 OA
ATOM      3  C   UNL     1       8.242   8.903  18.199  0.00  0.00    +0.000 C 
ATOM      4  N   UNL     1       9.251   9.260  19.078  0.00  0.00    +0.000 N 
ATOM      5  H   UNL     1       9.911   8.530  19.362  0.00  0.00    +0.000 HD
BRANCH   4   6
ATOM      6  C   UNL     1       9.516  10.562  19.564  0.00  0.00    +0.000 A 
ATOM      7  C   UNL     1       9.137  10.996  20.840  0.00  0.00    +0.000 A 
ATOM      8  C   UNL     1       9.453  12.286  21.266  0.00  0.00    +0.000 A 
ATOM      9 CL   UNL     1       8.987  12.794  22.844  0.00  0.00    +0.000 Cl
ATOM     10  C   UNL     1      10.146  13.165  20.435  0.00  0.00    +0.000 A 
ATOM     11  C   UNL     1      10.531  12.746  19.163  0.00  0.00    +0.000 A 
ATOM     12  C   UNL     1      10.222  11.451  18.741  0.00  0.00    +0.000 A 
ATOM     13  F   UNL     1      10.601  11.068  17.513  0.00  0.00    +0.000 F 
ENDBRANCH   4   6
ENDBRANCH   1   3
BRANCH   1  14
ATOM     14  O   UNL     1       6.716   6.954  18.001  0.00  0.00    +0.000 OA
BRANCH  14  15
ATOM     15  C   UNL     1       6.479   5.852  18.746  0.00  0.00    +0.000 C 
ATOM     16  O   UNL     1       7.264   5.366  19.547  0.00  0.00    +0.000 OA
BRANCH  15  17
ATOM     17  C   UNL     1       5.109   5.328  18.510  0.00  0.00    +0.000 A 
ATOM     18  C   UNL     1       4.050   6.154  18.119  0.00  0.00    +0.000 A 
ATOM     19  C   UNL     1       2.763   5.626  17.950  0.00  0.00    +0.000 A 
ATOM     20  C   UNL     1       2.530   4.255  18.176  0.00  0.00    +0.000 A 
ATOM     21  N   UNL     1       1.311   3.609  18.063  0.00  0.00    +0.000 NA
ATOM     22  C   UNL     1       1.460   2.337  18.355  0.00  0.00    +0.000 A 
ATOM     23  S   UNL     1       3.041   1.829  18.767  0.00  0.00    +0.000 S 
ATOM     24  C   UNL     1       3.603   3.445  18.557  0.00  0.00    +0.000 A 
ATOM     25  C   UNL     1       4.899   3.957  18.726  0.00  0.00    +0.000 A 
ENDBRANCH  15  17
ENDBRANCH  14  15
ENDBRANCH   1  14
TORSDOF 5
ENDMDL
MODEL 6
REMARK VINA RESULT:      -7.0      5.665      7.187
REMARK  Name = 
REMARK  5 active torsions:
REMARK  status: ('A' for Active; 'I' for Inactive)
REMARK    1  A    between atoms: C_2  and  C_3
REMARK    2  A    between atoms: C_3  and  O_4
REMARK    3  A    between atoms: O_4  and  C_5
REMARK    4  A    between atoms: C_5  and  C_7
REMARK    5  A    between atoms: N_16  and  C_17
REMARK                            x       y       z     vdW  Elec       q    Type
REMARK                         _______ _______ _______ _____ _____    ______ ____
ROOT
ATOM      1  C   UNL     1       8.143   7.981  17.978  0.00  0.00    +0.000 C 
ENDROOT
BRANCH   1   3
ATOM      2  O   UNL     1       7.957  10.334  17.567  0.00  0.00    +0.000 OA
ATOM      3  C   UNL     1       8.453   9.452  18.266  0.00  0.00    +0.000 C 
ATOM      4  N   UNL     1       9.334   9.666  19.313  0.00  0.00    +0.000 N 
ATOM      5  H   UNL     1       9.845   8.855  19.674  0.00  0.00    +0.000 HD
BRANCH   4   6
ATOM      6  C   UNL     1       9.667  10.916  19.885  0.00  0.00    +0.000 A 
ATOM      7  C   UNL     1       9.089  11.397  21.065  0.00  0.00    +0.000 A 
ATOM      8  C   UNL     1       9.481  12.629  21.590  0.00  0.00    +0.000 A 
ATOM      9 CL   UNL     1       8.764  13.196  23.049  0.00  0.00    +0.000 Cl
ATOM     10  C   UNL     1      10.450  13.403  20.951  0.00  0.00    +0.000 A 
ATOM     11  C   UNL     1      11.036  12.935  19.776  0.00  0.00    +0.000 A 
ATOM     12  C   UNL     1      10.648  11.698  19.258  0.00  0.00    +0.000 A 
ATOM     13  F   UNL     1      11.223  11.267  18.126  0.00  0.00    +0.000 F 
ENDBRANCH   4   6
ENDBRANCH   1   3
BRANCH   1  14
ATOM     14  O   UNL     1       7.049   7.779  17.083  0.00  0.00    +0.000 OA
BRANCH  14  15
ATOM     15  C   UNL     1       6.819   6.492  16.745  0.00  0.00    +0.000 C 
ATOM     16  O   UNL     1       7.353   5.905  15.814  0.00  0.00    +0.000 OA
BRANCH  15  17
ATOM     17  C   UNL     1       5.866   5.850  17.688  0.00  0.00    +0.000 A 
ATOM     18  C   UNL     1       6.055   4.552  18.173  0.00  0.00    +0.000 A 
ATOM     19  C   UNL     1       5.110   3.970  19.027  0.00  0.00    +0.000 A 
ATOM     20  C   UNL     1       3.959   4.692  19.401  0.00  0.00    +0.000 A 
ATOM     21  N   UNL     1       2.942   4.233  20.220  0.00  0.00    +0.000 NA
ATOM     22  C   UNL     1       2.026   5.165  20.346  0.00  0.00    +0.000 A 
ATOM     23  S   UNL     1       2.315   6.635  19.518  0.00  0.00    +0.000 S 
ATOM     24  C   UNL     1       3.794   5.990  18.913  0.00  0.00    +0.000 A 
ATOM     25  C   UNL     1       4.734   6.591  18.061  0.00  0.00    +0.000 A 
ENDBRANCH  15  17
ENDBRANCH  14  15
ENDBRANCH   1  14
TORSDOF 5
ENDMDL
MODEL 7
REMARK VINA RESULT:      -6.8      3.565      5.958
REMARK  Name = 
REMARK  5 active torsions:
REMARK  status: ('A' for Active; 'I' for Inactive)
REMARK    1  A    between atoms: C_2  and  C_3
REMARK    2  A    between atoms: C_3  and  O_4
REMARK    3  A    between atoms: O_4  and  C_5
REMARK    4  A    between atoms: C_5  and  C_7
REMARK    5  A    between atoms: N_16  and  C_17
REMARK                            x       y       z     vdW  Elec       q    Type
REMARK                         _______ _______ _______ _____ _____    ______ ____
ROOT
ATOM      1  C   UNL     1       2.474   2.784  19.177  0.00  0.00    +0.000 C 
ENDROOT
BRANCH   1   3
ATOM      2  O   UNL     1       2.493   3.335  16.845  0.00  0.00    +0.000 OA
ATOM      3  C   UNL     1       3.150   3.239  17.881  0.00  0.00    +0.000 C 
ATOM      4  N   UNL     1       4.510   3.478  17.987  0.00  0.00    +0.000 N 
ATOM      5  H   UNL     1       4.981   3.156  18.838  0.00  0.00    +0.000 HD
BRANCH   4   6
ATOM      6  C   UNL     1       5.339   4.051  16.995  0.00  0.00    +0.000 A 
ATOM      7  C   UNL     1       5.415   3.563  15.685  0.00  0.00    +0.000 A 
ATOM      8  C   UNL     1       6.235   4.191  14.747  0.00  0.00    +0.000 A 
ATOM      9 CL   UNL     1       6.303   3.581  13.138  0.00  0.00    +0.000 Cl
ATOM     10  C   UNL     1       6.994   5.309  15.094  0.00  0.00    +0.000 A 
ATOM     11  C   UNL     1       6.927   5.806  16.394  0.00  0.00    +0.000 A 
ATOM     12  C   UNL     1       6.099   5.181  17.329  0.00  0.00    +0.000 A 
ATOM     13  F   UNL     1       6.050   5.675  18.575  0.00  0.00    +0.000 F 
ENDBRANCH   4   6
ENDBRANCH   1   3
BRANCH   1  14
ATOM     14  O   UNL     1       1.564   3.737  19.727  0.00  0.00    +0.000 OA
BRANCH  14  15
ATOM     15  C   UNL     1       2.125   4.654  20.544  0.00  0.00    +0.000 C 
ATOM     16  O   UNL     1       2.707   4.399  21.589  0.00  0.00    +0.000 OA
BRANCH  15  17
ATOM     17  C   UNL     1       1.997   6.025  19.983  0.00  0.00    +0.000 A 
ATOM     18  C   UNL     1       2.501   6.368  18.725  0.00  0.00    +0.000 A 
ATOM     19  C   UNL     1       2.395   7.682  18.253  0.00  0.00    +0.000 A 
ATOM     20  C   UNL     1       1.780   8.669  19.049  0.00  0.00    +0.000 A 
ATOM     21  N   UNL     1       1.625  10.003  18.713  0.00  0.00    +0.000 NA
ATOM     22  C   UNL     1       1.017  10.633  19.692  0.00  0.00    +0.000 A 
ATOM     23  S   UNL     1       0.585   9.691  21.054  0.00  0.00    +0.000 S 
ATOM     24  C   UNL     1       1.275   8.304  20.299  0.00  0.00    +0.000 A 
ATOM     25  C   UNL     1       1.367   6.990  20.784  0.00  0.00    +0.000 A 
ENDBRANCH  15  17
ENDBRANCH  14  15
ENDBRANCH   1  14
TORSDOF 5
ENDMDL
MODEL 8
REMARK VINA RESULT:      -6.8      5.512      7.138
REMARK  Name = 
REMARK  5 active torsions:
REMARK  status: ('A' for Active; 'I' for Inactive)
REMARK    1  A    between atoms: C_2  and  C_3
REMARK    2  A    between atoms: C_3  and  O_4
REMARK    3  A    between atoms: O_4  and  C_5
REMARK    4  A    between atoms: C_5  and  C_7
REMARK    5  A    between atoms: N_16  and  C_17
REMARK                            x       y       z     vdW  Elec       q    Type
REMARK                         _______ _______ _______ _____ _____    ______ ____
ROOT
ATOM      1  C   UNL     1       8.012   7.293  18.231  0.00  0.00    +0.000 C 
ENDROOT
BRANCH   1   3
ATOM      2  O   UNL     1       7.532   9.502  17.437  0.00  0.00    +0.000 OA
ATOM      3  C   UNL     1       8.227   8.808  18.177  0.00  0.00    +0.000 C 
ATOM      4  N   UNL     1       9.256   9.278  18.976  0.00  0.00    +0.000 N 
ATOM      5  H   UNL     1       9.898   8.587  19.375  0.00  0.00    +0.000 HD
BRANCH   4   6
ATOM      6  C   UNL     1       9.565  10.635  19.232  0.00  0.00    +0.000 A 
ATOM      7  C   UNL     1       9.980  11.527  18.236  0.00  0.00    +0.000 A 
ATOM      8  C   UNL     1      10.244  12.860  18.552  0.00  0.00    +0.000 A 
ATOM      9 CL   UNL     1      10.742  13.942  17.308  0.00  0.00    +0.000 Cl
ATOM     10  C   UNL     1      10.103  13.327  19.858  0.00  0.00    +0.000 A 
ATOM     11  C   UNL     1       9.688  12.451  20.859  0.00  0.00    +0.000 A 
ATOM     12  C   UNL     1       9.416  11.120  20.539  0.00  0.00    +0.000 A 
ATOM     13  F   UNL     1       9.019  10.292  21.518  0.00  0.00    +0.000 F 
ENDBRANCH   4   6
ENDBRANCH   1   3
BRANCH   1  14
ATOM     14  O   UNL     1       6.643   6.901  18.334  0.00  0.00    +0.000 OA
BRANCH  14  15
ATOM     15  C   UNL     1       6.142   6.290  17.239  0.00  0.00    +0.000 C 
ATOM     16  O   UNL     1       6.705   6.219  16.156  0.00  0.00    +0.000 OA
BRANCH  15  17
ATOM     17  C   UNL     1       4.829   5.658  17.530  0.00  0.00    +0.000 A 
ATOM     18  C   UNL     1       3.669   6.409  17.749  0.00  0.00    +0.000 A 
ATOM     19  C   UNL     1       2.461   5.773  18.063  0.00  0.00    +0.000 A 
ATOM     20  C   UNL     1       2.410   4.368  18.163  0.00  0.00    +0.000 A 
ATOM     21  N   UNL     1       1.291   3.617  18.481  0.00  0.00    +0.000 NA
ATOM     22  C   UNL     1       1.608   2.343  18.491  0.00  0.00    +0.000 A 
ATOM     23  S   UNL     1       3.233   1.958  18.118  0.00  0.00    +0.000 S 
ATOM     24  C   UNL     1       3.576   3.636  17.931  0.00  0.00    +0.000 A 
ATOM     25  C   UNL     1       4.794   4.257  17.610  0.00  0.00    +0.000 A 
ENDBRANCH  15  17
ENDBRANCH  14  15
ENDBRANCH   1  14
TORSDOF 5
ENDMDL
MODEL 9
REMARK VINA RESULT:      -6.8      4.930      8.125
REMARK  Name = 
REMARK  5 active torsions:
REMARK  status: ('A' for Active; 'I' for Inactive)
REMARK    1  A    between atoms: C_2  and  C_3
REMARK    2  A    between atoms: C_3  and  O_4
REMARK    3  A    between atoms: O_4  and  C_5
REMARK    4  A    between atoms: C_5  and  C_7
REMARK    5  A    between atoms: N_16  and  C_17
REMARK                            x       y       z     vdW  Elec       q    Type
REMARK                         _______ _______ _______ _____ _____    ______ ____
ROOT
ATOM      1  C   UNL     1       1.088   9.988  21.509  0.00  0.00    +0.000 C 
ENDROOT
BRANCH   1   3
ATOM      2  O   UNL     1      -0.234   7.994  21.378  0.00  0.00    +0.000 OA
ATOM      3  C   UNL     1       0.854   8.519  21.149  0.00  0.00    +0.000 C 
ATOM      4  N   UNL     1       1.952   7.872  20.606  0.00  0.00    +0.000 N 
ATOM      5  H   UNL     1       2.858   8.346  20.667  0.00  0.00    +0.000 HD
BRANCH   4   6
ATOM      6  C   UNL     1       1.966   6.572  20.048  0.00  0.00    +0.000 A 
ATOM      7  C   UNL     1       1.657   5.420  20.781  0.00  0.00    +0.000 A 
ATOM      8  C   UNL     1       1.665   4.169  20.162  0.00  0.00    +0.000 A 
ATOM      9 CL   UNL     1       1.270   2.767  21.080  0.00  0.00    +0.000 Cl
ATOM     10  C   UNL     1       1.981   4.042  18.809  0.00  0.00    +0.000 A 
ATOM     11  C   UNL     1       2.288   5.181  18.067  0.00  0.00    +0.000 A 
ATOM     12  C   UNL     1       2.271   6.432  18.686  0.00  0.00    +0.000 A 
ATOM     13  F   UNL     1       2.571   7.516  17.954  0.00  0.00    +0.000 F 
ENDBRANCH   4   6
ENDBRANCH   1   3
BRANCH   1  14
ATOM     14  O   UNL     1       0.351  10.910  20.706  0.00  0.00    +0.000 OA
BRANCH  14  15
ATOM     15  C   UNL     1       0.470  10.727  19.373  0.00  0.00    +0.000 C 
ATOM     16  O   UNL     1       1.523  10.539  18.782  0.00  0.00    +0.000 OA
BRANCH  15  17
ATOM     17  C   UNL     1      -0.861  10.725  18.710  0.00  0.00    +0.000 A 
ATOM     18  C   UNL     1      -1.098  10.046  17.511  0.00  0.00    +0.000 A 
ATOM     19  C   UNL     1      -2.356  10.106  16.898  0.00  0.00    +0.000 A 
ATOM     20  C   UNL     1      -3.391  10.857  17.488  0.00  0.00    +0.000 A 
ATOM     21  N   UNL     1      -4.670  11.015  16.983  0.00  0.00    +0.000 NA
ATOM     22  C   UNL     1      -5.367  11.785  17.787  0.00  0.00    +0.000 A 
ATOM     23  S   UNL     1      -4.562  12.355  19.185  0.00  0.00    +0.000 S 
ATOM     24  C   UNL     1      -3.137  11.521  18.691  0.00  0.00    +0.000 A 
ATOM     25  C   UNL     1      -1.884  11.466  19.321  0.00  0.00    +0.000 A 
ENDBRANCH  15  17
ENDBRANCH  14  15
ENDBRANCH   1  14
TORSDOF 5
ENDMDL
