MODEL 1
REMARK VINA RESULT:      -7.9      0.000      0.000
REMARK  Name = 
REMARK  8 active torsions:
REMARK  status: ('A' for Active; 'I' for Inactive)
REMARK    1  A    between atoms: C_1  and  C_2
REMARK    2  A    between atoms: C_6  and  N_7
REMARK    3  A    between atoms: C_8  and  C_10
REMARK    4  A    between atoms: C_10  and  S_11
REMARK    5  A    between atoms: S_11  and  C_12
REMARK    6  A    between atoms: C_15  and  C_16
REMARK    7  A    between atoms: N_19  and  C_20
REMARK    8  A    between atoms: C_20  and  C_21
REMARK                            x       y       z     vdW  Elec       q    Type
REMARK                         _______ _______ _______ _____ _____    ______ ____
ROOT
ATOM      1  C   UNL     1       4.771   4.282  18.160  0.00  0.00    +0.000 A 
ATOM      2  N   UNL     1       4.607   3.201  17.430  0.00  0.00    +0.000 NA
ATOM      3  N   UNL     1       3.277   2.849  17.492  0.00  0.00    +0.000 NA
ATOM      4  C   UNL     1       2.655   3.723  18.252  0.00  0.00    +0.000 A 
ATOM      5  N   UNL     1       3.550   4.706  18.631  0.00  0.00    +0.000 N 
ENDROOT
BRANCH   4   6
ATOM      6  C   UNL     1       1.181   3.606  18.651  0.00  0.00    +0.000 C 
ATOM      7  C   UNL     1       0.611   2.235  18.954  0.00  0.00    +0.000 C 
ATOM      8  C   UNL     1       0.856   3.190  20.072  0.00  0.00    +0.000 C 
ENDBRANCH   4   6
BRANCH   1   9
ATOM      9  S   UNL     1       6.301   5.011  18.552  0.00  0.00    +0.000 S 
BRANCH   9  10
ATOM     10  C   UNL     1       6.241   6.554  17.577  0.00  0.00    +0.000 C 
BRANCH  10  12
ATOM     11  N   UNL     1       6.969   5.373  15.538  0.00  0.00    +0.000 N 
ATOM     12  C   UNL     1       6.072   6.287  16.078  0.00  0.00    +0.000 C 
ATOM     13  O   UNL     1       5.214   6.897  15.441  0.00  0.00    +0.000 OA
ATOM     14  H   UNL     1       7.516   4.839  16.204  0.00  0.00    +0.000 HD
BRANCH  11  20
ATOM     15  C   UNL     1       5.356   2.391  11.933  0.00  0.00    +0.000 C 
ATOM     16  C   UNL     1       6.260   3.495  12.397  0.00  0.00    +0.000 A 
ATOM     17  C   UNL     1       7.103   4.140  11.486  0.00  0.00    +0.000 A 
ATOM     18  C   UNL     1       7.925   5.179  11.915  0.00  0.00    +0.000 A 
ATOM     19  C   UNL     1       7.902   5.593  13.250  0.00  0.00    +0.000 A 
ATOM     20  C   UNL     1       7.061   4.975  14.179  0.00  0.00    +0.000 A 
ATOM     21  C   UNL     1       6.262   3.905  13.745  0.00  0.00    +0.000 A 
ENDBRANCH  11  20
ENDBRANCH  10  12
ENDBRANCH   9  10
ENDBRANCH   1   9
BRANCH   5  22
ATOM     22  C   UNL     1       3.266   5.807  19.530  0.00  0.00    +0.000 C 
BRANCH  22  23
ATOM     23  C   UNL     1       2.313   6.895  19.011  0.00  0.00    +0.000 C 
ATOM     24  C   UNL     1       2.814   7.801  17.899  0.00  0.00    +0.000 C 
ATOM     25  C   UNL     1       1.894   8.995  18.010  0.00  0.00    +0.000 C 
ATOM     26  C   UNL     1       1.521   9.033  19.480  0.00  0.00    +0.000 C 
ATOM     27  O   UNL     1       1.880   7.770  20.061  0.00  0.00    +0.000 OA
ENDBRANCH  22  23
ENDBRANCH   5  22
TORSDOF 7
ENDMDL
MODEL 2
REMARK VINA RESULT:      -7.5      1.052      1.276
REMARK  Name = 
REMARK  8 active torsions:
REMARK  status: ('A' for Active; 'I' for Inactive)
REMARK    1  A    between atoms: C_1  and  C_2
REMARK    2  A    between atoms: C_6  and  N_7
REMARK    3  A    between atoms: C_8  and  C_10
REMARK    4  A    between atoms: C_10  and  S_11
REMARK    5  A    between atoms: S_11  and  C_12
REMARK    6  A    between atoms: C_15  and  C_16
REMARK    7  A    between atoms: N_19  and  C_20
REMARK    8  A    between atoms: C_20  and  C_21
REMARK                            x       y       z     vdW  Elec       q    Type
REMARK                         _______ _______ _______ _____ _____    ______ ____
ROOT
ATOM      1  C   UNL     1       4.882   4.601  18.963  0.00  0.00    +0.000 A 
ATOM      2  N   UNL     1       5.013   3.324  19.251  0.00  0.00    +0.000 NA
ATOM      3  N   UNL     1       3.788   2.723  19.065  0.00  0.00    +0.000 NA
ATOM      4  C   UNL     1       2.936   3.641  18.663  0.00  0.00    +0.000 A 
ATOM      5  N   UNL     1       3.608   4.837  18.500  0.00  0.00    +0.000 N 
ENDROOT
BRANCH   4   6
ATOM      6  C   UNL     1       1.441   3.380  18.456  0.00  0.00    +0.000 C 
ATOM      7  C   UNL     1       0.866   2.043  18.880  0.00  0.00    +0.000 C 
ATOM      8  C   UNL     1       0.560   3.260  19.684  0.00  0.00    +0.000 C 
ENDBRANCH   4   6
BRANCH   1   9
ATOM      9  S   UNL     1       6.095   5.821  19.218  0.00  0.00    +0.000 S 
BRANCH   9  10
ATOM     10  C   UNL     1       7.408   5.290  18.066  0.00  0.00    +0.000 C 
BRANCH  10  12
ATOM     11  N   UNL     1       7.435   4.565  15.709  0.00  0.00    +0.000 N 
ATOM     12  C   UNL     1       7.037   5.552  16.603  0.00  0.00    +0.000 C 
ATOM     13  O   UNL     1       6.464   6.597  16.295  0.00  0.00    +0.000 OA
ATOM     14  H   UNL     1       7.758   3.696  16.119  0.00  0.00    +0.000 HD
BRANCH  11  20
ATOM     15  C   UNL     1       4.901   2.889  11.802  0.00  0.00    +0.000 C 
ATOM     16  C   UNL     1       6.000   3.739  12.369  0.00  0.00    +0.000 A 
ATOM     17  C   UNL     1       6.760   4.556  11.525  0.00  0.00    +0.000 A 
ATOM     18  C   UNL     1       7.765   5.360  12.056  0.00  0.00    +0.000 A 
ATOM     19  C   UNL     1       8.009   5.369  13.433  0.00  0.00    +0.000 A 
ATOM     20  C   UNL     1       7.257   4.573  14.301  0.00  0.00    +0.000 A 
ATOM     21  C   UNL     1       6.270   3.739  13.751  0.00  0.00    +0.000 A 
ENDBRANCH  11  20
ENDBRANCH  10  12
ENDBRANCH   9  10
ENDBRANCH   1   9
BRANCH   5  22
ATOM     22  C   UNL     1       3.003   6.104  18.138  0.00  0.00    +0.000 C 
BRANCH  22  23
ATOM     23  C   UNL     1       2.693   7.076  19.286  0.00  0.00    +0.000 C 
ATOM     24  C   UNL     1       1.778   6.590  20.397  0.00  0.00    +0.000 C 
ATOM     25  C   UNL     1       1.301   7.882  21.018  0.00  0.00    +0.000 C 
ATOM     26  C   UNL     1       1.333   8.873  19.870  0.00  0.00    +0.000 C 
ATOM     27  O   UNL     1       2.114   8.297  18.810  0.00  0.00    +0.000 OA
ENDBRANCH  22  23
ENDBRANCH   5  22
TORSDOF 7
ENDMDL
MODEL 3
REMARK VINA RESULT:      -7.3      1.855      3.725
REMARK  Name = 
REMARK  8 active torsions:
REMARK  status: ('A' for Active; 'I' for Inactive)
REMARK    1  A    between atoms: C_1  and  C_2
REMARK    2  A    between atoms: C_6  and  N_7
REMARK    3  A    between atoms: C_8  and  C_10
REMARK    4  A    between atoms: C_10  and  S_11
REMARK    5  A    between atoms: S_11  and  C_12
REMARK    6  A    between atoms: C_15  and  C_16
REMARK    7  A    between atoms: N_19  and  C_20
REMARK    8  A    between atoms: C_20  and  C_21
REMARK                            x       y       z     vdW  Elec       q    Type
REMARK                         _______ _______ _______ _____ _____    ______ ____
ROOT
ATOM      1  C   UNL     1       3.968   6.129  18.400  0.00  0.00    +0.000 A 
ATOM      2  N   UNL     1       4.142   6.945  17.384  0.00  0.00    +0.000 NA
ATOM      3  N   UNL     1       3.167   7.914  17.451  0.00  0.00    +0.000 NA
ATOM      4  C   UNL     1       2.421   7.675  18.507  0.00  0.00    +0.000 A 
ATOM      5  N   UNL     1       2.945   6.596  19.193  0.00  0.00    +0.000 N 
ENDROOT
BRANCH   4   6
ATOM      6  C   UNL     1       1.162   8.474  18.858  0.00  0.00    +0.000 C 
ATOM      7  C   UNL     1       1.316   9.869  19.430  0.00  0.00    +0.000 C 
ATOM      8  C   UNL     1       0.840   9.701  18.028  0.00  0.00    +0.000 C 
ENDBRANCH   4   6
BRANCH   1   9
ATOM      9  S   UNL     1       4.828   4.638  18.654  0.00  0.00    +0.000 S 
BRANCH   9  10
ATOM     10  C   UNL     1       6.565   5.172  18.478  0.00  0.00    +0.000 C 
BRANCH  10  12
ATOM     11  N   UNL     1       6.402   5.143  16.017  0.00  0.00    +0.000 N 
ATOM     12  C   UNL     1       7.159   4.774  17.123  0.00  0.00    +0.000 C 
ATOM     13  O   UNL     1       8.212   4.138  17.080  0.00  0.00    +0.000 OA
ATOM     14  H   UNL     1       5.642   5.790  16.193  0.00  0.00    +0.000 HD
BRANCH  11  20
ATOM     15  C   UNL     1       5.265   2.603  11.924  0.00  0.00    +0.000 C 
ATOM     16  C   UNL     1       6.130   3.604  12.632  0.00  0.00    +0.000 A 
ATOM     17  C   UNL     1       7.137   4.278  11.934  0.00  0.00    +0.000 A 
ATOM     18  C   UNL     1       7.924   5.223  12.588  0.00  0.00    +0.000 A 
ATOM     19  C   UNL     1       7.703   5.514  13.937  0.00  0.00    +0.000 A 
ATOM     20  C   UNL     1       6.696   4.865  14.656  0.00  0.00    +0.000 A 
ATOM     21  C   UNL     1       5.932   3.889  13.997  0.00  0.00    +0.000 A 
ENDBRANCH  11  20
ENDBRANCH  10  12
ENDBRANCH   9  10
ENDBRANCH   1   9
BRANCH   5  22
ATOM     22  C   UNL     1       2.367   5.981  20.371  0.00  0.00    +0.000 C 
BRANCH  22  23
ATOM     23  C   UNL     1       1.453   4.768  20.140  0.00  0.00    +0.000 C 
ATOM     24  C   UNL     1       1.740   3.505  20.934  0.00  0.00    +0.000 C 
ATOM     25  C   UNL     1       1.041   2.440  20.119  0.00  0.00    +0.000 C 
ATOM     26  C   UNL     1       1.091   2.975  18.701  0.00  0.00    +0.000 C 
ATOM     27  O   UNL     1       1.434   4.369  18.764  0.00  0.00    +0.000 OA
ENDBRANCH  22  23
ENDBRANCH   5  22
TORSDOF 7
ENDMDL
MODEL 4
REMARK VINA RESULT:      -7.3      1.257      1.278
REMARK  Name = 
REMARK  8 active torsions:
REMARK  status: ('A' for Active; 'I' for Inactive)
REMARK    1  A    between atoms: C_1  and  C_2
REMARK    2  A    between atoms: C_6  and  N_7
REMARK    3  A    between atoms: C_8  and  C_10
REMARK    4  A    between atoms: C_10  and  S_11
REMARK    5  A    between atoms: S_11  and  C_12
REMARK    6  A    between atoms: C_15  and  C_16
REMARK    7  A    between atoms: N_19  and  C_20
REMARK    8  A    between atoms: C_20  and  C_21
REMARK                            x       y       z     vdW  Elec       q    Type
REMARK                         _______ _______ _______ _____ _____    ______ ____
ROOT
ATOM      1  C   UNL     1       5.231   4.357  19.020  0.00  0.00    +0.000 A 
ATOM      2  N   UNL     1       5.165   3.143  19.522  0.00  0.00    +0.000 NA
ATOM      3  N   UNL     1       3.894   2.664  19.296  0.00  0.00    +0.000 NA
ATOM      4  C   UNL     1       3.212   3.590  18.659  0.00  0.00    +0.000 A 
ATOM      5  N   UNL     1       4.048   4.656  18.384  0.00  0.00    +0.000 N 
ENDROOT
BRANCH   4   6
ATOM      6  C   UNL     1       1.721   3.472  18.328  0.00  0.00    +0.000 C 
ATOM      7  C   UNL     1       0.960   2.252  18.807  0.00  0.00    +0.000 C 
ATOM      8  C   UNL     1       0.726   3.567  19.467  0.00  0.00    +0.000 C 
ENDBRANCH   4   6
BRANCH   1   9
ATOM      9  S   UNL     1       6.566   5.456  19.214  0.00  0.00    +0.000 S 
BRANCH   9  10
ATOM     10  C   UNL     1       6.554   6.344  17.618  0.00  0.00    +0.000 C 
BRANCH  10  12
ATOM     11  N   UNL     1       6.336   5.697  15.248  0.00  0.00    +0.000 N 
ATOM     12  C   UNL     1       6.983   5.447  16.452  0.00  0.00    +0.000 C 
ATOM     13  O   UNL     1       7.815   4.559  16.638  0.00  0.00    +0.000 OA
ATOM     14  H   UNL     1       5.791   6.552  15.204  0.00  0.00    +0.000 HD
BRANCH  11  20
ATOM     15  C   UNL     1       4.335   2.818  11.755  0.00  0.00    +0.000 C 
ATOM     16  C   UNL     1       5.516   3.566  12.301  0.00  0.00    +0.000 A 
ATOM     17  C   UNL     1       6.712   3.612  11.578  0.00  0.00    +0.000 A 
ATOM     18  C   UNL     1       7.800   4.325  12.077  0.00  0.00    +0.000 A 
ATOM     19  C   UNL     1       7.697   5.011  13.291  0.00  0.00    +0.000 A 
ATOM     20  C   UNL     1       6.511   4.994  14.028  0.00  0.00    +0.000 A 
ATOM     21  C   UNL     1       5.432   4.242  13.534  0.00  0.00    +0.000 A 
ENDBRANCH  11  20
ENDBRANCH  10  12
ENDBRANCH   9  10
ENDBRANCH   1   9
BRANCH   5  22
ATOM     22  C   UNL     1       3.653   5.901  17.758  0.00  0.00    +0.000 C 
BRANCH  22  23
ATOM     23  C   UNL     1       2.494   6.668  18.413  0.00  0.00    +0.000 C 
ATOM     24  C   UNL     1       2.293   8.120  18.015  0.00  0.00    +0.000 C 
ATOM     25  C   UNL     1       1.474   8.664  19.163  0.00  0.00    +0.000 C 
ATOM     26  C   UNL     1       1.899   7.817  20.347  0.00  0.00    +0.000 C 
ATOM     27  O   UNL     1       2.593   6.665  19.842  0.00  0.00    +0.000 OA
ENDBRANCH  22  23
ENDBRANCH   5  22
TORSDOF 7
ENDMDL
MODEL 5
REMARK VINA RESULT:      -7.2      1.110      1.406
REMARK  Name = 
REMARK  8 active torsions:
REMARK  status: ('A' for Active; 'I' for Inactive)
REMARK    1  A    between atoms: C_1  and  C_2
REMARK    2  A    between atoms: C_6  and  N_7
REMARK    3  A    between atoms: C_8  and  C_10
REMARK    4  A    between atoms: C_10  and  S_11
REMARK    5  A    between atoms: S_11  and  C_12
REMARK    6  A    between atoms: C_15  and  C_16
REMARK    7  A    between atoms: N_19  and  C_20
REMARK    8  A    between atoms: C_20  and  C_21
REMARK                            x       y       z     vdW  Elec       q    Type
REMARK                         _______ _______ _______ _____ _____    ______ ____
ROOT
ATOM      1  C   UNL     1       4.707   4.449  17.973  0.00  0.00    +0.000 A 
ATOM      2  N   UNL     1       4.505   3.296  17.373  0.00  0.00    +0.000 NA
ATOM      3  N   UNL     1       3.218   2.897  17.652  0.00  0.00    +0.000 NA
ATOM      4  C   UNL     1       2.657   3.814  18.410  0.00  0.00    +0.000 A 
ATOM      5  N   UNL     1       3.539   4.865  18.571  0.00  0.00    +0.000 N 
ENDROOT
BRANCH   4   6
ATOM      6  C   UNL     1       1.259   3.674  19.020  0.00  0.00    +0.000 C 
ATOM      7  C   UNL     1       0.577   2.321  18.985  0.00  0.00    +0.000 C 
ATOM      8  C   UNL     1       1.107   2.841  20.277  0.00  0.00    +0.000 C 
ENDBRANCH   4   6
BRANCH   1   9
ATOM      9  S   UNL     1       6.234   5.276  18.080  0.00  0.00    +0.000 S 
BRANCH   9  10
ATOM     10  C   UNL     1       6.201   6.318  16.581  0.00  0.00    +0.000 C 
BRANCH  10  12
ATOM     11  N   UNL     1       5.534   4.916  14.665  0.00  0.00    +0.000 N 
ATOM     12  C   UNL     1       6.590   5.535  15.322  0.00  0.00    +0.000 C 
ATOM     13  O   UNL     1       7.772   5.461  14.989  0.00  0.00    +0.000 OA
ATOM     14  H   UNL     1       4.603   5.188  14.962  0.00  0.00    +0.000 HD
BRANCH  11  20
ATOM     15  C   UNL     1       3.248   3.047  10.692  0.00  0.00    +0.000 C 
ATOM     16  C   UNL     1       4.480   3.176  11.541  0.00  0.00    +0.000 A 
ATOM     17  C   UNL     1       5.672   2.562  11.143  0.00  0.00    +0.000 A 
ATOM     18  C   UNL     1       6.819   2.701  11.922  0.00  0.00    +0.000 A 
ATOM     19  C   UNL     1       6.790   3.465  13.092  0.00  0.00    +0.000 A 
ATOM     20  C   UNL     1       5.616   4.100  13.506  0.00  0.00    +0.000 A 
ATOM     21  C   UNL     1       4.456   3.925  12.734  0.00  0.00    +0.000 A 
ENDBRANCH  11  20
ENDBRANCH  10  12
ENDBRANCH   9  10
ENDBRANCH   1   9
BRANCH   5  22
ATOM     22  C   UNL     1       3.319   6.035  19.398  0.00  0.00    +0.000 C 
BRANCH  22  23
ATOM     23  C   UNL     1       2.351   7.096  18.852  0.00  0.00    +0.000 C 
ATOM     24  C   UNL     1       2.874   8.051  17.793  0.00  0.00    +0.000 C 
ATOM     25  C   UNL     1       1.898   9.202  17.880  0.00  0.00    +0.000 C 
ATOM     26  C   UNL     1       1.442   9.185  19.326  0.00  0.00    +0.000 C 
ATOM     27  O   UNL     1       1.822   7.922  19.896  0.00  0.00    +0.000 OA
ENDBRANCH  22  23
ENDBRANCH   5  22
TORSDOF 7
ENDMDL
MODEL 6
REMARK VINA RESULT:      -7.2      1.914      7.266
REMARK  Name = 
REMARK  8 active torsions:
REMARK  status: ('A' for Active; 'I' for Inactive)
REMARK    1  A    between atoms: C_1  and  C_2
REMARK    2  A    between atoms: C_6  and  N_7
REMARK    3  A    between atoms: C_8  and  C_10
REMARK    4  A    between atoms: C_10  and  S_11
REMARK    5  A    between atoms: S_11  and  C_12
REMARK    6  A    between atoms: C_15  and  C_16
REMARK    7  A    between atoms: N_19  and  C_20
REMARK    8  A    between atoms: C_20  and  C_21
REMARK                            x       y       z     vdW  Elec       q    Type
REMARK                         _______ _______ _______ _____ _____    ______ ____
ROOT
ATOM      1  C   UNL     1       4.946   3.463  18.193  0.00  0.00    +0.000 A 
ATOM      2  N   UNL     1       5.586   3.577  19.337  0.00  0.00    +0.000 NA
ATOM      3  N   UNL     1       6.514   4.584  19.202  0.00  0.00    +0.000 NA
ATOM      4  C   UNL     1       6.421   5.069  17.982  0.00  0.00    +0.000 A 
ATOM      5  N   UNL     1       5.376   4.444  17.329  0.00  0.00    +0.000 N 
ENDROOT
BRANCH   4   6
ATOM      6  C   UNL     1       7.366   6.133  17.416  0.00  0.00    +0.000 C 
ATOM      7  C   UNL     1       6.897   7.573  17.358  0.00  0.00    +0.000 C 
ATOM      8  C   UNL     1       7.920   7.176  18.366  0.00  0.00    +0.000 C 
ENDBRANCH   4   6
BRANCH   1   9
ATOM      9  S   UNL     1       3.807   2.210  17.796  0.00  0.00    +0.000 S 
BRANCH   9  10
ATOM     10  C   UNL     1       2.346   2.709  18.772  0.00  0.00    +0.000 C 
BRANCH  10  12
ATOM     11  N   UNL     1       2.410   5.111  19.332  0.00  0.00    +0.000 N 
ATOM     12  C   UNL     1       1.908   4.146  18.466  0.00  0.00    +0.000 C 
ATOM     13  O   UNL     1       1.135   4.363  17.534  0.00  0.00    +0.000 OA
ATOM     14  H   UNL     1       3.151   4.809  19.954  0.00  0.00    +0.000 HD
BRANCH  11  20
ATOM     15  C   UNL     1       0.766   9.101  21.754  0.00  0.00    +0.000 C 
ATOM     16  C   UNL     1       1.317   8.476  20.505  0.00  0.00    +0.000 A 
ATOM     17  C   UNL     1       1.607   9.271  19.393  0.00  0.00    +0.000 A 
ATOM     18  C   UNL     1       2.139   8.692  18.243  0.00  0.00    +0.000 A 
ATOM     19  C   UNL     1       2.402   7.319  18.201  0.00  0.00    +0.000 A 
ATOM     20  C   UNL     1       2.134   6.503  19.303  0.00  0.00    +0.000 A 
ATOM     21  C   UNL     1       1.564   7.090  20.443  0.00  0.00    +0.000 A 
ENDBRANCH  11  20
ENDBRANCH  10  12
ENDBRANCH   9  10
ENDBRANCH   1   9
BRANCH   5  22
ATOM     22  C   UNL     1       4.999   4.651  15.945  0.00  0.00    +0.000 C 
BRANCH  22  23
ATOM     23  C   UNL     1       5.937   4.066  14.878  0.00  0.00    +0.000 C 
ATOM     24  C   UNL     1       6.950   5.001  14.239  0.00  0.00    +0.000 C 
ATOM     25  C   UNL     1       7.302   4.277  12.959  0.00  0.00    +0.000 C 
ATOM     26  C   UNL     1       6.044   3.498  12.623  0.00  0.00    +0.000 C 
ATOM     27  O   UNL     1       5.209   3.478  13.793  0.00  0.00    +0.000 OA
ENDBRANCH  22  23
ENDBRANCH   5  22
TORSDOF 7
ENDMDL
MODEL 7
REMARK VINA RESULT:      -7.1      1.879      7.343
REMARK  Name = 
REMARK  8 active torsions:
REMARK  status: ('A' for Active; 'I' for Inactive)
REMARK    1  A    between atoms: C_1  and  C_2
REMARK    2  A    between atoms: C_6  and  N_7
REMARK    3  A    between atoms: C_8  and  C_10
REMARK    4  A    between atoms: C_10  and  S_11
REMARK    5  A    between atoms: S_11  and  C_12
REMARK    6  A    between atoms: C_15  and  C_16
REMARK    7  A    between atoms: N_19  and  C_20
REMARK    8  A    between atoms: C_20  and  C_21
REMARK                            x       y       z     vdW  Elec       q    Type
REMARK                         _______ _______ _______ _____ _____    ______ ____
ROOT
ATOM      1  C   UNL     1       5.043   3.795  18.040  0.00  0.00    +0.000 A 
ATOM      2  N   UNL     1       5.655   3.865  19.202  0.00  0.00    +0.000 NA
ATOM      3  N   UNL     1       6.595   4.867  19.123  0.00  0.00    +0.000 NA
ATOM      4  C   UNL     1       6.536   5.393  17.919  0.00  0.00    +0.000 A 
ATOM      5  N   UNL     1       5.502   4.800  17.220  0.00  0.00    +0.000 N 
ENDROOT
BRANCH   4   6
ATOM      6  C   UNL     1       7.505   6.465  17.411  0.00  0.00    +0.000 C 
ATOM      7  C   UNL     1       7.104   7.923  17.517  0.00  0.00    +0.000 C 
ATOM      8  C   UNL     1       8.151   7.384  18.429  0.00  0.00    +0.000 C 
ENDBRANCH   4   6
BRANCH   1   9
ATOM      9  S   UNL     1       3.902   2.567  17.573  0.00  0.00    +0.000 S 
BRANCH   9  10
ATOM     10  C   UNL     1       2.580   2.794  18.813  0.00  0.00    +0.000 C 
BRANCH  10  12
ATOM     11  N   UNL     1       2.472   5.104  19.672  0.00  0.00    +0.000 N 
ATOM     12  C   UNL     1       1.963   4.196  18.751  0.00  0.00    +0.000 C 
ATOM     13  O   UNL     1       1.057   4.430  17.953  0.00  0.00    +0.000 OA
ATOM     14  H   UNL     1       3.315   4.819  20.160  0.00  0.00    +0.000 HD
BRANCH  11  20
ATOM     15  C   UNL     1       2.015   9.647  17.764  0.00  0.00    +0.000 C 
ATOM     16  C   UNL     1       1.832   8.697  18.911  0.00  0.00    +0.000 A 
ATOM     17  C   UNL     1       1.205   9.127  20.085  0.00  0.00    +0.000 A 
ATOM     18  C   UNL     1       1.017   8.236  21.139  0.00  0.00    +0.000 A 
ATOM     19  C   UNL     1       1.437   6.907  21.025  0.00  0.00    +0.000 A 
ATOM     20  C   UNL     1       2.055   6.447  19.859  0.00  0.00    +0.000 A 
ATOM     21  C   UNL     1       2.273   7.362  18.816  0.00  0.00    +0.000 A 
ENDBRANCH  11  20
ENDBRANCH  10  12
ENDBRANCH   9  10
ENDBRANCH   1   9
BRANCH   5  22
ATOM     22  C   UNL     1       5.162   5.056  15.834  0.00  0.00    +0.000 C 
BRANCH  22  23
ATOM     23  C   UNL     1       5.934   4.257  14.773  0.00  0.00    +0.000 C 
ATOM     24  C   UNL     1       7.052   4.968  14.028  0.00  0.00    +0.000 C 
ATOM     25  C   UNL     1       7.212   4.117  12.790  0.00  0.00    +0.000 C 
ATOM     26  C   UNL     1       5.828   3.540  12.561  0.00  0.00    +0.000 C 
ATOM     27  O   UNL     1       5.064   3.733  13.763  0.00  0.00    +0.000 OA
ENDBRANCH  22  23
ENDBRANCH   5  22
TORSDOF 7
ENDMDL
MODEL 8
REMARK VINA RESULT:      -7.1      1.987      7.457
REMARK  Name = 
REMARK  8 active torsions:
REMARK  status: ('A' for Active; 'I' for Inactive)
REMARK    1  A    between atoms: C_1  and  C_2
REMARK    2  A    between atoms: C_6  and  N_7
REMARK    3  A    between atoms: C_8  and  C_10
REMARK    4  A    between atoms: C_10  and  S_11
REMARK    5  A    between atoms: S_11  and  C_12
REMARK    6  A    between atoms: C_15  and  C_16
REMARK    7  A    between atoms: N_19  and  C_20
REMARK    8  A    between atoms: C_20  and  C_21
REMARK                            x       y       z     vdW  Elec       q    Type
REMARK                         _______ _______ _______ _____ _____    ______ ____
ROOT
ATOM      1  C   UNL     1       5.388   4.453  18.805  0.00  0.00    +0.000 A 
ATOM      2  N   UNL     1       6.083   4.591  19.913  0.00  0.00    +0.000 NA
ATOM      3  N   UNL     1       7.050   5.544  19.688  0.00  0.00    +0.000 NA
ATOM      4  C   UNL     1       6.925   5.973  18.451  0.00  0.00    +0.000 A 
ATOM      5  N   UNL     1       5.824   5.369  17.875  0.00  0.00    +0.000 N 
ENDROOT
BRANCH   4   6
ATOM      6  C   UNL     1       7.893   6.960  17.792  0.00  0.00    +0.000 C 
ATOM      7  C   UNL     1       7.427   8.379  17.533  0.00  0.00    +0.000 C 
ATOM      8  C   UNL     1       8.408   8.119  18.623  0.00  0.00    +0.000 C 
ENDBRANCH   4   6
BRANCH   1   9
ATOM      9  S   UNL     1       4.174   3.240  18.520  0.00  0.00    +0.000 S 
BRANCH   9  10
ATOM     10  C   UNL     1       2.756   3.902  19.460  0.00  0.00    +0.000 C 
BRANCH  10  12
ATOM     11  N   UNL     1       2.412   6.334  19.685  0.00  0.00    +0.000 N 
ATOM     12  C   UNL     1       2.236   5.219  18.874  0.00  0.00    +0.000 C 
ATOM     13  O   UNL     1       1.676   5.222  17.778  0.00  0.00    +0.000 OA
ATOM     14  H   UNL     1       3.021   6.210  20.487  0.00  0.00    +0.000 HD
BRANCH  11  20
ATOM     15  C   UNL     1       0.331  10.499  21.362  0.00  0.00    +0.000 C 
ATOM     16  C   UNL     1       0.958   9.721  20.242  0.00  0.00    +0.000 A 
ATOM     17  C   UNL     1       1.174  10.329  19.002  0.00  0.00    +0.000 A 
ATOM     18  C   UNL     1       1.776   9.611  17.971  0.00  0.00    +0.000 A 
ATOM     19  C   UNL     1       2.183   8.288  18.175  0.00  0.00    +0.000 A 
ATOM     20  C   UNL     1       1.991   7.660  19.408  0.00  0.00    +0.000 A 
ATOM     21  C   UNL     1       1.350   8.381  20.429  0.00  0.00    +0.000 A 
ENDBRANCH  11  20
ENDBRANCH  10  12
ENDBRANCH   9  10
ENDBRANCH   1   9
BRANCH   5  22
ATOM     22  C   UNL     1       5.396   5.527  16.499  0.00  0.00    +0.000 C 
BRANCH  22  23
ATOM     23  C   UNL     1       6.022   4.577  15.467  0.00  0.00    +0.000 C 
ATOM     24  C   UNL     1       7.180   5.101  14.635  0.00  0.00    +0.000 C 
ATOM     25  C   UNL     1       7.185   4.161  13.451  0.00  0.00    +0.000 C 
ATOM     26  C   UNL     1       5.734   3.740  13.314  0.00  0.00    +0.000 C 
ATOM     27  O   UNL     1       5.052   4.097  14.527  0.00  0.00    +0.000 OA
ENDBRANCH  22  23
ENDBRANCH   5  22
TORSDOF 7
ENDMDL
MODEL 9
REMARK VINA RESULT:      -7.1      3.900      8.307
REMARK  Name = 
REMARK  8 active torsions:
REMARK  status: ('A' for Active; 'I' for Inactive)
REMARK    1  A    between atoms: C_1  and  C_2
REMARK    2  A    between atoms: C_6  and  N_7
REMARK    3  A    between atoms: C_8  and  C_10
REMARK    4  A    between atoms: C_10  and  S_11
REMARK    5  A    between atoms: S_11  and  C_12
REMARK    6  A    between atoms: C_15  and  C_16
REMARK    7  A    between atoms: N_19  and  C_20
REMARK    8  A    between atoms: C_20  and  C_21
REMARK                            x       y       z     vdW  Elec       q    Type
REMARK                         _______ _______ _______ _____ _____    ______ ____
ROOT
ATOM      1  C   UNL     1       2.177   7.268  19.203  0.00  0.00    +0.000 A 
ATOM      2  N   UNL     1       1.696   7.360  20.423  0.00  0.00    +0.000 NA
ATOM      3  N   UNL     1       1.791   6.118  21.009  0.00  0.00    +0.000 NA
ATOM      4  C   UNL     1       2.332   5.294  20.139  0.00  0.00    +0.000 A 
ATOM      5  N   UNL     1       2.675   6.001  19.002  0.00  0.00    +0.000 N 
ENDROOT
BRANCH   4   6
ATOM      6  C   UNL     1       2.502   3.791  20.383  0.00  0.00    +0.000 C 
ATOM      7  C   UNL     1       1.698   3.134  21.487  0.00  0.00    +0.000 C 
ATOM      8  C   UNL     1       1.334   2.879  20.066  0.00  0.00    +0.000 C 
ENDBRANCH   4   6
BRANCH   1   9
ATOM      9  S   UNL     1       2.109   8.517  17.994  0.00  0.00    +0.000 S 
BRANCH   9  10
ATOM     10  C   UNL     1       1.501   9.941  18.963  0.00  0.00    +0.000 C 
BRANCH  10  12
ATOM     11  N   UNL     1      -0.535  10.457  17.670  0.00  0.00    +0.000 N 
ATOM     12  C   UNL     1      -0.025  10.073  18.905  0.00  0.00    +0.000 C 
ATOM     13  O   UNL     1      -0.694   9.881  19.919  0.00  0.00    +0.000 OA
ATOM     14  H   UNL     1       0.114  10.431  16.892  0.00  0.00    +0.000 HD
BRANCH  11  20
ATOM     15  C   UNL     1      -4.928  12.218  19.118  0.00  0.00    +0.000 C 
ATOM     16  C   UNL     1      -4.073  11.563  18.073  0.00  0.00    +0.000 A 
ATOM     17  C   UNL     1      -4.605  11.270  16.813  0.00  0.00    +0.000 A 
ATOM     18  C   UNL     1      -3.803  10.682  15.838  0.00  0.00    +0.000 A 
ATOM     19  C   UNL     1      -2.460  10.397  16.106  0.00  0.00    +0.000 A 
ATOM     20  C   UNL     1      -1.898  10.691  17.351  0.00  0.00    +0.000 A 
ATOM     21  C   UNL     1      -2.725  11.250  18.339  0.00  0.00    +0.000 A 
ENDBRANCH  11  20
ENDBRANCH  10  12
ENDBRANCH   9  10
ENDBRANCH   1   9
BRANCH   5  22
ATOM     22  C   UNL     1       3.230   5.434  17.789  0.00  0.00    +0.000 C 
BRANCH  22  23
ATOM     23  C   UNL     1       4.760   5.329  17.711  0.00  0.00    +0.000 C 
ATOM     24  C   UNL     1       5.541   6.595  17.402  0.00  0.00    +0.000 C 
ATOM     25  C   UNL     1       6.862   6.052  16.908  0.00  0.00    +0.000 C 
ATOM     26  C   UNL     1       6.500   4.714  16.292  0.00  0.00    +0.000 C 
ATOM     27  O   UNL     1       5.180   4.364  16.738  0.00  0.00    +0.000 OA
ENDBRANCH  22  23
ENDBRANCH   5  22
TORSDOF 7
ENDMDL
