MODEL 1
REMARK VINA RESULT:      -8.6      0.000      0.000
REMARK  Name = 
REMARK  8 active torsions:
REMARK  status: ('A' for Active; 'I' for Inactive)
REMARK    1  A    between atoms: C_2  and  O_3
REMARK    2  A    between atoms: C_2  and  C_4
REMARK    3  A    between atoms: N_6  and  C_7
REMARK    4  A    between atoms: N_6  and  C_14
REMARK    5  A    between atoms: C_7  and  C_8
REMARK    6  A    between atoms: C_17  and  C_18
REMARK    7  A    between atoms: C_21  and  O_22
REMARK    8  A    between atoms: O_22  and  C_23
REMARK                            x       y       z     vdW  Elec       q    Type
REMARK                         _______ _______ _______ _____ _____    ______ ____
ROOT
ATOM      1  C   UNL     1       2.814   5.503  19.358  0.00  0.00    +0.000 A 
ATOM      2  C   UNL     1       2.124   5.347  20.559  0.00  0.00    +0.000 A 
ATOM      3  C   UNL     1       1.430   6.429  21.106  0.00  0.00    +0.000 A 
ATOM      4  C   UNL     1       1.432   7.692  20.485  0.00  0.00    +0.000 A 
ATOM      5  C   UNL     1       2.110   7.805  19.255  0.00  0.00    +0.000 A 
ATOM      6  C   UNL     1       2.788   6.721  18.689  0.00  0.00    +0.000 A 
ENDROOT
BRANCH   4   7
ATOM      7  C   UNL     1       0.785   8.862  21.122  0.00  0.00    +0.000 A 
ATOM      8  C   UNL     1       0.276   8.789  22.430  0.00  0.00    +0.000 A 
ATOM      9  C   UNL     1      -0.297   9.901  23.054  0.00  0.00    +0.000 A 
ATOM     10  C   UNL     1      -0.358  11.129  22.399  0.00  0.00    +0.000 A 
ATOM     11  C   UNL     1       0.097  11.217  21.088  0.00  0.00    +0.000 A 
ATOM     12  C   UNL     1       0.671  10.098  20.463  0.00  0.00    +0.000 A 
BRANCH  10  13
ATOM     13  O   UNL     1      -0.940  12.131  23.110  0.00  0.00    +0.000 OA
BRANCH  13  14
ATOM     14  C   UNL     1      -2.335  12.360  22.973  0.00  0.00    +0.000 C 
ATOM     15  F   UNL     1      -2.806  12.223  21.716  0.00  0.00    +0.000 F 
ATOM     16  F   UNL     1      -3.001  11.507  23.779  0.00  0.00    +0.000 F 
ATOM     17  F   UNL     1      -2.605  13.622  23.380  0.00  0.00    +0.000 F 
ENDBRANCH  13  14
ENDBRANCH  10  13
ENDBRANCH   4   7
BRANCH   1  20
ATOM     18  C   UNL     1       2.989   3.334  18.245  0.00  0.00    +0.000 C 
ATOM     19  O   UNL     1       3.567   2.291  17.951  0.00  0.00    +0.000 OA
ATOM     20  N   UNL     1       3.590   4.446  18.840  0.00  0.00    +0.000 N 
BRANCH  18  22
ATOM     21  O   UNL     1       0.978   4.161  17.123  0.00  0.00    +0.000 OA
ATOM     22  C   UNL     1       1.477   3.441  17.965  0.00  0.00    +0.000 C 
BRANCH  22  23
ATOM     23  O   UNL     1       0.758   2.629  18.752  0.00  0.00    +0.000 OA
ATOM     24  H   UNL     1      -0.169   2.908  18.600  0.00  0.00    +0.000 HD
ENDBRANCH  22  23
ENDBRANCH  18  22
BRANCH  20  25
ATOM     25  C   UNL     1       4.954   4.324  19.346  0.00  0.00    +0.000 C 
BRANCH  25  26
ATOM     26  C   UNL     1       5.955   5.216  18.644  0.00  0.00    +0.000 A 
ATOM     27  C   UNL     1       5.729   5.661  17.332  0.00  0.00    +0.000 A 
ATOM     28  C   UNL     1       6.594   6.582  16.734  0.00  0.00    +0.000 A 
ATOM     29  C   UNL     1       7.696   7.062  17.438  0.00  0.00    +0.000 A 
ATOM     30  C   UNL     1       7.952   6.600  18.728  0.00  0.00    +0.000 A 
ATOM     31  C   UNL     1       7.093   5.673  19.324  0.00  0.00    +0.000 A 
ENDBRANCH  25  26
ENDBRANCH  20  25
ENDBRANCH   1  20
TORSDOF 8
ENDMDL
MODEL 2
REMARK VINA RESULT:      -8.4      0.399      1.330
REMARK  Name = 
REMARK  8 active torsions:
REMARK  status: ('A' for Active; 'I' for Inactive)
REMARK    1  A    between atoms: C_2  and  O_3
REMARK    2  A    between atoms: C_2  and  C_4
REMARK    3  A    between atoms: N_6  and  C_7
REMARK    4  A    between atoms: N_6  and  C_14
REMARK    5  A    between atoms: C_7  and  C_8
REMARK    6  A    between atoms: C_17  and  C_18
REMARK    7  A    between atoms: C_21  and  O_22
REMARK    8  A    between atoms: O_22  and  C_23
REMARK                            x       y       z     vdW  Elec       q    Type
REMARK                         _______ _______ _______ _____ _____    ______ ____
ROOT
ATOM      1  C   UNL     1       2.819   5.223  19.338  0.00  0.00    +0.000 A 
ATOM      2  C   UNL     1       2.115   5.130  20.537  0.00  0.00    +0.000 A 
ATOM      3  C   UNL     1       1.480   6.260  21.057  0.00  0.00    +0.000 A 
ATOM      4  C   UNL     1       1.555   7.508  20.410  0.00  0.00    +0.000 A 
ATOM      5  C   UNL     1       2.245   7.557  19.183  0.00  0.00    +0.000 A 
ATOM      6  C   UNL     1       2.865   6.426  18.643  0.00  0.00    +0.000 A 
ENDROOT
BRANCH   4   7
ATOM      7  C   UNL     1       0.971   8.725  21.019  0.00  0.00    +0.000 A 
ATOM      8  C   UNL     1       0.950   9.947  20.326  0.00  0.00    +0.000 A 
ATOM      9  C   UNL     1       0.361  11.089  20.878  0.00  0.00    +0.000 A 
ATOM     10  C   UNL     1      -0.247  11.040  22.129  0.00  0.00    +0.000 A 
ATOM     11  C   UNL     1      -0.200   9.854  22.855  0.00  0.00    +0.000 A 
ATOM     12  C   UNL     1       0.392   8.709  22.300  0.00  0.00    +0.000 A 
BRANCH  10  13
ATOM     13  O   UNL     1      -0.781  12.215  22.556  0.00  0.00    +0.000 OA
BRANCH  13  14
ATOM     14  C   UNL     1      -2.193  12.359  22.607  0.00  0.00    +0.000 C 
ATOM     15  F   UNL     1      -2.803  11.598  23.539  0.00  0.00    +0.000 F 
ATOM     16  F   UNL     1      -2.493  13.655  22.842  0.00  0.00    +0.000 F 
ATOM     17  F   UNL     1      -2.703  12.022  21.400  0.00  0.00    +0.000 F 
ENDBRANCH  13  14
ENDBRANCH  10  13
ENDBRANCH   4   7
BRANCH   1  20
ATOM     18  C   UNL     1       2.877   2.983  18.360  0.00  0.00    +0.000 C 
ATOM     19  O   UNL     1       3.411   1.907  18.102  0.00  0.00    +0.000 OA
ATOM     20  N   UNL     1       3.538   4.113  18.847  0.00  0.00    +0.000 N 
BRANCH  18  22
ATOM     21  O   UNL     1       0.516   2.522  18.807  0.00  0.00    +0.000 OA
ATOM     22  C   UNL     1       1.355   3.115  18.159  0.00  0.00    +0.000 C 
BRANCH  22  23
ATOM     23  O   UNL     1       1.046   3.983  17.185  0.00  0.00    +0.000 OA
ATOM     24  H   UNL     1       1.067   3.443  16.368  0.00  0.00    +0.000 HD
ENDBRANCH  22  23
ENDBRANCH  18  22
BRANCH  20  25
ATOM     25  C   UNL     1       4.926   3.985  19.283  0.00  0.00    +0.000 C 
BRANCH  25  26
ATOM     26  C   UNL     1       5.899   4.842  18.503  0.00  0.00    +0.000 A 
ATOM     27  C   UNL     1       5.815   4.941  17.106  0.00  0.00    +0.000 A 
ATOM     28  C   UNL     1       6.636   5.828  16.404  0.00  0.00    +0.000 A 
ATOM     29  C   UNL     1       7.553   6.620  17.091  0.00  0.00    +0.000 A 
ATOM     30  C   UNL     1       7.673   6.505  18.474  0.00  0.00    +0.000 A 
ATOM     31  C   UNL     1       6.859   5.612  19.176  0.00  0.00    +0.000 A 
ENDBRANCH  25  26
ENDBRANCH  20  25
ENDBRANCH   1  20
TORSDOF 8
ENDMDL
MODEL 3
REMARK VINA RESULT:      -8.4      0.293      1.090
REMARK  Name = 
REMARK  8 active torsions:
REMARK  status: ('A' for Active; 'I' for Inactive)
REMARK    1  A    between atoms: C_2  and  O_3
REMARK    2  A    between atoms: C_2  and  C_4
REMARK    3  A    between atoms: N_6  and  C_7
REMARK    4  A    between atoms: N_6  and  C_14
REMARK    5  A    between atoms: C_7  and  C_8
REMARK    6  A    between atoms: C_17  and  C_18
REMARK    7  A    between atoms: C_21  and  O_22
REMARK    8  A    between atoms: O_22  and  C_23
REMARK                            x       y       z     vdW  Elec       q    Type
REMARK                         _______ _______ _______ _____ _____    ______ ____
ROOT
ATOM      1  C   UNL     1       2.816   5.218  19.354  0.00  0.00    +0.000 A 
ATOM      2  C   UNL     1       2.127   5.108  20.560  0.00  0.00    +0.000 A 
ATOM      3  C   UNL     1       1.473   6.223  21.088  0.00  0.00    +0.000 A 
ATOM      4  C   UNL     1       1.516   7.473  20.444  0.00  0.00    +0.000 A 
ATOM      5  C   UNL     1       2.192   7.540  19.210  0.00  0.00    +0.000 A 
ATOM      6  C   UNL     1       2.829   6.423  18.661  0.00  0.00    +0.000 A 
ENDROOT
BRANCH   4   7
ATOM      7  C   UNL     1       0.912   8.677  21.062  0.00  0.00    +0.000 A 
ATOM      8  C   UNL     1       0.378   8.637  22.361  0.00  0.00    +0.000 A 
ATOM      9  C   UNL     1      -0.154   9.780  22.967  0.00  0.00    +0.000 A 
ATOM     10  C   UNL     1      -0.147  11.003  22.302  0.00  0.00    +0.000 A 
ATOM     11  C   UNL     1       0.334  11.060  20.998  0.00  0.00    +0.000 A 
ATOM     12  C   UNL     1       0.867   9.912  20.392  0.00  0.00    +0.000 A 
BRANCH  10  13
ATOM     13  O   UNL     1      -0.695  12.037  22.995  0.00  0.00    +0.000 OA
BRANCH  13  14
ATOM     14  C   UNL     1      -2.088  12.288  22.882  0.00  0.00    +0.000 C 
ATOM     15  F   UNL     1      -2.585  12.152  21.635  0.00  0.00    +0.000 F 
ATOM     16  F   UNL     1      -2.753  11.449  23.706  0.00  0.00    +0.000 F 
ATOM     17  F   UNL     1      -2.331  13.556  23.288  0.00  0.00    +0.000 F 
ENDBRANCH  13  14
ENDBRANCH  10  13
ENDBRANCH   4   7
BRANCH   1  20
ATOM     18  C   UNL     1       2.911   2.980  18.374  0.00  0.00    +0.000 C 
ATOM     19  O   UNL     1       3.466   1.917  18.108  0.00  0.00    +0.000 OA
ATOM     20  N   UNL     1       3.554   4.125  18.853  0.00  0.00    +0.000 N 
BRANCH  18  22
ATOM     21  O   UNL     1       0.567   2.469  18.855  0.00  0.00    +0.000 OA
ATOM     22  C   UNL     1       1.384   3.078  18.193  0.00  0.00    +0.000 C 
BRANCH  22  23
ATOM     23  O   UNL     1       1.043   3.935  17.220  0.00  0.00    +0.000 OA
ATOM     24  H   UNL     1       0.781   4.748  17.700  0.00  0.00    +0.000 HD
ENDBRANCH  22  23
ENDBRANCH  18  22
BRANCH  20  25
ATOM     25  C   UNL     1       4.949   4.028  19.270  0.00  0.00    +0.000 C 
BRANCH  25  26
ATOM     26  C   UNL     1       5.863   5.036  18.608  0.00  0.00    +0.000 A 
ATOM     27  C   UNL     1       6.907   5.642  19.324  0.00  0.00    +0.000 A 
ATOM     28  C   UNL     1       7.822   6.478  18.677  0.00  0.00    +0.000 A 
ATOM     29  C   UNL     1       7.697   6.723  17.311  0.00  0.00    +0.000 A 
ATOM     30  C   UNL     1       6.643   6.157  16.597  0.00  0.00    +0.000 A 
ATOM     31  C   UNL     1       5.723   5.328  17.244  0.00  0.00    +0.000 A 
ENDBRANCH  25  26
ENDBRANCH  20  25
ENDBRANCH   1  20
TORSDOF 8
ENDMDL
MODEL 4
REMARK VINA RESULT:      -8.3      0.183      1.441
REMARK  Name = 
REMARK  8 active torsions:
REMARK  status: ('A' for Active; 'I' for Inactive)
REMARK    1  A    between atoms: C_2  and  O_3
REMARK    2  A    between atoms: C_2  and  C_4
REMARK    3  A    between atoms: N_6  and  C_7
REMARK    4  A    between atoms: N_6  and  C_14
REMARK    5  A    between atoms: C_7  and  C_8
REMARK    6  A    between atoms: C_17  and  C_18
REMARK    7  A    between atoms: C_21  and  O_22
REMARK    8  A    between atoms: O_22  and  C_23
REMARK                            x       y       z     vdW  Elec       q    Type
REMARK                         _______ _______ _______ _____ _____    ______ ____
ROOT
ATOM      1  C   UNL     1       2.765   5.396  19.343  0.00  0.00    +0.000 A 
ATOM      2  C   UNL     1       2.083   5.247  20.550  0.00  0.00    +0.000 A 
ATOM      3  C   UNL     1       1.426   6.342  21.114  0.00  0.00    +0.000 A 
ATOM      4  C   UNL     1       1.457   7.611  20.506  0.00  0.00    +0.000 A 
ATOM      5  C   UNL     1       2.125   7.717  19.270  0.00  0.00    +0.000 A 
ATOM      6  C   UNL     1       2.767   6.620  18.686  0.00  0.00    +0.000 A 
ENDROOT
BRANCH   4   7
ATOM      7  C   UNL     1       0.850   8.792  21.162  0.00  0.00    +0.000 A 
ATOM      8  C   UNL     1       0.913  10.065  20.570  0.00  0.00    +0.000 A 
ATOM      9  C   UNL     1       0.304  11.176  21.163  0.00  0.00    +0.000 A 
ATOM     10  C   UNL     1      -0.407  11.045  22.353  0.00  0.00    +0.000 A 
ATOM     11  C   UNL     1      -0.446   9.805  22.982  0.00  0.00    +0.000 A 
ATOM     12  C   UNL     1       0.166   8.691  22.386  0.00  0.00    +0.000 A 
BRANCH  10  13
ATOM     13  O   UNL     1      -0.949  12.197  22.828  0.00  0.00    +0.000 OA
BRANCH  13  14
ATOM     14  C   UNL     1      -2.360  12.363  22.805  0.00  0.00    +0.000 C 
ATOM     15  F   UNL     1      -3.028  11.623  23.715  0.00  0.00    +0.000 F 
ATOM     16  F   UNL     1      -2.652  13.665  23.009  0.00  0.00    +0.000 F 
ATOM     17  F   UNL     1      -2.814  12.017  21.578  0.00  0.00    +0.000 F 
ENDBRANCH  13  14
ENDBRANCH  10  13
ENDBRANCH   4   7
BRANCH   1  20
ATOM     18  C   UNL     1       2.866   3.214  18.246  0.00  0.00    +0.000 C 
ATOM     19  O   UNL     1       3.418   2.159  17.940  0.00  0.00    +0.000 OA
ATOM     20  N   UNL     1       3.506   4.322  18.807  0.00  0.00    +0.000 N 
BRANCH  18  22
ATOM     21  O   UNL     1       0.824   4.094  17.226  0.00  0.00    +0.000 OA
ATOM     22  C   UNL     1       1.347   3.341  18.023  0.00  0.00    +0.000 C 
BRANCH  22  23
ATOM     23  O   UNL     1       0.649   2.503  18.802  0.00  0.00    +0.000 OA
ATOM     24  H   UNL     1      -0.286   2.730  18.618  0.00  0.00    +0.000 HD
ENDBRANCH  22  23
ENDBRANCH  18  22
BRANCH  20  25
ATOM     25  C   UNL     1       4.886   4.185  19.262  0.00  0.00    +0.000 C 
BRANCH  25  26
ATOM     26  C   UNL     1       5.843   5.179  18.640  0.00  0.00    +0.000 A 
ATOM     27  C   UNL     1       6.926   5.692  19.371  0.00  0.00    +0.000 A 
ATOM     28  C   UNL     1       7.875   6.514  18.755  0.00  0.00    +0.000 A 
ATOM     29  C   UNL     1       7.746   6.836  17.406  0.00  0.00    +0.000 A 
ATOM     30  C   UNL     1       6.655   6.364  16.679  0.00  0.00    +0.000 A 
ATOM     31  C   UNL     1       5.702   5.550  17.295  0.00  0.00    +0.000 A 
ENDBRANCH  25  26
ENDBRANCH  20  25
ENDBRANCH   1  20
TORSDOF 8
ENDMDL
MODEL 5
REMARK VINA RESULT:      -8.3      2.985      4.730
REMARK  Name = 
REMARK  8 active torsions:
REMARK  status: ('A' for Active; 'I' for Inactive)
REMARK    1  A    between atoms: C_2  and  O_3
REMARK    2  A    between atoms: C_2  and  C_4
REMARK    3  A    between atoms: N_6  and  C_7
REMARK    4  A    between atoms: N_6  and  C_14
REMARK    5  A    between atoms: C_7  and  C_8
REMARK    6  A    between atoms: C_17  and  C_18
REMARK    7  A    between atoms: C_21  and  O_22
REMARK    8  A    between atoms: O_22  and  C_23
REMARK                            x       y       z     vdW  Elec       q    Type
REMARK                         _______ _______ _______ _____ _____    ______ ____
ROOT
ATOM      1  C   UNL     1       4.784   5.742  17.932  0.00  0.00    +0.000 A 
ATOM      2  C   UNL     1       4.421   6.717  17.005  0.00  0.00    +0.000 A 
ATOM      3  C   UNL     1       3.460   7.672  17.343  0.00  0.00    +0.000 A 
ATOM      4  C   UNL     1       2.822   7.659  18.598  0.00  0.00    +0.000 A 
ATOM      5  C   UNL     1       3.238   6.681  19.523  0.00  0.00    +0.000 A 
ATOM      6  C   UNL     1       4.216   5.735  19.201  0.00  0.00    +0.000 A 
ENDROOT
BRANCH   4   7
ATOM      7  C   UNL     1       1.729   8.607  18.913  0.00  0.00    +0.000 A 
ATOM      8  C   UNL     1       1.156   9.414  17.916  0.00  0.00    +0.000 A 
ATOM      9  C   UNL     1       0.094  10.280  18.197  0.00  0.00    +0.000 A 
ATOM     10  C   UNL     1      -0.444  10.348  19.480  0.00  0.00    +0.000 A 
ATOM     11  C   UNL     1       0.134   9.594  20.495  0.00  0.00    +0.000 A 
ATOM     12  C   UNL     1       1.200   8.726  20.210  0.00  0.00    +0.000 A 
BRANCH  10  13
ATOM     13  O   UNL     1      -1.470  11.228  19.626  0.00  0.00    +0.000 OA
BRANCH  13  14
ATOM     14  C   UNL     1      -2.498  11.267  18.647  0.00  0.00    +0.000 C 
ATOM     15  F   UNL     1      -2.840  10.063  18.143  0.00  0.00    +0.000 F 
ATOM     16  F   UNL     1      -3.597  11.837  19.186  0.00  0.00    +0.000 F 
ATOM     17  F   UNL     1      -2.083  12.042  17.618  0.00  0.00    +0.000 F 
ENDBRANCH  13  14
ENDBRANCH  10  13
ENDBRANCH   4   7
BRANCH   1  20
ATOM     18  C   UNL     1       7.049   4.985  17.410  0.00  0.00    +0.000 C 
ATOM     19  O   UNL     1       7.865   4.212  16.913  0.00  0.00    +0.000 OA
ATOM     20  N   UNL     1       5.687   4.719  17.574  0.00  0.00    +0.000 N 
BRANCH  18  22
ATOM     21  O   UNL     1       7.578   7.362  17.181  0.00  0.00    +0.000 OA
ATOM     22  C   UNL     1       7.537   6.369  17.879  0.00  0.00    +0.000 C 
BRANCH  22  23
ATOM     23  O   UNL     1       7.905   6.366  19.168  0.00  0.00    +0.000 OA
ATOM     24  H   UNL     1       7.483   5.562  19.535  0.00  0.00    +0.000 HD
ENDBRANCH  22  23
ENDBRANCH  18  22
BRANCH  20  25
ATOM     25  C   UNL     1       5.118   3.533  16.940  0.00  0.00    +0.000 C 
BRANCH  25  26
ATOM     26  C   UNL     1       3.812   3.073  17.550  0.00  0.00    +0.000 A 
ATOM     27  C   UNL     1       3.797   2.172  18.626  0.00  0.00    +0.000 A 
ATOM     28  C   UNL     1       2.597   1.847  19.265  0.00  0.00    +0.000 A 
ATOM     29  C   UNL     1       1.400   2.413  18.831  0.00  0.00    +0.000 A 
ATOM     30  C   UNL     1       1.397   3.280  17.740  0.00  0.00    +0.000 A 
ATOM     31  C   UNL     1       2.595   3.600  17.095  0.00  0.00    +0.000 A 
ENDBRANCH  25  26
ENDBRANCH  20  25
ENDBRANCH   1  20
TORSDOF 8
ENDMDL
MODEL 6
REMARK VINA RESULT:      -8.2      0.616      1.265
REMARK  Name = 
REMARK  8 active torsions:
REMARK  status: ('A' for Active; 'I' for Inactive)
REMARK    1  A    between atoms: C_2  and  O_3
REMARK    2  A    between atoms: C_2  and  C_4
REMARK    3  A    between atoms: N_6  and  C_7
REMARK    4  A    between atoms: N_6  and  C_14
REMARK    5  A    between atoms: C_7  and  C_8
REMARK    6  A    between atoms: C_17  and  C_18
REMARK    7  A    between atoms: C_21  and  O_22
REMARK    8  A    between atoms: O_22  and  C_23
REMARK                            x       y       z     vdW  Elec       q    Type
REMARK                         _______ _______ _______ _____ _____    ______ ____
ROOT
ATOM      1  C   UNL     1       3.077   5.208  19.123  0.00  0.00    +0.000 A 
ATOM      2  C   UNL     1       3.045   6.378  18.367  0.00  0.00    +0.000 A 
ATOM      3  C   UNL     1       2.462   7.531  18.898  0.00  0.00    +0.000 A 
ATOM      4  C   UNL     1       1.875   7.535  20.177  0.00  0.00    +0.000 A 
ATOM      5  C   UNL     1       1.955   6.345  20.927  0.00  0.00    +0.000 A 
ATOM      6  C   UNL     1       2.558   5.193  20.412  0.00  0.00    +0.000 A 
ENDROOT
BRANCH   4   7
ATOM      7  C   UNL     1       1.163   8.728  20.692  0.00  0.00    +0.000 A 
ATOM      8  C   UNL     1       0.978   8.925  22.070  0.00  0.00    +0.000 A 
ATOM      9  C   UNL     1       0.346  10.070  22.566  0.00  0.00    +0.000 A 
ATOM     10  C   UNL     1      -0.099  11.065  21.699  0.00  0.00    +0.000 A 
ATOM     11  C   UNL     1       0.032  10.873  20.328  0.00  0.00    +0.000 A 
ATOM     12  C   UNL     1       0.666   9.723  19.833  0.00  0.00    +0.000 A 
BRANCH  10  13
ATOM     13  O   UNL     1      -0.699  12.126  22.302  0.00  0.00    +0.000 OA
BRANCH  13  14
ATOM     14  C   UNL     1      -2.065  12.031  22.677  0.00  0.00    +0.000 C 
ATOM     15  F   UNL     1      -2.353  10.998  23.496  0.00  0.00    +0.000 F 
ATOM     16  F   UNL     1      -2.435  13.179  23.284  0.00  0.00    +0.000 F 
ATOM     17  F   UNL     1      -2.810  11.889  21.557  0.00  0.00    +0.000 F 
ENDBRANCH  13  14
ENDBRANCH  10  13
ENDBRANCH   4   7
BRANCH   1  20
ATOM     18  C   UNL     1       2.726   2.995  18.147  0.00  0.00    +0.000 C 
ATOM     19  O   UNL     1       3.077   1.858  17.840  0.00  0.00    +0.000 OA
ATOM     20  N   UNL     1       3.583   4.015  18.567  0.00  0.00    +0.000 N 
BRANCH  18  22
ATOM     21  O   UNL     1       0.717   4.096  17.286  0.00  0.00    +0.000 OA
ATOM     22  C   UNL     1       1.225   3.341  18.091  0.00  0.00    +0.000 C 
BRANCH  22  23
ATOM     23  O   UNL     1       0.522   2.696  19.032  0.00  0.00    +0.000 OA
ATOM     24  H   UNL     1       0.084   1.967  18.546  0.00  0.00    +0.000 HD
ENDBRANCH  22  23
ENDBRANCH  18  22
BRANCH  20  25
ATOM     25  C   UNL     1       4.974   3.688  18.868  0.00  0.00    +0.000 C 
BRANCH  25  26
ATOM     26  C   UNL     1       5.975   4.673  18.305  0.00  0.00    +0.000 A 
ATOM     27  C   UNL     1       6.053   4.912  16.924  0.00  0.00    +0.000 A 
ATOM     28  C   UNL     1       6.892   5.911  16.421  0.00  0.00    +0.000 A 
ATOM     29  C   UNL     1       7.666   6.674  17.292  0.00  0.00    +0.000 A 
ATOM     30  C   UNL     1       7.626   6.421  18.662  0.00  0.00    +0.000 A 
ATOM     31  C   UNL     1       6.794   5.418  19.165  0.00  0.00    +0.000 A 
ENDBRANCH  25  26
ENDBRANCH  20  25
ENDBRANCH   1  20
TORSDOF 8
ENDMDL
MODEL 7
REMARK VINA RESULT:      -8.2      2.807      4.573
REMARK  Name = 
REMARK  8 active torsions:
REMARK  status: ('A' for Active; 'I' for Inactive)
REMARK    1  A    between atoms: C_2  and  O_3
REMARK    2  A    between atoms: C_2  and  C_4
REMARK    3  A    between atoms: N_6  and  C_7
REMARK    4  A    between atoms: N_6  and  C_14
REMARK    5  A    between atoms: C_7  and  C_8
REMARK    6  A    between atoms: C_17  and  C_18
REMARK    7  A    between atoms: C_21  and  O_22
REMARK    8  A    between atoms: O_22  and  C_23
REMARK                            x       y       z     vdW  Elec       q    Type
REMARK                         _______ _______ _______ _____ _____    ______ ____
ROOT
ATOM      1  C   UNL     1       4.791   5.653  17.926  0.00  0.00    +0.000 A 
ATOM      2  C   UNL     1       4.423   6.639  17.013  0.00  0.00    +0.000 A 
ATOM      3  C   UNL     1       3.474   7.598  17.374  0.00  0.00    +0.000 A 
ATOM      4  C   UNL     1       2.853   7.578  18.637  0.00  0.00    +0.000 A 
ATOM      5  C   UNL     1       3.275   6.589  19.547  0.00  0.00    +0.000 A 
ATOM      6  C   UNL     1       4.241   5.639  19.203  0.00  0.00    +0.000 A 
ENDROOT
BRANCH   4   7
ATOM      7  C   UNL     1       1.771   8.532  18.976  0.00  0.00    +0.000 A 
ATOM      8  C   UNL     1       1.230   8.587  20.271  0.00  0.00    +0.000 A 
ATOM      9  C   UNL     1       0.239   9.514  20.610  0.00  0.00    +0.000 A 
ATOM     10  C   UNL     1      -0.225  10.431  19.670  0.00  0.00    +0.000 A 
ATOM     11  C   UNL     1       0.262  10.367  18.368  0.00  0.00    +0.000 A 
ATOM     12  C   UNL     1       1.256   9.435  18.031  0.00  0.00    +0.000 A 
BRANCH  10  13
ATOM     13  O   UNL     1      -1.189  11.277  20.120  0.00  0.00    +0.000 OA
BRANCH  13  14
ATOM     14  C   UNL     1      -2.199  11.719  19.223  0.00  0.00    +0.000 C 
ATOM     15  F   UNL     1      -1.780  12.609  18.300  0.00  0.00    +0.000 F 
ATOM     16  F   UNL     1      -2.719  10.648  18.585  0.00  0.00    +0.000 F 
ATOM     17  F   UNL     1      -3.187  12.301  19.941  0.00  0.00    +0.000 F 
ENDBRANCH  13  14
ENDBRANCH  10  13
ENDBRANCH   4   7
BRANCH   1  20
ATOM     18  C   UNL     1       7.038   4.890  17.337  0.00  0.00    +0.000 C 
ATOM     19  O   UNL     1       7.836   4.113  16.819  0.00  0.00    +0.000 OA
ATOM     20  N   UNL     1       5.681   4.627  17.546  0.00  0.00    +0.000 N 
BRANCH  18  22
ATOM     21  O   UNL     1       7.789   6.590  18.928  0.00  0.00    +0.000 OA
ATOM     22  C   UNL     1       7.542   6.277  17.780  0.00  0.00    +0.000 C 
BRANCH  22  23
ATOM     23  O   UNL     1       7.699   7.113  16.745  0.00  0.00    +0.000 OA
ATOM     24  H   UNL     1       6.944   6.907  16.155  0.00  0.00    +0.000 HD
ENDBRANCH  22  23
ENDBRANCH  18  22
BRANCH  20  25
ATOM     25  C   UNL     1       5.092   3.437  16.939  0.00  0.00    +0.000 C 
BRANCH  25  26
ATOM     26  C   UNL     1       3.780   3.013  17.561  0.00  0.00    +0.000 A 
ATOM     27  C   UNL     1       3.750   2.111  18.637  0.00  0.00    +0.000 A 
ATOM     28  C   UNL     1       2.547   1.818  19.287  0.00  0.00    +0.000 A 
ATOM     29  C   UNL     1       1.363   2.417  18.864  0.00  0.00    +0.000 A 
ATOM     30  C   UNL     1       1.373   3.285  17.774  0.00  0.00    +0.000 A 
ATOM     31  C   UNL     1       2.573   3.572  17.118  0.00  0.00    +0.000 A 
ENDBRANCH  25  26
ENDBRANCH  20  25
ENDBRANCH   1  20
TORSDOF 8
ENDMDL
MODEL 8
REMARK VINA RESULT:      -8.2      2.489      4.324
REMARK  Name = 
REMARK  8 active torsions:
REMARK  status: ('A' for Active; 'I' for Inactive)
REMARK    1  A    between atoms: C_2  and  O_3
REMARK    2  A    between atoms: C_2  and  C_4
REMARK    3  A    between atoms: N_6  and  C_7
REMARK    4  A    between atoms: N_6  and  C_14
REMARK    5  A    between atoms: C_7  and  C_8
REMARK    6  A    between atoms: C_17  and  C_18
REMARK    7  A    between atoms: C_21  and  O_22
REMARK    8  A    between atoms: O_22  and  C_23
REMARK                            x       y       z     vdW  Elec       q    Type
REMARK                         _______ _______ _______ _____ _____    ______ ____
ROOT
ATOM      1  C   UNL     1       4.676   5.721  17.943  0.00  0.00    +0.000 A 
ATOM      2  C   UNL     1       4.237   6.766  17.132  0.00  0.00    +0.000 A 
ATOM      3  C   UNL     1       3.310   7.686  17.628  0.00  0.00    +0.000 A 
ATOM      4  C   UNL     1       2.780   7.567  18.927  0.00  0.00    +0.000 A 
ATOM      5  C   UNL     1       3.272   6.520  19.731  0.00  0.00    +0.000 A 
ATOM      6  C   UNL     1       4.218   5.609  19.251  0.00  0.00    +0.000 A 
ENDROOT
BRANCH   4   7
ATOM      7  C   UNL     1       1.719   8.481  19.409  0.00  0.00    +0.000 A 
ATOM      8  C   UNL     1       1.237   8.404  20.726  0.00  0.00    +0.000 A 
ATOM      9  C   UNL     1       0.266   9.292  21.201  0.00  0.00    +0.000 A 
ATOM     10  C   UNL     1      -0.236  10.299  20.381  0.00  0.00    +0.000 A 
ATOM     11  C   UNL     1       0.191  10.368  19.059  0.00  0.00    +0.000 A 
ATOM     12  C   UNL     1       1.165   9.476  18.585  0.00  0.00    +0.000 A 
BRANCH  10  13
ATOM     13  O   UNL     1      -1.176  11.095  20.958  0.00  0.00    +0.000 OA
BRANCH  13  14
ATOM     14  C   UNL     1      -0.764  12.143  21.822  0.00  0.00    +0.000 C 
ATOM     15  F   UNL     1      -1.505  13.267  21.737  0.00  0.00    +0.000 F 
ATOM     16  F   UNL     1      -0.797  11.699  23.097  0.00  0.00    +0.000 F 
ATOM     17  F   UNL     1       0.516  12.469  21.525  0.00  0.00    +0.000 F 
ENDBRANCH  13  14
ENDBRANCH  10  13
ENDBRANCH   4   7
BRANCH   1  20
ATOM     18  C   UNL     1       6.891   5.017  17.188  0.00  0.00    +0.000 C 
ATOM     19  O   UNL     1       7.663   4.293  16.563  0.00  0.00    +0.000 OA
ATOM     20  N   UNL     1       5.544   4.736  17.428  0.00  0.00    +0.000 N 
BRANCH  18  22
ATOM     21  O   UNL     1       7.763   6.540  18.892  0.00  0.00    +0.000 OA
ATOM     22  C   UNL     1       7.421   6.353  17.741  0.00  0.00    +0.000 C 
BRANCH  22  23
ATOM     23  O   UNL     1       7.483   7.303  16.798  0.00  0.00    +0.000 OA
ATOM     24  H   UNL     1       7.532   6.802  15.957  0.00  0.00    +0.000 HD
ENDBRANCH  22  23
ENDBRANCH  18  22
BRANCH  20  25
ATOM     25  C   UNL     1       4.923   3.612  16.734  0.00  0.00    +0.000 C 
BRANCH  25  26
ATOM     26  C   UNL     1       3.686   3.072  17.418  0.00  0.00    +0.000 A 
ATOM     27  C   UNL     1       3.780   2.053  18.379  0.00  0.00    +0.000 A 
ATOM     28  C   UNL     1       2.651   1.644  19.096  0.00  0.00    +0.000 A 
ATOM     29  C   UNL     1       1.417   2.245  18.854  0.00  0.00    +0.000 A 
ATOM     30  C   UNL     1       1.303   3.231  17.877  0.00  0.00    +0.000 A 
ATOM     31  C   UNL     1       2.429   3.635  17.154  0.00  0.00    +0.000 A 
ENDBRANCH  25  26
ENDBRANCH  20  25
ENDBRANCH   1  20
TORSDOF 8
ENDMDL
MODEL 9
REMARK VINA RESULT:      -8.1      1.188      1.842
REMARK  Name = 
REMARK  8 active torsions:
REMARK  status: ('A' for Active; 'I' for Inactive)
REMARK    1  A    between atoms: C_2  and  O_3
REMARK    2  A    between atoms: C_2  and  C_4
REMARK    3  A    between atoms: N_6  and  C_7
REMARK    4  A    between atoms: N_6  and  C_14
REMARK    5  A    between atoms: C_7  and  C_8
REMARK    6  A    between atoms: C_17  and  C_18
REMARK    7  A    between atoms: C_21  and  O_22
REMARK    8  A    between atoms: O_22  and  C_23
REMARK                            x       y       z     vdW  Elec       q    Type
REMARK                         _______ _______ _______ _____ _____    ______ ____
ROOT
ATOM      1  C   UNL     1       3.070   5.305  19.083  0.00  0.00    +0.000 A 
ATOM      2  C   UNL     1       3.048   6.267  18.075  0.00  0.00    +0.000 A 
ATOM      3  C   UNL     1       2.455   7.509  18.315  0.00  0.00    +0.000 A 
ATOM      4  C   UNL     1       1.849   7.807  19.550  0.00  0.00    +0.000 A 
ATOM      5  C   UNL     1       1.921   6.825  20.557  0.00  0.00    +0.000 A 
ATOM      6  C   UNL     1       2.532   5.588  20.333  0.00  0.00    +0.000 A 
ENDROOT
BRANCH   4   7
ATOM      7  C   UNL     1       1.129   9.084  19.763  0.00  0.00    +0.000 A 
ATOM      8  C   UNL     1       0.575   9.407  21.013  0.00  0.00    +0.000 A 
ATOM      9  C   UNL     1      -0.068  10.629  21.233  0.00  0.00    +0.000 A 
ATOM     10  C   UNL     1      -0.157  11.577  20.216  0.00  0.00    +0.000 A 
ATOM     11  C   UNL     1       0.343  11.264  18.956  0.00  0.00    +0.000 A 
ATOM     12  C   UNL     1       0.987  10.036  18.738  0.00  0.00    +0.000 A 
BRANCH  10  13
ATOM     13  O   UNL     1      -0.808  12.722  20.553  0.00  0.00    +0.000 OA
BRANCH  13  14
ATOM     14  C   UNL     1      -2.227  12.729  20.589  0.00  0.00    +0.000 C 
ATOM     15  F   UNL     1      -2.764  12.291  21.746  0.00  0.00    +0.000 F 
ATOM     16  F   UNL     1      -2.665  13.986  20.359  0.00  0.00    +0.000 F 
ATOM     17  F   UNL     1      -2.687  11.936  19.594  0.00  0.00    +0.000 F 
ENDBRANCH  13  14
ENDBRANCH  10  13
ENDBRANCH   4   7
BRANCH   1  20
ATOM     18  C   UNL     1       2.737   2.921  18.661  0.00  0.00    +0.000 C 
ATOM     19  O   UNL     1       3.096   1.746  18.634  0.00  0.00    +0.000 OA
ATOM     20  N   UNL     1       3.586   4.018  18.828  0.00  0.00    +0.000 N 
BRANCH  18  22
ATOM     21  O   UNL     1       0.717   3.733  17.543  0.00  0.00    +0.000 OA
ATOM     22  C   UNL     1       1.234   3.233  18.522  0.00  0.00    +0.000 C 
BRANCH  22  23
ATOM     23  O   UNL     1       0.540   2.873  19.611  0.00  0.00    +0.000 OA
ATOM     24  H   UNL     1      -0.079   2.187  19.283  0.00  0.00    +0.000 HD
ENDBRANCH  22  23
ENDBRANCH  18  22
BRANCH  20  25
ATOM     25  C   UNL     1       4.978   3.782  19.200  0.00  0.00    +0.000 C 
BRANCH  25  26
ATOM     26  C   UNL     1       5.968   4.669  18.479  0.00  0.00    +0.000 A 
ATOM     27  C   UNL     1       6.050   4.669  17.077  0.00  0.00    +0.000 A 
ATOM     28  C   UNL     1       6.878   5.578  16.412  0.00  0.00    +0.000 A 
ATOM     29  C   UNL     1       7.637   6.491  17.141  0.00  0.00    +0.000 A 
ATOM     30  C   UNL     1       7.594   6.477  18.533  0.00  0.00    +0.000 A 
ATOM     31  C   UNL     1       6.773   5.563  19.200  0.00  0.00    +0.000 A 
ENDBRANCH  25  26
ENDBRANCH  20  25
ENDBRANCH   1  20
TORSDOF 8
ENDMDL
