MODEL 1
REMARK VINA RESULT:      -7.8      0.000      0.000
REMARK  Name = 
REMARK  8 active torsions:
REMARK  status: ('A' for Active; 'I' for Inactive)
REMARK    1  A    between atoms: C_1  and  O_2
REMARK    2  A    between atoms: O_2  and  C_3
REMARK    3  A    between atoms: C_3  and  C_5
REMARK    4  A    between atoms: C_7  and  C_8
REMARK    5  A    between atoms: C_8  and  N_9
REMARK    6  A    between atoms: C_8  and  C_18
REMARK    7  A    between atoms: C_10  and  C_12
REMARK    8  A    between atoms: C_22  and  C_23
REMARK                            x       y       z     vdW  Elec       q    Type
REMARK                         _______ _______ _______ _____ _____    ______ ____
ROOT
ATOM      1  C   UNL     1       6.337   5.548  17.235  0.00  0.00    +0.000 C 
ENDROOT
BRANCH   1   4
ATOM      2  C   UNL     1       6.250   4.079  13.573  0.00  0.00    +0.000 A 
ATOM      3  S   UNL     1       5.477   3.881  15.102  0.00  0.00    +0.000 S 
ATOM      4  C   UNL     1       6.514   5.059  15.801  0.00  0.00    +0.000 A 
ATOM      5  N   UNL     1       7.409   5.555  14.967  0.00  0.00    +0.000 NA
ATOM      6  C   UNL     1       7.278   5.004  13.698  0.00  0.00    +0.000 A 
ATOM      7  C   UNL     1       8.221   5.476  12.644  0.00  0.00    +0.000 C 
BRANCH   2   8
ATOM      8  C   UNL     1       5.766   3.327  12.432  0.00  0.00    +0.000 C 
ATOM      9  O   UNL     1       6.386   2.441  11.848  0.00  0.00    +0.000 OA
BRANCH   8  11
ATOM     10  C   UNL     1       3.911   2.938  11.036  0.00  0.00    +0.000 C 
ATOM     11  O   UNL     1       4.500   3.704  12.093  0.00  0.00    +0.000 OA
ENDBRANCH   8  11
ENDBRANCH   2   8
ENDBRANCH   1   4
BRANCH   1  12
ATOM     12  N   UNL     1       5.165   4.884  17.796  0.00  0.00    +0.000 N 
ATOM     13  C   UNL     1       3.987   5.554  18.030  0.00  0.00    +0.000 C 
ATOM     14  O   UNL     1       3.795   6.729  17.746  0.00  0.00    +0.000 OA
ATOM     15  H   UNL     1       5.224   3.891  17.967  0.00  0.00    +0.000 HD
BRANCH  13  16
ATOM     16  C   UNL     1       2.897   4.744  18.638  0.00  0.00    +0.000 A 
ATOM     17  C   UNL     1       2.568   4.856  19.996  0.00  0.00    +0.000 A 
ATOM     18  C   UNL     1       1.574   4.042  20.542  0.00  0.00    +0.000 A 
ATOM     19  C   UNL     1       0.900   3.126  19.734  0.00  0.00    +0.000 A 
ATOM     20  C   UNL     1       1.198   3.039  18.375  0.00  0.00    +0.000 A 
ATOM     21  C   UNL     1       2.190   3.851  17.823  0.00  0.00    +0.000 A 
ENDBRANCH  13  16
ENDBRANCH   1  12
BRANCH   1  22
ATOM     22  C   UNL     1       7.482   5.340  18.209  0.00  0.00    +0.000 C 
ATOM     23  C   UNL     1       8.180   6.461  18.943  0.00  0.00    +0.000 C 
ATOM     24  C   UNL     1       7.216   5.580  19.681  0.00  0.00    +0.000 C 
ENDBRANCH   1  22
TORSDOF 6
ENDMDL
MODEL 2
REMARK VINA RESULT:      -7.6      2.971      4.768
REMARK  Name = 
REMARK  8 active torsions:
REMARK  status: ('A' for Active; 'I' for Inactive)
REMARK    1  A    between atoms: C_1  and  O_2
REMARK    2  A    between atoms: O_2  and  C_3
REMARK    3  A    between atoms: C_3  and  C_5
REMARK    4  A    between atoms: C_7  and  C_8
REMARK    5  A    between atoms: C_8  and  N_9
REMARK    6  A    between atoms: C_8  and  C_18
REMARK    7  A    between atoms: C_10  and  C_12
REMARK    8  A    between atoms: C_22  and  C_23
REMARK                            x       y       z     vdW  Elec       q    Type
REMARK                         _______ _______ _______ _____ _____    ______ ____
ROOT
ATOM      1  C   UNL     1       2.951   4.601  18.872  0.00  0.00    +0.000 C 
ENDROOT
BRANCH   1   4
ATOM      2  C   UNL     1       6.035   4.553  16.409  0.00  0.00    +0.000 A 
ATOM      3  S   UNL     1       4.321   4.360  16.395  0.00  0.00    +0.000 S 
ATOM      4  C   UNL     1       4.267   4.538  18.103  0.00  0.00    +0.000 A 
ATOM      5  N   UNL     1       5.449   4.700  18.668  0.00  0.00    +0.000 NA
ATOM      6  C   UNL     1       6.466   4.704  17.720  0.00  0.00    +0.000 A 
ATOM      7  C   UNL     1       7.861   4.885  18.212  0.00  0.00    +0.000 C 
BRANCH   2   8
ATOM      8  C   UNL     1       6.758   4.547  15.153  0.00  0.00    +0.000 C 
ATOM      9  O   UNL     1       7.623   5.355  14.825  0.00  0.00    +0.000 OA
BRANCH   8  11
ATOM     10  C   UNL     1       6.343   3.778  12.967  0.00  0.00    +0.000 C 
ATOM     11  O   UNL     1       6.379   3.496  14.371  0.00  0.00    +0.000 OA
ENDBRANCH   8  11
ENDBRANCH   2   8
ENDBRANCH   1   4
BRANCH   1  12
ATOM     12  N   UNL     1       2.531   5.997  18.934  0.00  0.00    +0.000 N 
ATOM     13  C   UNL     1       1.994   6.550  20.073  0.00  0.00    +0.000 C 
ATOM     14  O   UNL     1       1.871   5.953  21.135  0.00  0.00    +0.000 OA
ATOM     15  H   UNL     1       2.692   6.573  18.120  0.00  0.00    +0.000 HD
BRANCH  13  16
ATOM     16  C   UNL     1       1.584   7.976  19.963  0.00  0.00    +0.000 A 
ATOM     17  C   UNL     1       1.026   8.665  21.049  0.00  0.00    +0.000 A 
ATOM     18  C   UNL     1       0.606   9.987  20.893  0.00  0.00    +0.000 A 
ATOM     19  C   UNL     1       0.753  10.626  19.662  0.00  0.00    +0.000 A 
ATOM     20  C   UNL     1       1.342   9.956  18.591  0.00  0.00    +0.000 A 
ATOM     21  C   UNL     1       1.765   8.634  18.741  0.00  0.00    +0.000 A 
ENDBRANCH  13  16
ENDBRANCH   1  12
BRANCH   1  22
ATOM     22  C   UNL     1       1.775   3.800  18.345  0.00  0.00    +0.000 C 
ATOM     23  C   UNL     1       1.733   2.291  18.299  0.00  0.00    +0.000 C 
ATOM     24  C   UNL     1       0.939   3.023  19.341  0.00  0.00    +0.000 C 
ENDBRANCH   1  22
TORSDOF 6
ENDMDL
MODEL 3
REMARK VINA RESULT:      -7.6      2.988      4.903
REMARK  Name = 
REMARK  8 active torsions:
REMARK  status: ('A' for Active; 'I' for Inactive)
REMARK    1  A    between atoms: C_1  and  O_2
REMARK    2  A    between atoms: O_2  and  C_3
REMARK    3  A    between atoms: C_3  and  C_5
REMARK    4  A    between atoms: C_7  and  C_8
REMARK    5  A    between atoms: C_8  and  N_9
REMARK    6  A    between atoms: C_8  and  C_18
REMARK    7  A    between atoms: C_10  and  C_12
REMARK    8  A    between atoms: C_22  and  C_23
REMARK                            x       y       z     vdW  Elec       q    Type
REMARK                         _______ _______ _______ _____ _____    ______ ____
ROOT
ATOM      1  C   UNL     1       3.253   4.439  19.910  0.00  0.00    +0.000 C 
ENDROOT
BRANCH   1   4
ATOM      2  C   UNL     1       6.140   4.846  17.249  0.00  0.00    +0.000 A 
ATOM      3  S   UNL     1       4.604   4.084  17.436  0.00  0.00    +0.000 S 
ATOM      4  C   UNL     1       4.501   4.643  19.058  0.00  0.00    +0.000 A 
ATOM      5  N   UNL     1       5.555   5.328  19.461  0.00  0.00    +0.000 NA
ATOM      6  C   UNL     1       6.499   5.448  18.448  0.00  0.00    +0.000 A 
ATOM      7  C   UNL     1       7.744   6.206  18.756  0.00  0.00    +0.000 C 
BRANCH   2   8
ATOM      8  C   UNL     1       6.811   4.781  15.966  0.00  0.00    +0.000 C 
ATOM      9  O   UNL     1       7.650   5.581  15.560  0.00  0.00    +0.000 OA
BRANCH   8  11
ATOM     10  C   UNL     1       6.202   3.920  13.861  0.00  0.00    +0.000 C 
ATOM     11  O   UNL     1       6.415   3.684  15.258  0.00  0.00    +0.000 OA
ENDBRANCH   8  11
ENDBRANCH   2   8
ENDBRANCH   1   4
BRANCH   1  12
ATOM     12  N   UNL     1       2.720   5.754  20.250  0.00  0.00    +0.000 N 
ATOM     13  C   UNL     1       2.241   6.620  19.295  0.00  0.00    +0.000 C 
ATOM     14  O   UNL     1       2.164   6.354  18.102  0.00  0.00    +0.000 OA
ATOM     15  H   UNL     1       2.666   6.000  21.228  0.00  0.00    +0.000 HD
BRANCH  13  16
ATOM     16  C   UNL     1       1.765   7.936  19.801  0.00  0.00    +0.000 A 
ATOM     17  C   UNL     1       1.456   8.135  21.154  0.00  0.00    +0.000 A 
ATOM     18  C   UNL     1       0.963   9.369  21.581  0.00  0.00    +0.000 A 
ATOM     19  C   UNL     1       0.791  10.407  20.666  0.00  0.00    +0.000 A 
ATOM     20  C   UNL     1       1.133  10.224  19.327  0.00  0.00    +0.000 A 
ATOM     21  C   UNL     1       1.628   8.993  18.894  0.00  0.00    +0.000 A 
ENDBRANCH  13  16
ENDBRANCH   1  12
BRANCH   1  22
ATOM     22  C   UNL     1       2.111   3.628  19.325  0.00  0.00    +0.000 C 
ATOM     23  C   UNL     1       2.017   2.123  19.405  0.00  0.00    +0.000 C 
ATOM     24  C   UNL     1       1.143   2.968  20.285  0.00  0.00    +0.000 C 
ENDBRANCH   1  22
TORSDOF 6
ENDMDL
MODEL 4
REMARK VINA RESULT:      -7.6      3.487      5.332
REMARK  Name = 
REMARK  8 active torsions:
REMARK  status: ('A' for Active; 'I' for Inactive)
REMARK    1  A    between atoms: C_1  and  O_2
REMARK    2  A    between atoms: O_2  and  C_3
REMARK    3  A    between atoms: C_3  and  C_5
REMARK    4  A    between atoms: C_7  and  C_8
REMARK    5  A    between atoms: C_8  and  N_9
REMARK    6  A    between atoms: C_8  and  C_18
REMARK    7  A    between atoms: C_10  and  C_12
REMARK    8  A    between atoms: C_22  and  C_23
REMARK                            x       y       z     vdW  Elec       q    Type
REMARK                         _______ _______ _______ _____ _____    ______ ____
ROOT
ATOM      1  C   UNL     1       2.896   5.405  19.555  0.00  0.00    +0.000 C 
ENDROOT
BRANCH   1   4
ATOM      2  C   UNL     1       6.009   5.056  17.154  0.00  0.00    +0.000 A 
ATOM      3  S   UNL     1       4.294   4.867  17.142  0.00  0.00    +0.000 S 
ATOM      4  C   UNL     1       4.221   5.248  18.816  0.00  0.00    +0.000 A 
ATOM      5  N   UNL     1       5.397   5.472  19.372  0.00  0.00    +0.000 NA
ATOM      6  C   UNL     1       6.425   5.360  18.443  0.00  0.00    +0.000 A 
ATOM      7  C   UNL     1       7.815   5.594  18.927  0.00  0.00    +0.000 C 
BRANCH   2   8
ATOM      8  C   UNL     1       6.747   4.898  15.917  0.00  0.00    +0.000 C 
ATOM      9  O   UNL     1       7.612   5.665  15.500  0.00  0.00    +0.000 OA
BRANCH   8  11
ATOM     10  C   UNL     1       6.225   3.897  13.851  0.00  0.00    +0.000 C 
ATOM     11  O   UNL     1       6.383   3.755  15.267  0.00  0.00    +0.000 OA
ENDBRANCH   8  11
ENDBRANCH   2   8
ENDBRANCH   1   4
BRANCH   1  12
ATOM     12  N   UNL     1       2.399   6.755  19.307  0.00  0.00    +0.000 N 
ATOM     13  C   UNL     1       1.722   7.473  20.265  0.00  0.00    +0.000 C 
ATOM     14  O   UNL     1       1.524   7.080  21.407  0.00  0.00    +0.000 OA
ATOM     15  H   UNL     1       2.611   7.177  18.414  0.00  0.00    +0.000 HD
BRANCH  13  16
ATOM     16  C   UNL     1       1.250   8.820  19.844  0.00  0.00    +0.000 A 
ATOM     17  C   UNL     1       1.558   9.345  18.582  0.00  0.00    +0.000 A 
ATOM     18  C   UNL     1       1.141  10.633  18.243  0.00  0.00    +0.000 A 
ATOM     19  C   UNL     1       0.408  11.393  19.154  0.00  0.00    +0.000 A 
ATOM     20  C   UNL     1       0.068  10.859  20.397  0.00  0.00    +0.000 A 
ATOM     21  C   UNL     1       0.481   9.571  20.741  0.00  0.00    +0.000 A 
ENDBRANCH  13  16
ENDBRANCH   1  12
BRANCH   1  22
ATOM     22  C   UNL     1       1.771   4.443  19.222  0.00  0.00    +0.000 C 
ATOM     23  C   UNL     1       1.871   2.943  19.372  0.00  0.00    +0.000 C 
ATOM     24  C   UNL     1       1.077   3.736  20.368  0.00  0.00    +0.000 C 
ENDBRANCH   1  22
TORSDOF 6
ENDMDL
MODEL 5
REMARK VINA RESULT:      -7.6      3.018      5.020
REMARK  Name = 
REMARK  8 active torsions:
REMARK  status: ('A' for Active; 'I' for Inactive)
REMARK    1  A    between atoms: C_1  and  O_2
REMARK    2  A    between atoms: O_2  and  C_3
REMARK    3  A    between atoms: C_3  and  C_5
REMARK    4  A    between atoms: C_7  and  C_8
REMARK    5  A    between atoms: C_8  and  N_9
REMARK    6  A    between atoms: C_8  and  C_18
REMARK    7  A    between atoms: C_10  and  C_12
REMARK    8  A    between atoms: C_22  and  C_23
REMARK                            x       y       z     vdW  Elec       q    Type
REMARK                         _______ _______ _______ _____ _____    ______ ____
ROOT
ATOM      1  C   UNL     1       3.210   4.543  19.929  0.00  0.00    +0.000 C 
ENDROOT
BRANCH   1   4
ATOM      2  C   UNL     1       6.131   4.926  17.303  0.00  0.00    +0.000 A 
ATOM      3  S   UNL     1       4.557   4.237  17.447  0.00  0.00    +0.000 S 
ATOM      4  C   UNL     1       4.473   4.722  19.094  0.00  0.00    +0.000 A 
ATOM      5  N   UNL     1       5.558   5.332  19.533  0.00  0.00    +0.000 NA
ATOM      6  C   UNL     1       6.514   5.451  18.530  0.00  0.00    +0.000 A 
ATOM      7  C   UNL     1       7.794   6.128  18.880  0.00  0.00    +0.000 C 
BRANCH   2   8
ATOM      8  C   UNL     1       6.806   4.887  16.021  0.00  0.00    +0.000 C 
ATOM      9  O   UNL     1       7.583   5.740  15.599  0.00  0.00    +0.000 OA
BRANCH   8  11
ATOM     10  C   UNL     1       6.177   3.957  13.952  0.00  0.00    +0.000 C 
ATOM     11  O   UNL     1       6.494   3.751  15.333  0.00  0.00    +0.000 OA
ENDBRANCH   8  11
ENDBRANCH   2   8
ENDBRANCH   1   4
BRANCH   1  12
ATOM     12  N   UNL     1       2.657   5.867  20.199  0.00  0.00    +0.000 N 
ATOM     13  C   UNL     1       2.237   6.703  19.191  0.00  0.00    +0.000 C 
ATOM     14  O   UNL     1       2.235   6.403  18.004  0.00  0.00    +0.000 OA
ATOM     15  H   UNL     1       2.543   6.141  21.164  0.00  0.00    +0.000 HD
BRANCH  13  16
ATOM     16  C   UNL     1       1.730   8.032  19.629  0.00  0.00    +0.000 A 
ATOM     17  C   UNL     1       1.576   9.093  18.726  0.00  0.00    +0.000 A 
ATOM     18  C   UNL     1       1.147  10.340  19.183  0.00  0.00    +0.000 A 
ATOM     19  C   UNL     1       0.859  10.528  20.535  0.00  0.00    +0.000 A 
ATOM     20  C   UNL     1       0.976   9.464  21.429  0.00  0.00    +0.000 A 
ATOM     21  C   UNL     1       1.403   8.214  20.978  0.00  0.00    +0.000 A 
ENDBRANCH  13  16
ENDBRANCH   1  12
BRANCH   1  22
ATOM     22  C   UNL     1       2.089   3.693  19.361  0.00  0.00    +0.000 C 
ATOM     23  C   UNL     1       2.049   2.186  19.442  0.00  0.00    +0.000 C 
ATOM     24  C   UNL     1       1.159   2.999  20.335  0.00  0.00    +0.000 C 
ENDBRANCH   1  22
TORSDOF 6
ENDMDL
MODEL 6
REMARK VINA RESULT:      -7.5      3.477      5.255
REMARK  Name = 
REMARK  8 active torsions:
REMARK  status: ('A' for Active; 'I' for Inactive)
REMARK    1  A    between atoms: C_1  and  O_2
REMARK    2  A    between atoms: O_2  and  C_3
REMARK    3  A    between atoms: C_3  and  C_5
REMARK    4  A    between atoms: C_7  and  C_8
REMARK    5  A    between atoms: C_8  and  N_9
REMARK    6  A    between atoms: C_8  and  C_18
REMARK    7  A    between atoms: C_10  and  C_12
REMARK    8  A    between atoms: C_22  and  C_23
REMARK                            x       y       z     vdW  Elec       q    Type
REMARK                         _______ _______ _______ _____ _____    ______ ____
ROOT
ATOM      1  C   UNL     1       2.883   5.416  19.522  0.00  0.00    +0.000 C 
ENDROOT
BRANCH   1   4
ATOM      2  C   UNL     1       6.024   5.070  17.157  0.00  0.00    +0.000 A 
ATOM      3  S   UNL     1       4.310   4.881  17.125  0.00  0.00    +0.000 S 
ATOM      4  C   UNL     1       4.216   5.260  18.798  0.00  0.00    +0.000 A 
ATOM      5  N   UNL     1       5.386   5.483  19.369  0.00  0.00    +0.000 NA
ATOM      6  C   UNL     1       6.425   5.373  18.452  0.00  0.00    +0.000 A 
ATOM      7  C   UNL     1       7.809   5.607  18.952  0.00  0.00    +0.000 C 
BRANCH   2   8
ATOM      8  C   UNL     1       6.777   4.914  15.929  0.00  0.00    +0.000 C 
ATOM      9  O   UNL     1       7.623   5.698  15.506  0.00  0.00    +0.000 OA
BRANCH   8  11
ATOM     10  C   UNL     1       6.181   3.887  13.895  0.00  0.00    +0.000 C 
ATOM     11  O   UNL     1       6.451   3.750  15.295  0.00  0.00    +0.000 OA
ENDBRANCH   8  11
ENDBRANCH   2   8
ENDBRANCH   1   4
BRANCH   1  12
ATOM     12  N   UNL     1       2.383   6.762  19.260  0.00  0.00    +0.000 N 
ATOM     13  C   UNL     1       1.728   7.499  20.218  0.00  0.00    +0.000 C 
ATOM     14  O   UNL     1       1.556   7.128  21.373  0.00  0.00    +0.000 OA
ATOM     15  H   UNL     1       2.575   7.166  18.354  0.00  0.00    +0.000 HD
BRANCH  13  16
ATOM     16  C   UNL     1       1.249   8.839  19.783  0.00  0.00    +0.000 A 
ATOM     17  C   UNL     1       0.373   9.597  20.571  0.00  0.00    +0.000 A 
ATOM     18  C   UNL     1      -0.095  10.827  20.105  0.00  0.00    +0.000 A 
ATOM     19  C   UNL     1       0.319  11.307  18.863  0.00  0.00    +0.000 A 
ATOM     20  C   UNL     1       1.221  10.573  18.094  0.00  0.00    +0.000 A 
ATOM     21  C   UNL     1       1.694   9.343  18.555  0.00  0.00    +0.000 A 
ENDBRANCH  13  16
ENDBRANCH   1  12
BRANCH   1  22
ATOM     22  C   UNL     1       1.766   4.446  19.183  0.00  0.00    +0.000 C 
ATOM     23  C   UNL     1       1.879   2.947  19.321  0.00  0.00    +0.000 C 
ATOM     24  C   UNL     1       1.080   3.725  20.325  0.00  0.00    +0.000 C 
ENDBRANCH   1  22
TORSDOF 6
ENDMDL
MODEL 7
REMARK VINA RESULT:      -7.5      3.046      4.715
REMARK  Name = 
REMARK  8 active torsions:
REMARK  status: ('A' for Active; 'I' for Inactive)
REMARK    1  A    between atoms: C_1  and  O_2
REMARK    2  A    between atoms: O_2  and  C_3
REMARK    3  A    between atoms: C_3  and  C_5
REMARK    4  A    between atoms: C_7  and  C_8
REMARK    5  A    between atoms: C_8  and  N_9
REMARK    6  A    between atoms: C_8  and  C_18
REMARK    7  A    between atoms: C_10  and  C_12
REMARK    8  A    between atoms: C_22  and  C_23
REMARK                            x       y       z     vdW  Elec       q    Type
REMARK                         _______ _______ _______ _____ _____    ______ ____
ROOT
ATOM      1  C   UNL     1       3.151   5.005  18.559  0.00  0.00    +0.000 C 
ENDROOT
BRANCH   1   4
ATOM      2  C   UNL     1       6.185   5.127  16.038  0.00  0.00    +0.000 A 
ATOM      3  S   UNL     1       4.724   4.254  16.316  0.00  0.00    +0.000 S 
ATOM      4  C   UNL     1       4.437   5.153  17.752  0.00  0.00    +0.000 A 
ATOM      5  N   UNL     1       5.380   6.031  18.039  0.00  0.00    +0.000 NA
ATOM      6  C   UNL     1       6.386   6.025  17.078  0.00  0.00    +0.000 A 
ATOM      7  C   UNL     1       7.519   6.974  17.266  0.00  0.00    +0.000 C 
BRANCH   2   8
ATOM      8  C   UNL     1       6.960   4.849  14.845  0.00  0.00    +0.000 C 
ATOM      9  O   UNL     1       7.893   5.530  14.427  0.00  0.00    +0.000 OA
BRANCH   8  11
ATOM     10  C   UNL     1       6.396   3.789  12.820  0.00  0.00    +0.000 C 
ATOM     11  O   UNL     1       6.541   3.699  14.242  0.00  0.00    +0.000 OA
ENDBRANCH   8  11
ENDBRANCH   2   8
ENDBRANCH   1   4
BRANCH   1  12
ATOM     12  N   UNL     1       2.617   6.341  18.805  0.00  0.00    +0.000 N 
ATOM     13  C   UNL     1       2.081   6.703  20.019  0.00  0.00    +0.000 C 
ATOM     14  O   UNL     1       2.053   5.975  21.003  0.00  0.00    +0.000 OA
ATOM     15  H   UNL     1       2.695   7.022  18.063  0.00  0.00    +0.000 HD
BRANCH  13  16
ATOM     16  C   UNL     1       1.547   8.090  20.098  0.00  0.00    +0.000 A 
ATOM     17  C   UNL     1       1.511   8.928  18.975  0.00  0.00    +0.000 A 
ATOM     18  C   UNL     1       1.050  10.239  19.100  0.00  0.00    +0.000 A 
ATOM     19  C   UNL     1       0.614  10.712  20.337  0.00  0.00    +0.000 A 
ATOM     20  C   UNL     1       0.614   9.869  21.448  0.00  0.00    +0.000 A 
ATOM     21  C   UNL     1       1.072   8.556  21.329  0.00  0.00    +0.000 A 
ENDBRANCH  13  16
ENDBRANCH   1  12
BRANCH   1  22
ATOM     22  C   UNL     1       2.028   4.172  17.971  0.00  0.00    +0.000 C 
ATOM     23  C   UNL     1       2.053   2.665  17.879  0.00  0.00    +0.000 C 
ATOM     24  C   UNL     1       1.197   3.329  18.916  0.00  0.00    +0.000 C 
ENDBRANCH   1  22
TORSDOF 6
ENDMDL
MODEL 8
REMARK VINA RESULT:      -7.4      0.475      1.176
REMARK  Name = 
REMARK  8 active torsions:
REMARK  status: ('A' for Active; 'I' for Inactive)
REMARK    1  A    between atoms: C_1  and  O_2
REMARK    2  A    between atoms: O_2  and  C_3
REMARK    3  A    between atoms: C_3  and  C_5
REMARK    4  A    between atoms: C_7  and  C_8
REMARK    5  A    between atoms: C_8  and  N_9
REMARK    6  A    between atoms: C_8  and  C_18
REMARK    7  A    between atoms: C_10  and  C_12
REMARK    8  A    between atoms: C_22  and  C_23
REMARK                            x       y       z     vdW  Elec       q    Type
REMARK                         _______ _______ _______ _____ _____    ______ ____
ROOT
ATOM      1  C   UNL     1       5.981   6.040  17.085  0.00  0.00    +0.000 C 
ENDROOT
BRANCH   1   4
ATOM      2  C   UNL     1       6.299   4.187  13.614  0.00  0.00    +0.000 A 
ATOM      3  S   UNL     1       5.355   4.151  15.057  0.00  0.00    +0.000 S 
ATOM      4  C   UNL     1       6.316   5.401  15.741  0.00  0.00    +0.000 A 
ATOM      5  N   UNL     1       7.305   5.808  14.967  0.00  0.00    +0.000 NA
ATOM      6  C   UNL     1       7.314   5.124  13.757  0.00  0.00    +0.000 A 
ATOM      7  C   UNL     1       8.375   5.483  12.774  0.00  0.00    +0.000 C 
BRANCH   2   8
ATOM      8  C   UNL     1       5.943   3.315  12.513  0.00  0.00    +0.000 C 
ATOM      9  O   UNL     1       6.737   2.748  11.767  0.00  0.00    +0.000 OA
BRANCH   8  11
ATOM     10  C   UNL     1       4.062   3.344  11.098  0.00  0.00    +0.000 C 
ATOM     11  O   UNL     1       4.590   3.169  12.417  0.00  0.00    +0.000 OA
ENDBRANCH   8  11
ENDBRANCH   2   8
ENDBRANCH   1   4
BRANCH   1  12
ATOM     12  N   UNL     1       4.898   5.271  17.691  0.00  0.00    +0.000 N 
ATOM     13  C   UNL     1       3.675   5.830  17.978  0.00  0.00    +0.000 C 
ATOM     14  O   UNL     1       3.366   6.983  17.707  0.00  0.00    +0.000 OA
ATOM     15  H   UNL     1       5.055   4.287  17.855  0.00  0.00    +0.000 HD
BRANCH  13  16
ATOM     16  C   UNL     1       2.691   4.923  18.628  0.00  0.00    +0.000 A 
ATOM     17  C   UNL     1       2.077   3.879  17.923  0.00  0.00    +0.000 A 
ATOM     18  C   UNL     1       1.119   3.082  18.552  0.00  0.00    +0.000 A 
ATOM     19  C   UNL     1       0.783   3.315  19.886  0.00  0.00    +0.000 A 
ATOM     20  C   UNL     1       1.420   4.329  20.601  0.00  0.00    +0.000 A 
ATOM     21  C   UNL     1       2.379   5.128  19.978  0.00  0.00    +0.000 A 
ENDBRANCH  13  16
ENDBRANCH   1  12
BRANCH   1  22
ATOM     22  C   UNL     1       7.085   6.156  18.118  0.00  0.00    +0.000 C 
ATOM     23  C   UNL     1       7.032   5.519  19.487  0.00  0.00    +0.000 C 
ATOM     24  C   UNL     1       7.906   4.920  18.425  0.00  0.00    +0.000 C 
ENDBRANCH   1  22
TORSDOF 6
ENDMDL
MODEL 9
REMARK VINA RESULT:      -7.3      0.704      1.110
REMARK  Name = 
REMARK  8 active torsions:
REMARK  status: ('A' for Active; 'I' for Inactive)
REMARK    1  A    between atoms: C_1  and  O_2
REMARK    2  A    between atoms: O_2  and  C_3
REMARK    3  A    between atoms: C_3  and  C_5
REMARK    4  A    between atoms: C_7  and  C_8
REMARK    5  A    between atoms: C_8  and  N_9
REMARK    6  A    between atoms: C_8  and  C_18
REMARK    7  A    between atoms: C_10  and  C_12
REMARK    8  A    between atoms: C_22  and  C_23
REMARK                            x       y       z     vdW  Elec       q    Type
REMARK                         _______ _______ _______ _____ _____    ______ ____
ROOT
ATOM      1  C   UNL     1       5.878   5.922  16.913  0.00  0.00    +0.000 C 
ENDROOT
BRANCH   1   4
ATOM      2  C   UNL     1       6.130   4.133  13.405  0.00  0.00    +0.000 A 
ATOM      3  S   UNL     1       5.176   4.110  14.842  0.00  0.00    +0.000 S 
ATOM      4  C   UNL     1       6.191   5.298  15.558  0.00  0.00    +0.000 A 
ATOM      5  N   UNL     1       7.202   5.674  14.798  0.00  0.00    +0.000 NA
ATOM      6  C   UNL     1       7.187   5.017  13.573  0.00  0.00    +0.000 A 
ATOM      7  C   UNL     1       8.270   5.348  12.604  0.00  0.00    +0.000 C 
BRANCH   2   8
ATOM      8  C   UNL     1       5.739   3.303  12.283  0.00  0.00    +0.000 C 
ATOM      9  O   UNL     1       4.626   3.285  11.763  0.00  0.00    +0.000 OA
BRANCH   8  11
ATOM     10  C   UNL     1       6.407   1.342  11.165  0.00  0.00    +0.000 C 
ATOM     11  O   UNL     1       6.785   2.547  11.841  0.00  0.00    +0.000 OA
ENDBRANCH   8  11
ENDBRANCH   2   8
ENDBRANCH   1   4
BRANCH   1  12
ATOM     12  N   UNL     1       4.792   5.159  17.521  0.00  0.00    +0.000 N 
ATOM     13  C   UNL     1       3.625   5.753  17.940  0.00  0.00    +0.000 C 
ATOM     14  O   UNL     1       3.368   6.942  17.796  0.00  0.00    +0.000 OA
ATOM     15  H   UNL     1       4.901   4.157  17.585  0.00  0.00    +0.000 HD
BRANCH  13  16
ATOM     16  C   UNL     1       2.632   4.843  18.572  0.00  0.00    +0.000 A 
ATOM     17  C   UNL     1       2.065   5.129  19.821  0.00  0.00    +0.000 A 
ATOM     18  C   UNL     1       1.175   4.225  20.405  0.00  0.00    +0.000 A 
ATOM     19  C   UNL     1       0.840   3.046  19.740  0.00  0.00    +0.000 A 
ATOM     20  C   UNL     1       1.373   2.777  18.480  0.00  0.00    +0.000 A 
ATOM     21  C   UNL     1       2.262   3.677  17.890  0.00  0.00    +0.000 A 
ENDBRANCH  13  16
ENDBRANCH   1  12
BRANCH   1  22
ATOM     22  C   UNL     1       6.995   6.011  17.937  0.00  0.00    +0.000 C 
ATOM     23  C   UNL     1       6.915   5.425  19.327  0.00  0.00    +0.000 C 
ATOM     24  C   UNL     1       7.746   4.741  18.281  0.00  0.00    +0.000 C 
ENDBRANCH   1  22
TORSDOF 6
ENDMDL
