MODEL 1
REMARK VINA RESULT:      -7.2      0.000      0.000
REMARK  Name = 
REMARK  5 active torsions:
REMARK  status: ('A' for Active; 'I' for Inactive)
REMARK    1  A    between atoms: C_1  and  N_2
REMARK    2  A    between atoms: C_6  and  C_7
REMARK    3  A    between atoms: N_13  and  C_14
REMARK    4  A    between atoms: C_14  and  C_15
REMARK    5  A    between atoms: C_15  and  N_16
REMARK                            x       y       z     vdW  Elec       q    Type
REMARK                         _______ _______ _______ _____ _____    ______ ____
ROOT
ATOM      1  C   UNL     1       3.318   4.976  18.134  0.00  0.00    +0.000 C 
ATOM      2  O   UNL     1       2.499   5.390  17.334  0.00  0.00    +0.000 OA
ATOM      3  N   UNL     1       4.688   5.099  17.876  0.00  0.00    +0.000 N 
ATOM      4  C   UNL     1       5.122   5.831  16.703  0.00  0.00    +0.000 C 
ATOM      5  C   UNL     1       6.643   5.636  16.614  0.00  0.00    +0.000 C 
ATOM      6  C   UNL     1       7.447   6.899  16.854  0.00  0.00    +0.000 C 
ATOM      7  N   UNL     1       7.650   6.944  18.277  0.00  0.00    +0.000 N 
ATOM      8  C   UNL     1       7.509   5.686  18.857  0.00  0.00    +0.000 C 
ATOM      9  O   UNL     1       7.783   5.368  20.001  0.00  0.00    +0.000 OA
ATOM     10  C   UNL     1       6.996   4.727  17.798  0.00  0.00    +0.000 C 
ATOM     11  C   UNL     1       5.679   4.077  18.179  0.00  0.00    +0.000 C 
ENDROOT
BRANCH   1  17
ATOM     12  C   UNL     1       2.969   1.866  18.840  0.00  0.00    +0.000 C 
ATOM     13  N   UNL     1       2.778   3.008  19.707  0.00  0.00    +0.000 N 
ATOM     14  C   UNL     1       2.492   2.851  21.043  0.00  0.00    +0.000 A 
ATOM     15  C   UNL     1       2.444   4.090  21.626  0.00  0.00    +0.000 A 
ATOM     16  C   UNL     1       2.685   5.023  20.602  0.00  0.00    +0.000 A 
ATOM     17  C   UNL     1       2.951   4.354  19.416  0.00  0.00    +0.000 A 
ENDBRANCH   1  17
BRANCH   7  18
ATOM     18  C   UNL     1       8.329   8.082  18.897  0.00  0.00    +0.000 C 
BRANCH  18  19
ATOM     19  C   UNL     1       8.375   9.361  18.028  0.00  0.00    +0.000 C 
BRANCH  19  20
ATOM     20  N   UNL     1       8.923  10.578  18.651  0.00  0.00    +0.000 NA
ATOM     21  C   UNL     1       9.376  10.406  20.029  0.00  0.00    +0.000 C 
ATOM     22  C   UNL     1      10.284  11.606  20.227  0.00  0.00    +0.000 C 
ATOM     23  C   UNL     1      11.002  11.737  18.896  0.00  0.00    +0.000 C 
ATOM     24  C   UNL     1      10.083  11.064  17.887  0.00  0.00    +0.000 C 
ENDBRANCH  19  20
ENDBRANCH  18  19
ENDBRANCH   7  18
TORSDOF 4
ENDMDL
MODEL 2
REMARK VINA RESULT:      -7.1      0.635      1.239
REMARK  Name = 
REMARK  5 active torsions:
REMARK  status: ('A' for Active; 'I' for Inactive)
REMARK    1  A    between atoms: C_1  and  N_2
REMARK    2  A    between atoms: C_6  and  C_7
REMARK    3  A    between atoms: N_13  and  C_14
REMARK    4  A    between atoms: C_14  and  C_15
REMARK    5  A    between atoms: C_15  and  N_16
REMARK                            x       y       z     vdW  Elec       q    Type
REMARK                         _______ _______ _______ _____ _____    ______ ____
ROOT
ATOM      1  C   UNL     1       3.406   5.045  18.206  0.00  0.00    +0.000 C 
ATOM      2  O   UNL     1       2.547   5.484  17.463  0.00  0.00    +0.000 OA
ATOM      3  N   UNL     1       4.761   5.182  17.885  0.00  0.00    +0.000 N 
ATOM      4  C   UNL     1       5.134   5.956  16.717  0.00  0.00    +0.000 C 
ATOM      5  C   UNL     1       6.649   5.770  16.545  0.00  0.00    +0.000 C 
ATOM      6  C   UNL     1       7.461   7.027  16.786  0.00  0.00    +0.000 C 
ATOM      7  N   UNL     1       7.735   7.024  18.198  0.00  0.00    +0.000 N 
ATOM      8  C   UNL     1       7.627   5.746  18.741  0.00  0.00    +0.000 C 
ATOM      9  O   UNL     1       7.958   5.390  19.859  0.00  0.00    +0.000 OA
ATOM     10  C   UNL     1       7.063   4.822  17.677  0.00  0.00    +0.000 C 
ATOM     11  C   UNL     1       5.768   4.155  18.102  0.00  0.00    +0.000 C 
ENDROOT
BRANCH   1  17
ATOM     12  C   UNL     1       1.773   6.164  20.730  0.00  0.00    +0.000 C 
ATOM     13  N   UNL     1       2.418   4.879  20.580  0.00  0.00    +0.000 N 
ATOM     14  C   UNL     1       2.308   3.907  21.547  0.00  0.00    +0.000 A 
ATOM     15  C   UNL     1       2.949   2.780  21.105  0.00  0.00    +0.000 A 
ATOM     16  C   UNL     1       3.481   3.091  19.841  0.00  0.00    +0.000 A 
ATOM     17  C   UNL     1       3.105   4.378  19.483  0.00  0.00    +0.000 A 
ENDBRANCH   1  17
BRANCH   7  18
ATOM     18  C   UNL     1       8.442   8.143  18.822  0.00  0.00    +0.000 C 
BRANCH  18  19
ATOM     19  C   UNL     1       8.336   9.483  18.058  0.00  0.00    +0.000 C 
BRANCH  19  20
ATOM     20  N   UNL     1       8.974  10.660  18.672  0.00  0.00    +0.000 NA
ATOM     21  C   UNL     1       9.384  10.475  20.062  0.00  0.00    +0.000 C 
ATOM     22  C   UNL     1      10.388  11.596  20.260  0.00  0.00    +0.000 C 
ATOM     23  C   UNL     1      11.140  11.642  18.943  0.00  0.00    +0.000 C 
ATOM     24  C   UNL     1      10.186  11.031  17.925  0.00  0.00    +0.000 C 
ENDBRANCH  19  20
ENDBRANCH  18  19
ENDBRANCH   7  18
TORSDOF 4
ENDMDL
MODEL 3
REMARK VINA RESULT:      -6.8      3.925      6.649
REMARK  Name = 
REMARK  5 active torsions:
REMARK  status: ('A' for Active; 'I' for Inactive)
REMARK    1  A    between atoms: C_1  and  N_2
REMARK    2  A    between atoms: C_6  and  C_7
REMARK    3  A    between atoms: N_13  and  C_14
REMARK    4  A    between atoms: C_14  and  C_15
REMARK    5  A    between atoms: C_15  and  N_16
REMARK                            x       y       z     vdW  Elec       q    Type
REMARK                         _______ _______ _______ _____ _____    ______ ____
ROOT
ATOM      1  C   UNL     1       6.035   4.136  17.732  0.00  0.00    +0.000 C 
ATOM      2  O   UNL     1       7.053   4.257  18.390  0.00  0.00    +0.000 OA
ATOM      3  N   UNL     1       4.840   3.734  18.338  0.00  0.00    +0.000 N 
ATOM      4  C   UNL     1       4.799   3.576  19.778  0.00  0.00    +0.000 C 
ATOM      5  C   UNL     1       3.426   2.968  20.104  0.00  0.00    +0.000 C 
ATOM      6  C   UNL     1       2.501   3.895  20.868  0.00  0.00    +0.000 C 
ATOM      7  N   UNL     1       1.805   4.640  19.854  0.00  0.00    +0.000 N 
ATOM      8  C   UNL     1       1.820   3.981  18.628  0.00  0.00    +0.000 C 
ATOM      9  O   UNL     1       1.183   4.267  17.629  0.00  0.00    +0.000 OA
ATOM     10  C   UNL     1       2.743   2.780  18.743  0.00  0.00    +0.000 C 
ATOM     11  C   UNL     1       3.883   2.815  17.742  0.00  0.00    +0.000 C 
ENDROOT
BRANCH   1  17
ATOM     12  C   UNL     1       4.978   6.777  16.248  0.00  0.00    +0.000 C 
ATOM     13  N   UNL     1       5.487   5.559  15.655  0.00  0.00    +0.000 N 
ATOM     14  C   UNL     1       5.660   5.445  14.295  0.00  0.00    +0.000 A 
ATOM     15  C   UNL     1       6.223   4.225  14.030  0.00  0.00    +0.000 A 
ATOM     16  C   UNL     1       6.372   3.575  15.269  0.00  0.00    +0.000 A 
ATOM     17  C   UNL     1       5.968   4.423  16.290  0.00  0.00    +0.000 A 
ENDBRANCH   1  17
BRANCH   7  18
ATOM     18  C   UNL     1       0.871   5.705  20.222  0.00  0.00    +0.000 C 
BRANCH  18  19
ATOM     19  C   UNL     1       1.525   6.945  20.874  0.00  0.00    +0.000 C 
BRANCH  19  20
ATOM     20  N   UNL     1       1.968   8.023  19.974  0.00  0.00    +0.000 NA
ATOM     21  C   UNL     1       2.170   7.614  18.586  0.00  0.00    +0.000 C 
ATOM     22  C   UNL     1       2.140   8.939  17.846  0.00  0.00    +0.000 C 
ATOM     23  C   UNL     1       1.054   9.724  18.559  0.00  0.00    +0.000 C 
ATOM     24  C   UNL     1       0.972   9.107  19.948  0.00  0.00    +0.000 C 
ENDBRANCH  19  20
ENDBRANCH  18  19
ENDBRANCH   7  18
TORSDOF 4
ENDMDL
MODEL 4
REMARK VINA RESULT:      -6.7      3.819      7.088
REMARK  Name = 
REMARK  5 active torsions:
REMARK  status: ('A' for Active; 'I' for Inactive)
REMARK    1  A    between atoms: C_1  and  N_2
REMARK    2  A    between atoms: C_6  and  C_7
REMARK    3  A    between atoms: N_13  and  C_14
REMARK    4  A    between atoms: C_14  and  C_15
REMARK    5  A    between atoms: C_15  and  N_16
REMARK                            x       y       z     vdW  Elec       q    Type
REMARK                         _______ _______ _______ _____ _____    ______ ____
ROOT
ATOM      1  C   UNL     1       5.169   4.094  18.632  0.00  0.00    +0.000 C 
ATOM      2  O   UNL     1       5.611   3.332  19.473  0.00  0.00    +0.000 OA
ATOM      3  N   UNL     1       3.898   4.660  18.785  0.00  0.00    +0.000 N 
ATOM      4  C   UNL     1       3.163   4.422  20.012  0.00  0.00    +0.000 C 
ATOM      5  C   UNL     1       1.765   5.021  19.797  0.00  0.00    +0.000 C 
ATOM      6  C   UNL     1       1.466   6.231  20.661  0.00  0.00    +0.000 C 
ATOM      7  N   UNL     1       1.941   7.355  19.900  0.00  0.00    +0.000 N 
ATOM      8  C   UNL     1       2.036   7.055  18.544  0.00  0.00    +0.000 C 
ATOM      9  O   UNL     1       2.241   7.835  17.629  0.00  0.00    +0.000 OA
ATOM     10  C   UNL     1       1.784   5.569  18.364  0.00  0.00    +0.000 C 
ATOM     11  C   UNL     1       2.945   4.850  17.702  0.00  0.00    +0.000 C 
ENDROOT
BRANCH   1  17
ATOM     12  C   UNL     1       7.427   6.352  18.330  0.00  0.00    +0.000 C 
ATOM     13  N   UNL     1       6.879   5.492  17.305  0.00  0.00    +0.000 N 
ATOM     14  C   UNL     1       7.376   5.502  16.023  0.00  0.00    +0.000 A 
ATOM     15  C   UNL     1       6.724   4.540  15.297  0.00  0.00    +0.000 A 
ATOM     16  C   UNL     1       5.789   3.948  16.165  0.00  0.00    +0.000 A 
ATOM     17  C   UNL     1       5.920   4.497  17.432  0.00  0.00    +0.000 A 
ENDBRANCH   1  17
BRANCH   7  18
ATOM     18  C   UNL     1       1.894   8.706  20.459  0.00  0.00    +0.000 C 
BRANCH  18  19
ATOM     19  C   UNL     1       1.370   8.788  21.912  0.00  0.00    +0.000 C 
BRANCH  19  20
ATOM     20  N   UNL     1       0.780  10.067  22.343  0.00  0.00    +0.000 NA
ATOM     21  C   UNL     1       0.247  10.888  21.259  0.00  0.00    +0.000 C 
ATOM     22  C   UNL     1      -0.678  11.841  21.994  0.00  0.00    +0.000 C 
ATOM     23  C   UNL     1      -1.317  10.971  23.060  0.00  0.00    +0.000 C 
ATOM     24  C   UNL     1      -0.337   9.826  23.272  0.00  0.00    +0.000 C 
ENDBRANCH  19  20
ENDBRANCH  18  19
ENDBRANCH   7  18
TORSDOF 4
ENDMDL
MODEL 5
REMARK VINA RESULT:      -6.7      4.039      7.180
REMARK  Name = 
REMARK  5 active torsions:
REMARK  status: ('A' for Active; 'I' for Inactive)
REMARK    1  A    between atoms: C_1  and  N_2
REMARK    2  A    between atoms: C_6  and  C_7
REMARK    3  A    between atoms: N_13  and  C_14
REMARK    4  A    between atoms: C_14  and  C_15
REMARK    5  A    between atoms: C_15  and  N_16
REMARK                            x       y       z     vdW  Elec       q    Type
REMARK                         _______ _______ _______ _____ _____    ______ ____
ROOT
ATOM      1  C   UNL     1       5.220   4.226  18.856  0.00  0.00    +0.000 C 
ATOM      2  O   UNL     1       5.533   3.238  19.495  0.00  0.00    +0.000 OA
ATOM      3  N   UNL     1       3.927   4.754  18.954  0.00  0.00    +0.000 N 
ATOM      4  C   UNL     1       3.003   4.181  19.912  0.00  0.00    +0.000 C 
ATOM      5  C   UNL     1       1.646   4.852  19.652  0.00  0.00    +0.000 C 
ATOM      6  C   UNL     1       1.174   5.757  20.773  0.00  0.00    +0.000 C 
ATOM      7  N   UNL     1       1.741   7.044  20.474  0.00  0.00    +0.000 N 
ATOM      8  C   UNL     1       2.071   7.160  19.126  0.00  0.00    +0.000 C 
ATOM      9  O   UNL     1       2.408   8.171  18.534  0.00  0.00    +0.000 OA
ATOM     10  C   UNL     1       1.892   5.802  18.472  0.00  0.00    +0.000 C 
ATOM     11  C   UNL     1       3.166   5.282  17.832  0.00  0.00    +0.000 C 
ENDROOT
BRANCH   1  17
ATOM     12  C   UNL     1       5.871   3.717  15.757  0.00  0.00    +0.000 C 
ATOM     13  N   UNL     1       6.446   4.706  16.642  0.00  0.00    +0.000 N 
ATOM     14  C   UNL     1       7.331   5.651  16.178  0.00  0.00    +0.000 A 
ATOM     15  C   UNL     1       7.646   6.495  17.210  0.00  0.00    +0.000 A 
ATOM     16  C   UNL     1       6.946   6.028  18.337  0.00  0.00    +0.000 A 
ATOM     17  C   UNL     1       6.152   4.948  17.976  0.00  0.00    +0.000 A 
ENDBRANCH   1  17
BRANCH   7  18
ATOM     18  C   UNL     1       1.565   8.169  21.393  0.00  0.00    +0.000 C 
BRANCH  18  19
ATOM     19  C   UNL     1       0.189   8.869  21.303  0.00  0.00    +0.000 C 
BRANCH  19  20
ATOM     20  N   UNL     1       0.077  10.210  21.903  0.00  0.00    +0.000 NA
ATOM     21  C   UNL     1      -0.473  11.231  21.014  0.00  0.00    +0.000 C 
ATOM     22  C   UNL     1      -0.908  12.312  21.987  0.00  0.00    +0.000 C 
ATOM     23  C   UNL     1      -1.470  11.533  23.162  0.00  0.00    +0.000 C 
ATOM     24  C   UNL     1      -0.801  10.168  23.084  0.00  0.00    +0.000 C 
ENDBRANCH  19  20
ENDBRANCH  18  19
ENDBRANCH   7  18
TORSDOF 4
ENDMDL
MODEL 6
REMARK VINA RESULT:      -6.6      3.825      6.795
REMARK  Name = 
REMARK  5 active torsions:
REMARK  status: ('A' for Active; 'I' for Inactive)
REMARK    1  A    between atoms: C_1  and  N_2
REMARK    2  A    between atoms: C_6  and  C_7
REMARK    3  A    between atoms: N_13  and  C_14
REMARK    4  A    between atoms: C_14  and  C_15
REMARK    5  A    between atoms: C_15  and  N_16
REMARK                            x       y       z     vdW  Elec       q    Type
REMARK                         _______ _______ _______ _____ _____    ______ ____
ROOT
ATOM      1  C   UNL     1       5.216   4.407  18.912  0.00  0.00    +0.000 C 
ATOM      2  O   UNL     1       5.543   3.442  19.579  0.00  0.00    +0.000 OA
ATOM      3  N   UNL     1       3.921   4.930  19.007  0.00  0.00    +0.000 N 
ATOM      4  C   UNL     1       3.012   4.384  19.994  0.00  0.00    +0.000 C 
ATOM      5  C   UNL     1       1.648   5.038  19.728  0.00  0.00    +0.000 C 
ATOM      6  C   UNL     1       1.184   5.977  20.825  0.00  0.00    +0.000 C 
ATOM      7  N   UNL     1       1.740   7.257  20.476  0.00  0.00    +0.000 N 
ATOM      8  C   UNL     1       2.053   7.329  19.121  0.00  0.00    +0.000 C 
ATOM      9  O   UNL     1       2.376   8.322  18.491  0.00  0.00    +0.000 OA
ATOM     10  C   UNL     1       1.874   5.949  18.515  0.00  0.00    +0.000 C 
ATOM     11  C   UNL     1       3.144   5.416  17.878  0.00  0.00    +0.000 C 
ENDROOT
BRANCH   1  17
ATOM     12  C   UNL     1       5.841   3.792  15.826  0.00  0.00    +0.000 C 
ATOM     13  N   UNL     1       6.416   4.817  16.669  0.00  0.00    +0.000 N 
ATOM     14  C   UNL     1       7.289   5.752  16.162  0.00  0.00    +0.000 A 
ATOM     15  C   UNL     1       7.607   6.635  17.161  0.00  0.00    +0.000 A 
ATOM     16  C   UNL     1       6.921   6.202  18.311  0.00  0.00    +0.000 A 
ATOM     17  C   UNL     1       6.134   5.104  17.997  0.00  0.00    +0.000 A 
ENDBRANCH   1  17
BRANCH   7  18
ATOM     18  C   UNL     1       1.567   8.410  21.359  0.00  0.00    +0.000 C 
BRANCH  18  19
ATOM     19  C   UNL     1       0.111   8.913  21.491  0.00  0.00    +0.000 C 
BRANCH  19  20
ATOM     20  N   UNL     1      -0.209  10.216  20.884  0.00  0.00    +0.000 NA
ATOM     21  C   UNL     1       0.891  11.178  20.893  0.00  0.00    +0.000 C 
ATOM     22  C   UNL     1       0.461  12.177  19.833  0.00  0.00    +0.000 C 
ATOM     23  C   UNL     1      -0.165  11.310  18.756  0.00  0.00    +0.000 C 
ATOM     24  C   UNL     1      -0.600  10.042  19.476  0.00  0.00    +0.000 C 
ENDBRANCH  19  20
ENDBRANCH  18  19
ENDBRANCH   7  18
TORSDOF 4
ENDMDL
MODEL 7
REMARK VINA RESULT:      -6.4      5.127      7.539
REMARK  Name = 
REMARK  5 active torsions:
REMARK  status: ('A' for Active; 'I' for Inactive)
REMARK    1  A    between atoms: C_1  and  N_2
REMARK    2  A    between atoms: C_6  and  C_7
REMARK    3  A    between atoms: N_13  and  C_14
REMARK    4  A    between atoms: C_14  and  C_15
REMARK    5  A    between atoms: C_15  and  N_16
REMARK                            x       y       z     vdW  Elec       q    Type
REMARK                         _______ _______ _______ _____ _____    ______ ____
ROOT
ATOM      1  C   UNL     1       1.931   4.530  18.434  0.00  0.00    +0.000 C 
ATOM      2  O   UNL     1       1.734   4.061  17.328  0.00  0.00    +0.000 OA
ATOM      3  N   UNL     1       2.117   5.907  18.599  0.00  0.00    +0.000 N 
ATOM      4  C   UNL     1       1.954   6.782  17.455  0.00  0.00    +0.000 C 
ATOM      5  C   UNL     1       2.390   8.180  17.919  0.00  0.00    +0.000 C 
ATOM      6  C   UNL     1       1.263   9.192  17.986  0.00  0.00    +0.000 C 
ATOM      7  N   UNL     1       0.714   9.048  19.307  0.00  0.00    +0.000 N 
ATOM      8  C   UNL     1       1.625   8.460  20.181  0.00  0.00    +0.000 C 
ATOM      9  O   UNL     1       1.525   8.358  21.392  0.00  0.00    +0.000 OA
ATOM     10  C   UNL     1       2.827   7.996  19.378  0.00  0.00    +0.000 C 
ATOM     11  C   UNL     1       3.083   6.505  19.508  0.00  0.00    +0.000 C 
ENDROOT
BRANCH   1  17
ATOM     12  C   UNL     1       4.360   2.842  19.675  0.00  0.00    +0.000 C 
ATOM     13  N   UNL     1       3.011   2.971  20.179  0.00  0.00    +0.000 N 
ATOM     14  C   UNL     1       2.639   2.409  21.378  0.00  0.00    +0.000 A 
ATOM     15  C   UNL     1       1.339   2.756  21.635  0.00  0.00    +0.000 A 
ATOM     16  C   UNL     1       0.908   3.533  20.544  0.00  0.00    +0.000 A 
ATOM     17  C   UNL     1       1.962   3.718  19.662  0.00  0.00    +0.000 A 
ENDBRANCH   1  17
BRANCH   7  18
ATOM     18  C   UNL     1      -0.460   9.819  19.715  0.00  0.00    +0.000 C 
BRANCH  18  19
ATOM     19  C   UNL     1      -1.022  10.765  18.629  0.00  0.00    +0.000 C 
BRANCH  19  20
ATOM     20  N   UNL     1      -2.341  10.432  18.063  0.00  0.00    +0.000 NA
ATOM     21  C   UNL     1      -3.304  11.530  18.076  0.00  0.00    +0.000 C 
ATOM     22  C   UNL     1      -4.330  11.079  17.053  0.00  0.00    +0.000 C 
ATOM     23  C   UNL     1      -3.492  10.433  15.965  0.00  0.00    +0.000 C 
ATOM     24  C   UNL     1      -2.203  10.015  16.659  0.00  0.00    +0.000 C 
ENDBRANCH  19  20
ENDBRANCH  18  19
ENDBRANCH   7  18
TORSDOF 4
ENDMDL
MODEL 8
REMARK VINA RESULT:      -6.4      3.888      6.805
REMARK  Name = 
REMARK  5 active torsions:
REMARK  status: ('A' for Active; 'I' for Inactive)
REMARK    1  A    between atoms: C_1  and  N_2
REMARK    2  A    between atoms: C_6  and  C_7
REMARK    3  A    between atoms: N_13  and  C_14
REMARK    4  A    between atoms: C_14  and  C_15
REMARK    5  A    between atoms: C_15  and  N_16
REMARK                            x       y       z     vdW  Elec       q    Type
REMARK                         _______ _______ _______ _____ _____    ______ ____
ROOT
ATOM      1  C   UNL     1       6.031   4.157  17.851  0.00  0.00    +0.000 C 
ATOM      2  O   UNL     1       7.058   4.212  18.504  0.00  0.00    +0.000 OA
ATOM      3  N   UNL     1       4.827   3.772  18.452  0.00  0.00    +0.000 N 
ATOM      4  C   UNL     1       4.793   3.554  19.885  0.00  0.00    +0.000 C 
ATOM      5  C   UNL     1       3.402   2.983  20.198  0.00  0.00    +0.000 C 
ATOM      6  C   UNL     1       2.518   3.909  21.011  0.00  0.00    +0.000 C 
ATOM      7  N   UNL     1       1.841   4.723  20.038  0.00  0.00    +0.000 N 
ATOM      8  C   UNL     1       1.821   4.117  18.784  0.00  0.00    +0.000 C 
ATOM      9  O   UNL     1       1.186   4.469  17.805  0.00  0.00    +0.000 OA
ATOM     10  C   UNL     1       2.700   2.880  18.838  0.00  0.00    +0.000 C 
ATOM     11  C   UNL     1       3.831   2.916  17.828  0.00  0.00    +0.000 C 
ENDROOT
BRANCH   1  17
ATOM     12  C   UNL     1       4.872   6.817  16.483  0.00  0.00    +0.000 C 
ATOM     13  N   UNL     1       5.436   5.652  15.838  0.00  0.00    +0.000 N 
ATOM     14  C   UNL     1       5.623   5.609  14.476  0.00  0.00    +0.000 A 
ATOM     15  C   UNL     1       6.240   4.428  14.160  0.00  0.00    +0.000 A 
ATOM     16  C   UNL     1       6.408   3.727  15.368  0.00  0.00    +0.000 A 
ATOM     17  C   UNL     1       5.962   4.509  16.424  0.00  0.00    +0.000 A 
ENDBRANCH   1  17
BRANCH   7  18
ATOM     18  C   UNL     1       0.950   5.803  20.461  0.00  0.00    +0.000 C 
BRANCH  18  19
ATOM     19  C   UNL     1       1.651   7.156  20.723  0.00  0.00    +0.000 C 
BRANCH  19  20
ATOM     20  N   UNL     1       0.789   8.329  20.944  0.00  0.00    +0.000 NA
ATOM     21  C   UNL     1       1.055   9.056  22.184  0.00  0.00    +0.000 C 
ATOM     22  C   UNL     1       0.405  10.402  21.921  0.00  0.00    +0.000 C 
ATOM     23  C   UNL     1       0.716  10.672  20.460  0.00  0.00    +0.000 C 
ATOM     24  C   UNL     1       0.954   9.298  19.849  0.00  0.00    +0.000 C 
ENDBRANCH  19  20
ENDBRANCH  18  19
ENDBRANCH   7  18
TORSDOF 4
ENDMDL
MODEL 9
REMARK VINA RESULT:      -6.3      3.967      7.525
REMARK  Name = 
REMARK  5 active torsions:
REMARK  status: ('A' for Active; 'I' for Inactive)
REMARK    1  A    between atoms: C_1  and  N_2
REMARK    2  A    between atoms: C_6  and  C_7
REMARK    3  A    between atoms: N_13  and  C_14
REMARK    4  A    between atoms: C_14  and  C_15
REMARK    5  A    between atoms: C_15  and  N_16
REMARK                            x       y       z     vdW  Elec       q    Type
REMARK                         _______ _______ _______ _____ _____    ______ ____
ROOT
ATOM      1  C   UNL     1       6.713   4.618  13.630  0.00  0.00    +0.000 C 
ATOM      2  O   UNL     1       7.620   5.365  13.311  0.00  0.00    +0.000 OA
ATOM      3  N   UNL     1       6.330   4.499  14.971  0.00  0.00    +0.000 N 
ATOM      4  C   UNL     1       6.945   5.363  15.959  0.00  0.00    +0.000 C 
ATOM      5  C   UNL     1       6.448   4.871  17.327  0.00  0.00    +0.000 C 
ATOM      6  C   UNL     1       5.537   5.847  18.045  0.00  0.00    +0.000 C 
ATOM      7  N   UNL     1       4.215   5.532  17.577  0.00  0.00    +0.000 N 
ATOM      8  C   UNL     1       4.143   4.236  17.071  0.00  0.00    +0.000 C 
ATOM      9  O   UNL     1       3.138   3.621  16.760  0.00  0.00    +0.000 OA
ATOM     10  C   UNL     1       5.550   3.668  17.013  0.00  0.00    +0.000 C 
ATOM     11  C   UNL     1       5.959   3.248  15.614  0.00  0.00    +0.000 C 
ENDROOT
BRANCH   1  17
ATOM     12  C   UNL     1       7.740   2.314  11.649  0.00  0.00    +0.000 C 
ATOM     13  N   UNL     1       6.401   2.842  11.790  0.00  0.00    +0.000 N 
ATOM     14  C   UNL     1       5.343   2.303  11.095  0.00  0.00    +0.000 A 
ATOM     15  C   UNL     1       4.197   2.945  11.482  0.00  0.00    +0.000 A 
ATOM     16  C   UNL     1       4.581   3.919  12.422  0.00  0.00    +0.000 A 
ATOM     17  C   UNL     1       5.945   3.821  12.661  0.00  0.00    +0.000 A 
ENDBRANCH   1  17
BRANCH   7  18
ATOM     18  C   UNL     1       3.064   6.332  17.999  0.00  0.00    +0.000 C 
BRANCH  18  19
ATOM     19  C   UNL     1       2.608   6.092  19.457  0.00  0.00    +0.000 C 
BRANCH  19  20
ATOM     20  N   UNL     1       2.498   4.693  19.906  0.00  0.00    +0.000 NA
ATOM     21  C   UNL     1       2.486   4.518  21.356  0.00  0.00    +0.000 C 
ATOM     22  C   UNL     1       1.901   3.126  21.513  0.00  0.00    +0.000 C 
ATOM     23  C   UNL     1       0.829   3.064  20.441  0.00  0.00    +0.000 C 
ATOM     24  C   UNL     1       1.252   4.093  19.402  0.00  0.00    +0.000 C 
ENDBRANCH  19  20
ENDBRANCH  18  19
ENDBRANCH   7  18
TORSDOF 4
ENDMDL
