MODEL 1
REMARK VINA RESULT:      -7.0      0.000      0.000
REMARK  Name = 
REMARK  8 active torsions:
REMARK  status: ('A' for Active; 'I' for Inactive)
REMARK    1  A    between atoms: C_1  and  C_2
REMARK    2  A    between atoms: C_2  and  C_3
REMARK    3  A    between atoms: C_3  and  C_4
REMARK    4  A    between atoms: C_4  and  N_5
REMARK    5  A    between atoms: C_6  and  S_7
REMARK    6  A    between atoms: N_8  and  N_9
REMARK    7  A    between atoms: C_10  and  C_12
REMARK    8  A    between atoms: C_13  and  C_14
REMARK                            x       y       z     vdW  Elec       q    Type
REMARK                         _______ _______ _______ _____ _____    ______ ____
ROOT
ATOM      1  N   UNL     1       2.603   6.752  20.017  0.00  0.00    +0.000 N 
ATOM      2  C   UNL     1       2.876   5.395  20.047  0.00  0.00    +0.000 C 
ATOM      3  O   UNL     1       2.593   4.711  21.031  0.00  0.00    +0.000 OA
ATOM      4  H   UNL     1       2.609   7.306  19.163  0.00  0.00    +0.000 HD
ENDROOT
BRANCH   2   5
ATOM      5  C   UNL     1       3.482   4.864  18.850  0.00  0.00    +0.000 A 
ATOM      6  C   UNL     1       2.913   4.227  17.752  0.00  0.00    +0.000 A 
ATOM      7  C   UNL     1       1.497   3.906  17.434  0.00  0.00    +0.000 C 
ATOM      8  N   UNL     1       3.868   3.888  16.823  0.00  0.00    +0.000 NA
ATOM      9  C   UNL     1       5.007   4.324  17.309  0.00  0.00    +0.000 A 
ATOM     10  C   UNL     1       6.326   4.253  16.778  0.00  0.00    +0.000 A 
ATOM     11  C   UNL     1       7.360   4.762  17.475  0.00  0.00    +0.000 A 
ATOM     12  C   UNL     1       7.155   5.397  18.766  0.00  0.00    +0.000 A 
ATOM     13  C   UNL     1       5.910   5.474  19.268  0.00  0.00    +0.000 A 
ATOM     14  N   UNL     1       4.835   4.943  18.545  0.00  0.00    +0.000 N 
ENDBRANCH   2   5
BRANCH   1  17
ATOM     15  N   UNL     1       1.138   9.031  19.686  0.00  0.00    +0.000 NA
ATOM     16  C   UNL     1       1.279   8.524  20.864  0.00  0.00    +0.000 C 
ATOM     17  N   UNL     1       1.881   7.307  21.078  0.00  0.00    +0.000 N 
ATOM     18  H   UNL     1       2.248   7.115  22.010  0.00  0.00    +0.000 HD
BRANCH  16  19
ATOM     19  S   UNL     1       0.729   9.248  22.366  0.00  0.00    +0.000 S 
ATOM     20  H   UNL     1       0.764   8.161  23.141  0.00  0.00    +0.000 HD
ENDBRANCH  16  19
BRANCH  15  21
ATOM     21  C   UNL     1       0.447  10.296  19.459  0.00  0.00    +0.000 C 
BRANCH  21  22
ATOM     22  C   UNL     1      -0.329  10.227  18.142  0.00  0.00    +0.000 C 
BRANCH  22  24
ATOM     23  C   UNL     1      -2.608   9.851  17.119  0.00  0.00    +0.000 C 
ATOM     24  C   UNL     1      -1.844  10.305  18.351  0.00  0.00    +0.000 C 
ENDBRANCH  22  24
ENDBRANCH  21  22
ENDBRANCH  15  21
ENDBRANCH   1  17
TORSDOF 6
ENDMDL
MODEL 2
REMARK VINA RESULT:      -6.9      5.484      7.677
REMARK  Name = 
REMARK  8 active torsions:
REMARK  status: ('A' for Active; 'I' for Inactive)
REMARK    1  A    between atoms: C_1  and  C_2
REMARK    2  A    between atoms: C_2  and  C_3
REMARK    3  A    between atoms: C_3  and  C_4
REMARK    4  A    between atoms: C_4  and  N_5
REMARK    5  A    between atoms: C_6  and  S_7
REMARK    6  A    between atoms: N_8  and  N_9
REMARK    7  A    between atoms: C_10  and  C_12
REMARK    8  A    between atoms: C_13  and  C_14
REMARK                            x       y       z     vdW  Elec       q    Type
REMARK                         _______ _______ _______ _____ _____    ______ ____
ROOT
ATOM      1  N   UNL     1       7.223   5.068  15.601  0.00  0.00    +0.000 N 
ATOM      2  C   UNL     1       6.218   5.682  16.329  0.00  0.00    +0.000 C 
ATOM      3  O   UNL     1       5.633   6.674  15.892  0.00  0.00    +0.000 OA
ATOM      4  H   UNL     1       7.575   4.136  15.807  0.00  0.00    +0.000 HD
ENDROOT
BRANCH   2   5
ATOM      5  C   UNL     1       5.910   5.062  17.594  0.00  0.00    +0.000 A 
ATOM      6  C   UNL     1       6.560   5.138  18.823  0.00  0.00    +0.000 A 
ATOM      7  C   UNL     1       7.764   5.899  19.246  0.00  0.00    +0.000 C 
ATOM      8  N   UNL     1       5.915   4.384  19.774  0.00  0.00    +0.000 NA
ATOM      9  C   UNL     1       4.870   3.868  19.170  0.00  0.00    +0.000 A 
ATOM     10  C   UNL     1       3.849   3.008  19.663  0.00  0.00    +0.000 A 
ATOM     11  C   UNL     1       2.869   2.584  18.840  0.00  0.00    +0.000 A 
ATOM     12  C   UNL     1       2.828   2.999  17.448  0.00  0.00    +0.000 A 
ATOM     13  C   UNL     1       3.786   3.818  16.979  0.00  0.00    +0.000 A 
ATOM     14  N   UNL     1       4.805   4.256  17.833  0.00  0.00    +0.000 N 
ENDBRANCH   2   5
BRANCH   1  17
ATOM     15  N   UNL     1       6.239   3.738  13.429  0.00  0.00    +0.000 NA
ATOM     16  C   UNL     1       7.056   4.723  13.263  0.00  0.00    +0.000 C 
ATOM     17  N   UNL     1       7.473   5.521  14.302  0.00  0.00    +0.000 N 
ATOM     18  H   UNL     1       8.336   6.050  14.178  0.00  0.00    +0.000 HD
BRANCH  16  19
ATOM     19  S   UNL     1       7.749   5.235  11.733  0.00  0.00    +0.000 S 
ATOM     20  H   UNL     1       7.520   6.546  11.834  0.00  0.00    +0.000 HD
ENDBRANCH  16  19
BRANCH  15  21
ATOM     21  C   UNL     1       5.753   2.931  12.316  0.00  0.00    +0.000 C 
BRANCH  21  22
ATOM     22  C   UNL     1       4.348   3.393  11.922  0.00  0.00    +0.000 C 
BRANCH  22  24
ATOM     23  C   UNL     1       2.827   3.634   9.920  0.00  0.00    +0.000 C 
ATOM     24  C   UNL     1       4.248   3.765  10.441  0.00  0.00    +0.000 C 
ENDBRANCH  22  24
ENDBRANCH  21  22
ENDBRANCH  15  21
ENDBRANCH   1  17
TORSDOF 6
ENDMDL
MODEL 3
REMARK VINA RESULT:      -6.7      1.034      1.112
REMARK  Name = 
REMARK  8 active torsions:
REMARK  status: ('A' for Active; 'I' for Inactive)
REMARK    1  A    between atoms: C_1  and  C_2
REMARK    2  A    between atoms: C_2  and  C_3
REMARK    3  A    between atoms: C_3  and  C_4
REMARK    4  A    between atoms: C_4  and  N_5
REMARK    5  A    between atoms: C_6  and  S_7
REMARK    6  A    between atoms: N_8  and  N_9
REMARK    7  A    between atoms: C_10  and  C_12
REMARK    8  A    between atoms: C_13  and  C_14
REMARK                            x       y       z     vdW  Elec       q    Type
REMARK                         _______ _______ _______ _____ _____    ______ ____
ROOT
ATOM      1  N   UNL     1       2.199   6.565  20.065  0.00  0.00    +0.000 N 
ATOM      2  C   UNL     1       2.441   5.209  20.209  0.00  0.00    +0.000 C 
ATOM      3  O   UNL     1       2.322   4.655  21.301  0.00  0.00    +0.000 OA
ATOM      4  H   UNL     1       2.065   7.018  19.164  0.00  0.00    +0.000 HD
ENDROOT
BRANCH   2   5
ATOM      5  C   UNL     1       2.810   4.520  18.996  0.00  0.00    +0.000 A 
ATOM      6  C   UNL     1       2.217   3.438  18.352  0.00  0.00    +0.000 A 
ATOM      7  C   UNL     1       0.999   2.653  18.681  0.00  0.00    +0.000 C 
ATOM      8  N   UNL     1       2.902   3.104  17.208  0.00  0.00    +0.000 NA
ATOM      9  C   UNL     1       3.884   3.970  17.117  0.00  0.00    +0.000 A 
ATOM     10  C   UNL     1       4.908   4.105  16.137  0.00  0.00    +0.000 A 
ATOM     11  C   UNL     1       5.836   5.074  16.262  0.00  0.00    +0.000 A 
ATOM     12  C   UNL     1       5.808   5.999  17.383  0.00  0.00    +0.000 A 
ATOM     13  C   UNL     1       4.838   5.880  18.307  0.00  0.00    +0.000 A 
ATOM     14  N   UNL     1       3.876   4.872  18.178  0.00  0.00    +0.000 N 
ENDBRANCH   2   5
BRANCH   1  17
ATOM     15  N   UNL     1       1.071   9.032  19.761  0.00  0.00    +0.000 NA
ATOM     16  C   UNL     1       1.263   8.555  20.945  0.00  0.00    +0.000 C 
ATOM     17  N   UNL     1       1.692   7.268  21.163  0.00  0.00    +0.000 N 
ATOM     18  H   UNL     1       2.127   7.056  22.061  0.00  0.00    +0.000 HD
BRANCH  16  19
ATOM     19  S   UNL     1       1.000   9.415  22.453  0.00  0.00    +0.000 S 
ATOM     20  H   UNL     1       2.194  10.001  22.565  0.00  0.00    +0.000 HD
ENDBRANCH  16  19
BRANCH  15  21
ATOM     21  C   UNL     1       0.561  10.380  19.537  0.00  0.00    +0.000 C 
BRANCH  21  22
ATOM     22  C   UNL     1      -0.917  10.310  19.145  0.00  0.00    +0.000 C 
BRANCH  22  24
ATOM     23  C   UNL     1      -2.434  10.503  17.135  0.00  0.00    +0.000 C 
ATOM     24  C   UNL     1      -1.115   9.968  17.666  0.00  0.00    +0.000 C 
ENDBRANCH  22  24
ENDBRANCH  21  22
ENDBRANCH  15  21
ENDBRANCH   1  17
TORSDOF 6
ENDMDL
MODEL 4
REMARK VINA RESULT:      -6.6      4.348      7.121
REMARK  Name = 
REMARK  8 active torsions:
REMARK  status: ('A' for Active; 'I' for Inactive)
REMARK    1  A    between atoms: C_1  and  C_2
REMARK    2  A    between atoms: C_2  and  C_3
REMARK    3  A    between atoms: C_3  and  C_4
REMARK    4  A    between atoms: C_4  and  N_5
REMARK    5  A    between atoms: C_6  and  S_7
REMARK    6  A    between atoms: N_8  and  N_9
REMARK    7  A    between atoms: C_10  and  C_12
REMARK    8  A    between atoms: C_13  and  C_14
REMARK                            x       y       z     vdW  Elec       q    Type
REMARK                         _______ _______ _______ _____ _____    ______ ____
ROOT
ATOM      1  N   UNL     1       5.032   5.740  16.062  0.00  0.00    +0.000 N 
ATOM      2  C   UNL     1       5.315   5.776  17.417  0.00  0.00    +0.000 C 
ATOM      3  O   UNL     1       6.471   5.891  17.821  0.00  0.00    +0.000 OA
ATOM      4  H   UNL     1       4.097   5.872  15.681  0.00  0.00    +0.000 HD
ENDROOT
BRANCH   2   5
ATOM      5  C   UNL     1       4.166   5.695  18.286  0.00  0.00    +0.000 A 
ATOM      6  C   UNL     1       3.134   6.602  18.511  0.00  0.00    +0.000 A 
ATOM      7  C   UNL     1       2.858   7.935  17.916  0.00  0.00    +0.000 C 
ATOM      8  N   UNL     1       2.233   6.112  19.426  0.00  0.00    +0.000 NA
ATOM      9  C   UNL     1       2.668   4.917  19.749  0.00  0.00    +0.000 A 
ATOM     10  C   UNL     1       2.136   3.951  20.650  0.00  0.00    +0.000 A 
ATOM     11  C   UNL     1       2.776   2.781  20.838  0.00  0.00    +0.000 A 
ATOM     12  C   UNL     1       4.006   2.476  20.126  0.00  0.00    +0.000 A 
ATOM     13  C   UNL     1       4.509   3.381  19.268  0.00  0.00    +0.000 A 
ATOM     14  N   UNL     1       3.845   4.598  19.075  0.00  0.00    +0.000 N 
ENDBRANCH   2   5
BRANCH   1  17
ATOM     15  N   UNL     1       5.402   4.115  13.900  0.00  0.00    +0.000 NA
ATOM     16  C   UNL     1       6.273   5.026  14.175  0.00  0.00    +0.000 C 
ATOM     17  N   UNL     1       6.076   5.965  15.159  0.00  0.00    +0.000 N 
ATOM     18  H   UNL     1       6.897   6.432  15.543  0.00  0.00    +0.000 HD
BRANCH  16  19
ATOM     19  S   UNL     1       7.813   5.254  13.361  0.00  0.00    +0.000 S 
ATOM     20  H   UNL     1       8.061   6.509  13.742  0.00  0.00    +0.000 HD
ENDBRANCH  16  19
BRANCH  15  21
ATOM     21  C   UNL     1       5.591   3.157  12.816  0.00  0.00    +0.000 C 
BRANCH  21  22
ATOM     22  C   UNL     1       5.020   3.733  11.518  0.00  0.00    +0.000 C 
BRANCH  22  24
ATOM     23  C   UNL     1       3.081   3.736   9.899  0.00  0.00    +0.000 C 
ATOM     24  C   UNL     1       3.708   3.060  11.107  0.00  0.00    +0.000 C 
ENDBRANCH  22  24
ENDBRANCH  21  22
ENDBRANCH  15  21
ENDBRANCH   1  17
TORSDOF 6
ENDMDL
MODEL 5
REMARK VINA RESULT:      -6.6      5.468      8.260
REMARK  Name = 
REMARK  8 active torsions:
REMARK  status: ('A' for Active; 'I' for Inactive)
REMARK    1  A    between atoms: C_1  and  C_2
REMARK    2  A    between atoms: C_2  and  C_3
REMARK    3  A    between atoms: C_3  and  C_4
REMARK    4  A    between atoms: C_4  and  N_5
REMARK    5  A    between atoms: C_6  and  S_7
REMARK    6  A    between atoms: N_8  and  N_9
REMARK    7  A    between atoms: C_10  and  C_12
REMARK    8  A    between atoms: C_13  and  C_14
REMARK                            x       y       z     vdW  Elec       q    Type
REMARK                         _______ _______ _______ _____ _____    ______ ____
ROOT
ATOM      1  N   UNL     1       7.248   5.017  15.614  0.00  0.00    +0.000 N 
ATOM      2  C   UNL     1       6.320   5.702  16.379  0.00  0.00    +0.000 C 
ATOM      3  O   UNL     1       5.838   6.767  15.991  0.00  0.00    +0.000 OA
ATOM      4  H   UNL     1       7.502   4.045  15.778  0.00  0.00    +0.000 HD
ENDROOT
BRANCH   2   5
ATOM      5  C   UNL     1       5.959   5.066  17.622  0.00  0.00    +0.000 A 
ATOM      6  C   UNL     1       6.576   5.099  18.870  0.00  0.00    +0.000 A 
ATOM      7  C   UNL     1       7.788   5.818  19.341  0.00  0.00    +0.000 C 
ATOM      8  N   UNL     1       5.884   4.344  19.787  0.00  0.00    +0.000 NA
ATOM      9  C   UNL     1       4.843   3.870  19.143  0.00  0.00    +0.000 A 
ATOM     10  C   UNL     1       3.785   3.029  19.591  0.00  0.00    +0.000 A 
ATOM     11  C   UNL     1       2.818   2.650  18.733  0.00  0.00    +0.000 A 
ATOM     12  C   UNL     1       2.827   3.093  17.349  0.00  0.00    +0.000 A 
ATOM     13  C   UNL     1       3.820   3.894  16.923  0.00  0.00    +0.000 A 
ATOM     14  N   UNL     1       4.826   4.286  17.814  0.00  0.00    +0.000 N 
ENDBRANCH   2   5
BRANCH   1  17
ATOM     15  N   UNL     1       6.135   3.868  13.402  0.00  0.00    +0.000 NA
ATOM     16  C   UNL     1       7.039   4.779  13.266  0.00  0.00    +0.000 C 
ATOM     17  N   UNL     1       7.533   5.495  14.331  0.00  0.00    +0.000 N 
ATOM     18  H   UNL     1       8.441   5.947  14.220  0.00  0.00    +0.000 HD
BRANCH  16  19
ATOM     19  S   UNL     1       7.769   5.284  11.751  0.00  0.00    +0.000 S 
ATOM     20  H   UNL     1       8.395   6.381  12.182  0.00  0.00    +0.000 HD
ENDBRANCH  16  19
BRANCH  15  21
ATOM     21  C   UNL     1       5.572   3.153  12.262  0.00  0.00    +0.000 C 
BRANCH  21  22
ATOM     22  C   UNL     1       6.530   2.039  11.832  0.00  0.00    +0.000 C 
BRANCH  22  24
ATOM     23  C   UNL     1       6.201  -0.424  11.379  0.00  0.00    +0.000 C 
ATOM     24  C   UNL     1       5.849   0.991  10.949  0.00  0.00    +0.000 C 
ENDBRANCH  22  24
ENDBRANCH  21  22
ENDBRANCH  15  21
ENDBRANCH   1  17
TORSDOF 6
ENDMDL
MODEL 6
REMARK VINA RESULT:      -6.5      5.345      7.973
REMARK  Name = 
REMARK  8 active torsions:
REMARK  status: ('A' for Active; 'I' for Inactive)
REMARK    1  A    between atoms: C_1  and  C_2
REMARK    2  A    between atoms: C_2  and  C_3
REMARK    3  A    between atoms: C_3  and  C_4
REMARK    4  A    between atoms: C_4  and  N_5
REMARK    5  A    between atoms: C_6  and  S_7
REMARK    6  A    between atoms: N_8  and  N_9
REMARK    7  A    between atoms: C_10  and  C_12
REMARK    8  A    between atoms: C_13  and  C_14
REMARK                            x       y       z     vdW  Elec       q    Type
REMARK                         _______ _______ _______ _____ _____    ______ ____
ROOT
ATOM      1  N   UNL     1       5.793   4.106  14.512  0.00  0.00    +0.000 N 
ATOM      2  C   UNL     1       6.480   4.611  15.603  0.00  0.00    +0.000 C 
ATOM      3  O   UNL     1       7.704   4.512  15.684  0.00  0.00    +0.000 OA
ATOM      4  H   UNL     1       4.831   4.354  14.291  0.00  0.00    +0.000 HD
ENDROOT
BRANCH   2   5
ATOM      5  C   UNL     1       5.660   5.263  16.595  0.00  0.00    +0.000 A 
ATOM      6  C   UNL     1       5.851   6.458  17.284  0.00  0.00    +0.000 A 
ATOM      7  C   UNL     1       6.940   7.465  17.210  0.00  0.00    +0.000 C 
ATOM      8  N   UNL     1       4.806   6.708  18.142  0.00  0.00    +0.000 NA
ATOM      9  C   UNL     1       3.965   5.714  17.978  0.00  0.00    +0.000 A 
ATOM     10  C   UNL     1       2.713   5.450  18.603  0.00  0.00    +0.000 A 
ATOM     11  C   UNL     1       2.023   4.337  18.284  0.00  0.00    +0.000 A 
ATOM     12  C   UNL     1       2.531   3.397  17.299  0.00  0.00    +0.000 A 
ATOM     13  C   UNL     1       3.709   3.645  16.700  0.00  0.00    +0.000 A 
ATOM     14  N   UNL     1       4.427   4.800  17.034  0.00  0.00    +0.000 N 
ENDBRANCH   2   5
BRANCH   1  17
ATOM     15  N   UNL     1       4.580   3.395  12.171  0.00  0.00    +0.000 NA
ATOM     16  C   UNL     1       5.832   3.138  12.350  0.00  0.00    +0.000 C 
ATOM     17  N   UNL     1       6.532   3.594  13.441  0.00  0.00    +0.000 N 
ATOM     18  H   UNL     1       7.393   3.107  13.692  0.00  0.00    +0.000 HD
BRANCH  16  19
ATOM     19  S   UNL     1       6.854   2.211  11.264  0.00  0.00    +0.000 S 
ATOM     20  H   UNL     1       7.524   3.221  10.704  0.00  0.00    +0.000 HD
ENDBRANCH  16  19
BRANCH  15  21
ATOM     21  C   UNL     1       3.856   2.958  10.983  0.00  0.00    +0.000 C 
BRANCH  21  22
ATOM     22  C   UNL     1       3.745   4.120   9.993  0.00  0.00    +0.000 C 
BRANCH  22  24
ATOM     23  C   UNL     1       2.161   5.343   8.452  0.00  0.00    +0.000 C 
ATOM     24  C   UNL     1       2.293   4.523   9.724  0.00  0.00    +0.000 C 
ENDBRANCH  22  24
ENDBRANCH  21  22
ENDBRANCH  15  21
ENDBRANCH   1  17
TORSDOF 6
ENDMDL
MODEL 7
REMARK VINA RESULT:      -6.5      1.007      1.210
REMARK  Name = 
REMARK  8 active torsions:
REMARK  status: ('A' for Active; 'I' for Inactive)
REMARK    1  A    between atoms: C_1  and  C_2
REMARK    2  A    between atoms: C_2  and  C_3
REMARK    3  A    between atoms: C_3  and  C_4
REMARK    4  A    between atoms: C_4  and  N_5
REMARK    5  A    between atoms: C_6  and  S_7
REMARK    6  A    between atoms: N_8  and  N_9
REMARK    7  A    between atoms: C_10  and  C_12
REMARK    8  A    between atoms: C_13  and  C_14
REMARK                            x       y       z     vdW  Elec       q    Type
REMARK                         _______ _______ _______ _____ _____    ______ ____
ROOT
ATOM      1  N   UNL     1       2.629   6.840  19.983  0.00  0.00    +0.000 N 
ATOM      2  C   UNL     1       2.890   5.481  20.027  0.00  0.00    +0.000 C 
ATOM      3  O   UNL     1       2.604   4.812  21.021  0.00  0.00    +0.000 OA
ATOM      4  H   UNL     1       2.636   7.384  19.122  0.00  0.00    +0.000 HD
ENDROOT
BRANCH   2   5
ATOM      5  C   UNL     1       3.485   4.930  18.834  0.00  0.00    +0.000 A 
ATOM      6  C   UNL     1       2.903   4.288  17.745  0.00  0.00    +0.000 A 
ATOM      7  C   UNL     1       1.483   3.981  17.436  0.00  0.00    +0.000 C 
ATOM      8  N   UNL     1       3.851   3.928  16.816  0.00  0.00    +0.000 NA
ATOM      9  C   UNL     1       4.996   4.356  17.293  0.00  0.00    +0.000 A 
ATOM     10  C   UNL     1       6.312   4.263  16.758  0.00  0.00    +0.000 A 
ATOM     11  C   UNL     1       7.355   4.767  17.445  0.00  0.00    +0.000 A 
ATOM     12  C   UNL     1       7.163   5.418  18.730  0.00  0.00    +0.000 A 
ATOM     13  C   UNL     1       5.921   5.516  19.237  0.00  0.00    +0.000 A 
ATOM     14  N   UNL     1       4.837   4.990  18.523  0.00  0.00    +0.000 N 
ENDBRANCH   2   5
BRANCH   1  17
ATOM     15  N   UNL     1       1.089   9.062  19.604  0.00  0.00    +0.000 NA
ATOM     16  C   UNL     1       1.275   8.605  20.796  0.00  0.00    +0.000 C 
ATOM     17  N   UNL     1       1.917   7.415  21.040  0.00  0.00    +0.000 N 
ATOM     18  H   UNL     1       2.314   7.269  21.969  0.00  0.00    +0.000 HD
BRANCH  16  19
ATOM     19  S   UNL     1       0.741   9.371  22.284  0.00  0.00    +0.000 S 
ATOM     20  H   UNL     1       1.835   9.168  23.021  0.00  0.00    +0.000 HD
ENDBRANCH  16  19
BRANCH  15  21
ATOM     21  C   UNL     1       0.355  10.296  19.348  0.00  0.00    +0.000 C 
BRANCH  21  22
ATOM     22  C   UNL     1       1.317  11.364  18.821  0.00  0.00    +0.000 C 
BRANCH  22  24
ATOM     23  C   UNL     1      -0.755  12.743  18.391  0.00  0.00    +0.000 C 
ATOM     24  C   UNL     1       0.699  12.764  18.831  0.00  0.00    +0.000 C 
ENDBRANCH  22  24
ENDBRANCH  21  22
ENDBRANCH  15  21
ENDBRANCH   1  17
TORSDOF 6
ENDMDL
MODEL 8
REMARK VINA RESULT:      -6.5      1.510      1.682
REMARK  Name = 
REMARK  8 active torsions:
REMARK  status: ('A' for Active; 'I' for Inactive)
REMARK    1  A    between atoms: C_1  and  C_2
REMARK    2  A    between atoms: C_2  and  C_3
REMARK    3  A    between atoms: C_3  and  C_4
REMARK    4  A    between atoms: C_4  and  N_5
REMARK    5  A    between atoms: C_6  and  S_7
REMARK    6  A    between atoms: N_8  and  N_9
REMARK    7  A    between atoms: C_10  and  C_12
REMARK    8  A    between atoms: C_13  and  C_14
REMARK                            x       y       z     vdW  Elec       q    Type
REMARK                         _______ _______ _______ _____ _____    ______ ____
ROOT
ATOM      1  N   UNL     1       2.513   6.391  20.296  0.00  0.00    +0.000 N 
ATOM      2  C   UNL     1       2.017   5.155  19.914  0.00  0.00    +0.000 C 
ATOM      3  O   UNL     1       0.981   4.707  20.406  0.00  0.00    +0.000 OA
ATOM      4  H   UNL     1       3.223   6.896  19.770  0.00  0.00    +0.000 HD
ENDROOT
BRANCH   2   5
ATOM      5  C   UNL     1       2.786   4.471  18.904  0.00  0.00    +0.000 A 
ATOM      6  C   UNL     1       2.892   3.115  18.608  0.00  0.00    +0.000 A 
ATOM      7  C   UNL     1       2.232   1.929  19.213  0.00  0.00    +0.000 C 
ATOM      8  N   UNL     1       3.742   2.902  17.549  0.00  0.00    +0.000 NA
ATOM      9  C   UNL     1       4.140   4.093  17.168  0.00  0.00    +0.000 A 
ATOM     10  C   UNL     1       5.023   4.481  16.120  0.00  0.00    +0.000 A 
ATOM     11  C   UNL     1       5.304   5.784  15.924  0.00  0.00    +0.000 A 
ATOM     12  C   UNL     1       4.711   6.813  16.761  0.00  0.00    +0.000 A 
ATOM     13  C   UNL     1       3.869   6.453  17.747  0.00  0.00    +0.000 A 
ATOM     14  N   UNL     1       3.580   5.099  17.952  0.00  0.00    +0.000 N 
ENDBRANCH   2   5
BRANCH   1  17
ATOM     15  N   UNL     1       1.472   8.778  19.476  0.00  0.00    +0.000 NA
ATOM     16  C   UNL     1       1.369   8.423  20.712  0.00  0.00    +0.000 C 
ATOM     17  N   UNL     1       1.742   7.178  21.157  0.00  0.00    +0.000 N 
ATOM     18  H   UNL     1       1.943   7.068  22.152  0.00  0.00    +0.000 HD
BRANCH  16  19
ATOM     19  S   UNL     1       0.731   9.413  22.014  0.00  0.00    +0.000 S 
ATOM     20  H   UNL     1       1.437   8.901  23.025  0.00  0.00    +0.000 HD
ENDBRANCH  16  19
BRANCH  15  21
ATOM     21  C   UNL     1       1.020  10.079  18.998  0.00  0.00    +0.000 C 
BRANCH  21  22
ATOM     22  C   UNL     1      -0.117   9.889  17.991  0.00  0.00    +0.000 C 
BRANCH  22  24
ATOM     23  C   UNL     1      -1.317  11.496  19.527  0.00  0.00    +0.000 C 
ATOM     24  C   UNL     1      -1.469  10.350  18.541  0.00  0.00    +0.000 C 
ENDBRANCH  22  24
ENDBRANCH  21  22
ENDBRANCH  15  21
ENDBRANCH   1  17
TORSDOF 6
ENDMDL
MODEL 9
REMARK VINA RESULT:      -6.4      3.343      7.889
REMARK  Name = 
REMARK  8 active torsions:
REMARK  status: ('A' for Active; 'I' for Inactive)
REMARK    1  A    between atoms: C_1  and  C_2
REMARK    2  A    between atoms: C_2  and  C_3
REMARK    3  A    between atoms: C_3  and  C_4
REMARK    4  A    between atoms: C_4  and  N_5
REMARK    5  A    between atoms: C_6  and  S_7
REMARK    6  A    between atoms: N_8  and  N_9
REMARK    7  A    between atoms: C_10  and  C_12
REMARK    8  A    between atoms: C_13  and  C_14
REMARK                            x       y       z     vdW  Elec       q    Type
REMARK                         _______ _______ _______ _____ _____    ______ ____
ROOT
ATOM      1  N   UNL     1       1.619   8.480  19.184  0.00  0.00    +0.000 N 
ATOM      2  C   UNL     1       1.352   9.586  18.395  0.00  0.00    +0.000 C 
ATOM      3  O   UNL     1       2.013   9.819  17.383  0.00  0.00    +0.000 OA
ATOM      4  H   UNL     1       0.974   8.125  19.887  0.00  0.00    +0.000 HD
ENDROOT
BRANCH   2   5
ATOM      5  C   UNL     1       0.250  10.404  18.838  0.00  0.00    +0.000 A 
ATOM      6  C   UNL     1       0.167  11.331  19.873  0.00  0.00    +0.000 A 
ATOM      7  C   UNL     1       1.187  11.803  20.845  0.00  0.00    +0.000 C 
ATOM      8  N   UNL     1      -1.086  11.892  19.939  0.00  0.00    +0.000 NA
ATOM      9  C   UNL     1      -1.768  11.355  18.955  0.00  0.00    +0.000 A 
ATOM     10  C   UNL     1      -3.116  11.562  18.544  0.00  0.00    +0.000 A 
ATOM     11  C   UNL     1      -3.613  10.874  17.498  0.00  0.00    +0.000 A 
ATOM     12  C   UNL     1      -2.793   9.922  16.767  0.00  0.00    +0.000 A 
ATOM     13  C   UNL     1      -1.517   9.730  17.146  0.00  0.00    +0.000 A 
ATOM     14  N   UNL     1      -1.001  10.443  18.234  0.00  0.00    +0.000 N 
ENDBRANCH   2   5
BRANCH   1  17
ATOM     15  N   UNL     1       1.857   6.019  20.342  0.00  0.00    +0.000 NA
ATOM     16  C   UNL     1       2.717   6.399  19.458  0.00  0.00    +0.000 C 
ATOM     17  N   UNL     1       2.572   7.560  18.737  0.00  0.00    +0.000 N 
ATOM     18  H   UNL     1       3.407   7.963  18.310  0.00  0.00    +0.000 HD
BRANCH  16  19
ATOM     19  S   UNL     1       4.170   5.527  18.999  0.00  0.00    +0.000 S 
ATOM     20  H   UNL     1       3.678   4.840  17.966  0.00  0.00    +0.000 HD
ENDBRANCH  16  19
BRANCH  15  21
ATOM     21  C   UNL     1       1.985   4.757  21.063  0.00  0.00    +0.000 C 
BRANCH  21  22
ATOM     22  C   UNL     1       1.002   3.736  20.486  0.00  0.00    +0.000 C 
BRANCH  22  24
ATOM     23  C   UNL     1       1.559   2.415  18.406  0.00  0.00    +0.000 C 
ATOM     24  C   UNL     1       1.707   2.503  19.916  0.00  0.00    +0.000 C 
ENDBRANCH  22  24
ENDBRANCH  21  22
ENDBRANCH  15  21
ENDBRANCH   1  17
TORSDOF 6
ENDMDL
