MODEL 1
REMARK VINA RESULT:      -7.3      0.000      0.000
REMARK  Name = 
REMARK  7 active torsions:
REMARK  status: ('A' for Active; 'I' for Inactive)
REMARK    1  A    between atoms: C_1  and  O_2
REMARK    2  A    between atoms: O_2  and  C_3
REMARK    3  A    between atoms: N_10  and  C_11
REMARK    4  A    between atoms: C_11  and  C_13
REMARK    5  A    between atoms: C_13  and  S_14
REMARK    6  A    between atoms: S_14  and  C_17
REMARK    7  A    between atoms: N_24  and  C_25
REMARK                            x       y       z     vdW  Elec       q    Type
REMARK                         _______ _______ _______ _____ _____    ______ ____
ROOT
ATOM      1  C   UNL     1       0.755  10.840  21.259  0.00  0.00    +0.000 A 
ATOM      2  C   UNL     1       0.679  12.221  21.015  0.00  0.00    +0.000 A 
ATOM      3  C   UNL     1       0.839  12.736  19.723  0.00  0.00    +0.000 A 
ATOM      4  C   UNL     1       1.124  11.883  18.663  0.00  0.00    +0.000 A 
ATOM      5  C   UNL     1       1.267  10.527  18.926  0.00  0.00    +0.000 A 
ATOM      6  S   UNL     1       1.709   9.269  17.752  0.00  0.00    +0.000 S 
ATOM      7  C   UNL     1       1.842   8.047  19.073  0.00  0.00    +0.000 A 
ATOM      8  N   UNL     1       2.445   6.968  18.708  0.00  0.00    +0.000 NA
ATOM      9  N   UNL     1       1.315   8.578  20.244  0.00  0.00    +0.000 N 
ATOM     10  C   UNL     1       0.729   7.797  21.316  0.00  0.00    +0.000 C 
ATOM     11  C   UNL     1       1.087   9.975  20.208  0.00  0.00    +0.000 A 
ENDROOT
BRANCH   1  13
ATOM     12  C   UNL     1      -0.705  10.513  23.089  0.00  0.00    +0.000 C 
ATOM     13  O   UNL     1       0.594  10.331  22.521  0.00  0.00    +0.000 OA
ENDBRANCH   1  13
BRANCH   8  14
ATOM     14  C   UNL     1       2.817   5.997  19.593  0.00  0.00    +0.000 C 
ATOM     15  O   UNL     1       2.089   5.428  20.402  0.00  0.00    +0.000 OA
BRANCH  14  16
ATOM     16  C   UNL     1       4.267   5.662  19.548  0.00  0.00    +0.000 C 
BRANCH  16  17
ATOM     17  S   UNL     1       4.499   4.071  18.833  0.00  0.00    +0.000 S 
ATOM     18  O   UNL     1       5.398   3.332  19.699  0.00  0.00    +0.000 OA
ATOM     19  O   UNL     1       3.218   3.499  18.464  0.00  0.00    +0.000 OA
BRANCH  17  20
ATOM     20  C   UNL     1       5.410   4.362  17.334  0.00  0.00    +0.000 A 
ATOM     21  C   UNL     1       4.712   4.398  16.122  0.00  0.00    +0.000 A 
ATOM     22  C   UNL     1       5.407   4.627  14.937  0.00  0.00    +0.000 A 
ATOM     23  C   UNL     1       6.786   4.838  14.971  0.00  0.00    +0.000 A 
ATOM     24 CL   UNL     1       7.637   5.120  13.504  0.00  0.00    +0.000 Cl
ATOM     25  C   UNL     1       7.476   4.828  16.185  0.00  0.00    +0.000 A 
ATOM     26  C   UNL     1       6.788   4.590  17.376  0.00  0.00    +0.000 A 
ENDBRANCH  17  20
ENDBRANCH  16  17
ENDBRANCH  14  16
ENDBRANCH   8  14
TORSDOF 5
ENDMDL
MODEL 2
REMARK VINA RESULT:      -7.2      0.969      1.000
REMARK  Name = 
REMARK  7 active torsions:
REMARK  status: ('A' for Active; 'I' for Inactive)
REMARK    1  A    between atoms: C_1  and  O_2
REMARK    2  A    between atoms: O_2  and  C_3
REMARK    3  A    between atoms: N_10  and  C_11
REMARK    4  A    between atoms: C_11  and  C_13
REMARK    5  A    between atoms: C_13  and  S_14
REMARK    6  A    between atoms: S_14  and  C_17
REMARK    7  A    between atoms: N_24  and  C_25
REMARK                            x       y       z     vdW  Elec       q    Type
REMARK                         _______ _______ _______ _____ _____    ______ ____
ROOT
ATOM      1  C   UNL     1       0.842   9.912  21.330  0.00  0.00    +0.000 A 
ATOM      2  C   UNL     1       0.528  11.281  21.311  0.00  0.00    +0.000 A 
ATOM      3  C   UNL     1       0.550  12.011  20.118  0.00  0.00    +0.000 A 
ATOM      4  C   UNL     1       0.932  11.395  18.930  0.00  0.00    +0.000 A 
ATOM      5  C   UNL     1       1.308  10.059  18.971  0.00  0.00    +0.000 A 
ATOM      6  S   UNL     1       1.907   9.094  17.605  0.00  0.00    +0.000 S 
ATOM      7  C   UNL     1       2.293   7.721  18.711  0.00  0.00    +0.000 A 
ATOM      8  N   UNL     1       3.052   6.831  18.170  0.00  0.00    +0.000 NA
ATOM      9  N   UNL     1       1.731   7.965  19.958  0.00  0.00    +0.000 N 
ATOM     10  C   UNL     1       1.324   6.938  20.898  0.00  0.00    +0.000 C 
ATOM     11  C   UNL     1       1.273   9.291  20.150  0.00  0.00    +0.000 A 
ENDROOT
BRANCH   1  13
ATOM     12  C   UNL     1      -0.248   9.521  23.390  0.00  0.00    +0.000 C 
ATOM     13  O   UNL     1       0.817   9.193  22.496  0.00  0.00    +0.000 OA
ENDBRANCH   1  13
BRANCH   8  14
ATOM     14  C   UNL     1       3.614   5.811  18.883  0.00  0.00    +0.000 C 
ATOM     15  O   UNL     1       4.561   5.899  19.661  0.00  0.00    +0.000 OA
BRANCH  14  16
ATOM     16  C   UNL     1       3.000   4.480  18.623  0.00  0.00    +0.000 C 
BRANCH  16  17
ATOM     17  S   UNL     1       4.256   3.268  18.398  0.00  0.00    +0.000 S 
ATOM     18  O   UNL     1       5.114   3.310  19.568  0.00  0.00    +0.000 OA
ATOM     19  O   UNL     1       3.666   2.011  17.978  0.00  0.00    +0.000 OA
BRANCH  17  20
ATOM     20  C   UNL     1       5.251   3.871  17.054  0.00  0.00    +0.000 A 
ATOM     21  C   UNL     1       4.670   3.974  15.785  0.00  0.00    +0.000 A 
ATOM     22  C   UNL     1       5.433   4.448  14.719  0.00  0.00    +0.000 A 
ATOM     23  C   UNL     1       6.757   4.832  14.930  0.00  0.00    +0.000 A 
ATOM     24 CL   UNL     1       7.691   5.415  13.610  0.00  0.00    +0.000 Cl
ATOM     25  C   UNL     1       7.325   4.754  16.204  0.00  0.00    +0.000 A 
ATOM     26  C   UNL     1       6.571   4.272  17.275  0.00  0.00    +0.000 A 
ENDBRANCH  17  20
ENDBRANCH  16  17
ENDBRANCH  14  16
ENDBRANCH   8  14
TORSDOF 5
ENDMDL
MODEL 3
REMARK VINA RESULT:      -6.9      1.070      1.483
REMARK  Name = 
REMARK  7 active torsions:
REMARK  status: ('A' for Active; 'I' for Inactive)
REMARK    1  A    between atoms: C_1  and  O_2
REMARK    2  A    between atoms: O_2  and  C_3
REMARK    3  A    between atoms: N_10  and  C_11
REMARK    4  A    between atoms: C_11  and  C_13
REMARK    5  A    between atoms: C_13  and  S_14
REMARK    6  A    between atoms: S_14  and  C_17
REMARK    7  A    between atoms: N_24  and  C_25
REMARK                            x       y       z     vdW  Elec       q    Type
REMARK                         _______ _______ _______ _____ _____    ______ ____
ROOT
ATOM      1  C   UNL     1       0.472   9.580  21.172  0.00  0.00    +0.000 A 
ATOM      2  C   UNL     1       0.040  10.915  21.115  0.00  0.00    +0.000 A 
ATOM      3  C   UNL     1       0.147  11.660  19.934  0.00  0.00    +0.000 A 
ATOM      4  C   UNL     1       0.731  11.096  18.805  0.00  0.00    +0.000 A 
ATOM      5  C   UNL     1       1.219   9.798  18.891  0.00  0.00    +0.000 A 
ATOM      6  S   UNL     1       2.071   8.909  17.612  0.00  0.00    +0.000 S 
ATOM      7  C   UNL     1       2.436   7.562  18.756  0.00  0.00    +0.000 A 
ATOM      8  N   UNL     1       3.335   6.750  18.316  0.00  0.00    +0.000 NA
ATOM      9  N   UNL     1       1.700   7.738  19.922  0.00  0.00    +0.000 N 
ATOM     10  C   UNL     1       1.272   6.667  20.801  0.00  0.00    +0.000 C 
ATOM     11  C   UNL     1       1.103   9.015  20.055  0.00  0.00    +0.000 A 
ENDROOT
BRANCH   1  13
ATOM     12  C   UNL     1      -0.063   9.579  23.473  0.00  0.00    +0.000 C 
ATOM     13  O   UNL     1       0.364   8.846  22.324  0.00  0.00    +0.000 OA
ENDBRANCH   1  13
BRANCH   8  14
ATOM     14  C   UNL     1       3.892   5.776  19.093  0.00  0.00    +0.000 C 
ATOM     15  O   UNL     1       4.916   5.874  19.765  0.00  0.00    +0.000 OA
BRANCH  14  16
ATOM     16  C   UNL     1       3.162   4.479  19.055  0.00  0.00    +0.000 C 
BRANCH  16  17
ATOM     17  S   UNL     1       4.256   3.182  18.590  0.00  0.00    +0.000 S 
ATOM     18  O   UNL     1       5.219   3.021  19.664  0.00  0.00    +0.000 OA
ATOM     19  O   UNL     1       3.500   2.037  18.119  0.00  0.00    +0.000 OA
BRANCH  17  20
ATOM     20  C   UNL     1       5.180   3.822  17.212  0.00  0.00    +0.000 A 
ATOM     21  C   UNL     1       6.518   4.180  17.412  0.00  0.00    +0.000 A 
ATOM     22  C   UNL     1       7.260   4.680  16.344  0.00  0.00    +0.000 A 
ATOM     23  C   UNL     1       6.670   4.801  15.086  0.00  0.00    +0.000 A 
ATOM     24 CL   UNL     1       7.592   5.419  13.773  0.00  0.00    +0.000 Cl
ATOM     25  C   UNL     1       5.342   4.417  14.883  0.00  0.00    +0.000 A 
ATOM     26  C   UNL     1       4.589   3.924  15.950  0.00  0.00    +0.000 A 
ENDBRANCH  17  20
ENDBRANCH  16  17
ENDBRANCH  14  16
ENDBRANCH   8  14
TORSDOF 5
ENDMDL
MODEL 4
REMARK VINA RESULT:      -6.9      1.912      2.578
REMARK  Name = 
REMARK  7 active torsions:
REMARK  status: ('A' for Active; 'I' for Inactive)
REMARK    1  A    between atoms: C_1  and  O_2
REMARK    2  A    between atoms: O_2  and  C_3
REMARK    3  A    between atoms: N_10  and  C_11
REMARK    4  A    between atoms: C_11  and  C_13
REMARK    5  A    between atoms: C_13  and  S_14
REMARK    6  A    between atoms: S_14  and  C_17
REMARK    7  A    between atoms: N_24  and  C_25
REMARK                            x       y       z     vdW  Elec       q    Type
REMARK                         _______ _______ _______ _____ _____    ______ ____
ROOT
ATOM      1  C   UNL     1      -0.679  10.723  19.174  0.00  0.00    +0.000 A 
ATOM      2  C   UNL     1      -1.526  11.609  19.861  0.00  0.00    +0.000 A 
ATOM      3  C   UNL     1      -1.444  11.756  21.251  0.00  0.00    +0.000 A 
ATOM      4  C   UNL     1      -0.547  10.984  21.982  0.00  0.00    +0.000 A 
ATOM      5  C   UNL     1       0.236  10.060  21.303  0.00  0.00    +0.000 A 
ATOM      6  S   UNL     1       1.383   8.918  22.032  0.00  0.00    +0.000 S 
ATOM      7  C   UNL     1       1.635   8.112  20.437  0.00  0.00    +0.000 A 
ATOM      8  N   UNL     1       2.226   6.971  20.531  0.00  0.00    +0.000 NA
ATOM      9  N   UNL     1       1.057   8.885  19.437  0.00  0.00    +0.000 N 
ATOM     10  C   UNL     1       1.496   8.913  18.055  0.00  0.00    +0.000 C 
ATOM     11  C   UNL     1       0.197   9.907  19.904  0.00  0.00    +0.000 A 
ENDROOT
BRANCH   1  13
ATOM     12  C   UNL     1      -1.982  10.044  17.324  0.00  0.00    +0.000 C 
ATOM     13  O   UNL     1      -0.752  10.581  17.814  0.00  0.00    +0.000 OA
ENDBRANCH   1  13
BRANCH   8  14
ATOM     14  C   UNL     1       2.346   6.114  19.475  0.00  0.00    +0.000 C 
ATOM     15  O   UNL     1       1.599   5.176  19.207  0.00  0.00    +0.000 OA
BRANCH  14  16
ATOM     16  C   UNL     1       3.538   6.370  18.620  0.00  0.00    +0.000 C 
BRANCH  16  17
ATOM     17  S   UNL     1       4.649   5.008  18.708  0.00  0.00    +0.000 S 
ATOM     18  O   UNL     1       5.688   5.357  19.661  0.00  0.00    +0.000 OA
ATOM     19  O   UNL     1       3.909   3.770  18.866  0.00  0.00    +0.000 OA
BRANCH  17  20
ATOM     20  C   UNL     1       5.452   4.957  17.123  0.00  0.00    +0.000 A 
ATOM     21  C   UNL     1       6.630   5.691  16.946  0.00  0.00    +0.000 A 
ATOM     22  C   UNL     1       7.276   5.662  15.712  0.00  0.00    +0.000 A 
ATOM     23  C   UNL     1       6.756   4.889  14.674  0.00  0.00    +0.000 A 
ATOM     24 CL   UNL     1       7.559   4.858  13.154  0.00  0.00    +0.000 Cl
ATOM     25  C   UNL     1       5.595   4.136  14.862  0.00  0.00    +0.000 A 
ATOM     26  C   UNL     1       4.936   4.167  16.093  0.00  0.00    +0.000 A 
ENDBRANCH  17  20
ENDBRANCH  16  17
ENDBRANCH  14  16
ENDBRANCH   8  14
TORSDOF 5
ENDMDL
MODEL 5
REMARK VINA RESULT:      -6.8      4.278      9.184
REMARK  Name = 
REMARK  7 active torsions:
REMARK  status: ('A' for Active; 'I' for Inactive)
REMARK    1  A    between atoms: C_1  and  O_2
REMARK    2  A    between atoms: O_2  and  C_3
REMARK    3  A    between atoms: N_10  and  C_11
REMARK    4  A    between atoms: C_11  and  C_13
REMARK    5  A    between atoms: C_13  and  S_14
REMARK    6  A    between atoms: S_14  and  C_17
REMARK    7  A    between atoms: N_24  and  C_25
REMARK                            x       y       z     vdW  Elec       q    Type
REMARK                         _______ _______ _______ _____ _____    ______ ____
ROOT
ATOM      1  C   UNL     1       2.271   4.697  19.712  0.00  0.00    +0.000 A 
ATOM      2  C   UNL     1       2.800   3.628  18.970  0.00  0.00    +0.000 A 
ATOM      3  C   UNL     1       3.532   3.854  17.799  0.00  0.00    +0.000 A 
ATOM      4  C   UNL     1       3.708   5.150  17.325  0.00  0.00    +0.000 A 
ATOM      5  C   UNL     1       3.122   6.195  18.028  0.00  0.00    +0.000 A 
ATOM      6  S   UNL     1       3.143   7.911  17.570  0.00  0.00    +0.000 S 
ATOM      7  C   UNL     1       1.995   8.308  18.904  0.00  0.00    +0.000 A 
ATOM      8  N   UNL     1       1.471   9.480  18.793  0.00  0.00    +0.000 NA
ATOM      9  N   UNL     1       1.869   7.207  19.743  0.00  0.00    +0.000 N 
ATOM     10  C   UNL     1       1.534   7.275  21.153  0.00  0.00    +0.000 C 
ATOM     11  C   UNL     1       2.402   6.004  19.222  0.00  0.00    +0.000 A 
ENDROOT
BRANCH   1  13
ATOM     12  C   UNL     1       1.391   3.108  21.224  0.00  0.00    +0.000 C 
ATOM     13  O   UNL     1       1.558   4.480  20.862  0.00  0.00    +0.000 OA
ENDBRANCH   1  13
BRANCH   8  14
ATOM     14  C   UNL     1       0.443   9.906  19.584  0.00  0.00    +0.000 C 
ATOM     15  O   UNL     1      -0.757   9.772  19.357  0.00  0.00    +0.000 OA
BRANCH  14  16
ATOM     16  C   UNL     1       0.881  10.627  20.811  0.00  0.00    +0.000 C 
BRANCH  16  17
ATOM     17  S   UNL     1       0.473  12.334  20.686  0.00  0.00    +0.000 S 
ATOM     18  O   UNL     1       1.468  13.074  21.441  0.00  0.00    +0.000 OA
ATOM     19  O   UNL     1       0.207  12.684  19.304  0.00  0.00    +0.000 OA
BRANCH  17  20
ATOM     20  C   UNL     1      -1.047  12.518  21.591  0.00  0.00    +0.000 A 
ATOM     21  C   UNL     1      -1.953  13.503  21.182  0.00  0.00    +0.000 A 
ATOM     22  C   UNL     1      -3.151  13.661  21.876  0.00  0.00    +0.000 A 
ATOM     23  C   UNL     1      -3.444  12.826  22.954  0.00  0.00    +0.000 A 
ATOM     24 CL   UNL     1      -4.924  13.027  23.805  0.00  0.00    +0.000 Cl
ATOM     25  C   UNL     1      -2.549  11.826  23.342  0.00  0.00    +0.000 A 
ATOM     26  C   UNL     1      -1.342  11.667  22.659  0.00  0.00    +0.000 A 
ENDBRANCH  17  20
ENDBRANCH  16  17
ENDBRANCH  14  16
ENDBRANCH   8  14
TORSDOF 5
ENDMDL
MODEL 6
REMARK VINA RESULT:      -6.8      4.199      9.029
REMARK  Name = 
REMARK  7 active torsions:
REMARK  status: ('A' for Active; 'I' for Inactive)
REMARK    1  A    between atoms: C_1  and  O_2
REMARK    2  A    between atoms: O_2  and  C_3
REMARK    3  A    between atoms: N_10  and  C_11
REMARK    4  A    between atoms: C_11  and  C_13
REMARK    5  A    between atoms: C_13  and  S_14
REMARK    6  A    between atoms: S_14  and  C_17
REMARK    7  A    between atoms: N_24  and  C_25
REMARK                            x       y       z     vdW  Elec       q    Type
REMARK                         _______ _______ _______ _____ _____    ______ ____
ROOT
ATOM      1  C   UNL     1       2.128   4.363  19.361  0.00  0.00    +0.000 A 
ATOM      2  C   UNL     1       2.664   3.263  18.671  0.00  0.00    +0.000 A 
ATOM      3  C   UNL     1       3.590   3.440  17.637  0.00  0.00    +0.000 A 
ATOM      4  C   UNL     1       3.960   4.722  17.243  0.00  0.00    +0.000 A 
ATOM      5  C   UNL     1       3.372   5.804  17.884  0.00  0.00    +0.000 A 
ATOM      6  S   UNL     1       3.626   7.519  17.497  0.00  0.00    +0.000 S 
ATOM      7  C   UNL     1       2.325   7.999  18.651  0.00  0.00    +0.000 A 
ATOM      8  N   UNL     1       1.938   9.219  18.502  0.00  0.00    +0.000 NA
ATOM      9  N   UNL     1       1.964   6.899  19.420  0.00  0.00    +0.000 N 
ATOM     10  C   UNL     1       1.419   6.969  20.762  0.00  0.00    +0.000 C 
ATOM     11  C   UNL     1       2.457   5.660  18.944  0.00  0.00    +0.000 A 
ENDROOT
BRANCH   1  13
ATOM     12  C   UNL     1       1.600   3.236  21.370  0.00  0.00    +0.000 C 
ATOM     13  O   UNL     1       1.225   4.193  20.377  0.00  0.00    +0.000 OA
ENDBRANCH   1  13
BRANCH   8  14
ATOM     14  C   UNL     1       0.842   9.728  19.140  0.00  0.00    +0.000 C 
ATOM     15  O   UNL     1      -0.316   9.704  18.732  0.00  0.00    +0.000 OA
BRANCH  14  16
ATOM     16  C   UNL     1       1.151  10.395  20.434  0.00  0.00    +0.000 C 
BRANCH  16  17
ATOM     17  S   UNL     1       0.796  12.115  20.328  0.00  0.00    +0.000 S 
ATOM     18  O   UNL     1       1.722  12.804  21.208  0.00  0.00    +0.000 OA
ATOM     19  O   UNL     1       0.684  12.517  18.939  0.00  0.00    +0.000 OA
BRANCH  17  20
ATOM     20  C   UNL     1      -0.806  12.308  21.075  0.00  0.00    +0.000 A 
ATOM     21  C   UNL     1      -0.925  12.129  22.458  0.00  0.00    +0.000 A 
ATOM     22  C   UNL     1      -2.171  12.279  23.063  0.00  0.00    +0.000 A 
ATOM     23  C   UNL     1      -3.281  12.624  22.291  0.00  0.00    +0.000 A 
ATOM     24 CL   UNL     1      -4.815  12.807  23.045  0.00  0.00    +0.000 Cl
ATOM     25  C   UNL     1      -3.153  12.829  20.915  0.00  0.00    +0.000 A 
ATOM     26  C   UNL     1      -1.910  12.672  20.300  0.00  0.00    +0.000 A 
ENDBRANCH  17  20
ENDBRANCH  16  17
ENDBRANCH  14  16
ENDBRANCH   8  14
TORSDOF 5
ENDMDL
MODEL 7
REMARK VINA RESULT:      -6.8      5.092      9.236
REMARK  Name = 
REMARK  7 active torsions:
REMARK  status: ('A' for Active; 'I' for Inactive)
REMARK    1  A    between atoms: C_1  and  O_2
REMARK    2  A    between atoms: O_2  and  C_3
REMARK    3  A    between atoms: N_10  and  C_11
REMARK    4  A    between atoms: C_11  and  C_13
REMARK    5  A    between atoms: C_13  and  S_14
REMARK    6  A    between atoms: S_14  and  C_17
REMARK    7  A    between atoms: N_24  and  C_25
REMARK                            x       y       z     vdW  Elec       q    Type
REMARK                         _______ _______ _______ _____ _____    ______ ____
ROOT
ATOM      1  C   UNL     1       2.531   5.399  19.832  0.00  0.00    +0.000 A 
ATOM      2  C   UNL     1       3.234   4.388  19.157  0.00  0.00    +0.000 A 
ATOM      3  C   UNL     1       3.956   4.664  17.990  0.00  0.00    +0.000 A 
ATOM      4  C   UNL     1       3.948   5.946  17.452  0.00  0.00    +0.000 A 
ATOM      5  C   UNL     1       3.193   6.924  18.087  0.00  0.00    +0.000 A 
ATOM      6  S   UNL     1       2.968   8.598  17.539  0.00  0.00    +0.000 S 
ATOM      7  C   UNL     1       1.738   8.882  18.828  0.00  0.00    +0.000 A 
ATOM      8  N   UNL     1       1.047   9.955  18.645  0.00  0.00    +0.000 NA
ATOM      9  N   UNL     1       1.756   7.818  19.722  0.00  0.00    +0.000 N 
ATOM     10  C   UNL     1       1.376   7.904  21.119  0.00  0.00    +0.000 C 
ATOM     11  C   UNL     1       2.478   6.685  19.275  0.00  0.00    +0.000 A 
ENDROOT
BRANCH   1  13
ATOM     12  C   UNL     1       1.827   3.766  21.386  0.00  0.00    +0.000 C 
ATOM     13  O   UNL     1       1.828   5.134  20.977  0.00  0.00    +0.000 OA
ENDBRANCH   1  13
BRANCH   8  14
ATOM     14  C   UNL     1      -0.054  10.258  19.392  0.00  0.00    +0.000 C 
ATOM     15  O   UNL     1      -0.062  10.791  20.499  0.00  0.00    +0.000 OA
BRANCH  14  16
ATOM     16  C   UNL     1      -1.342   9.848  18.766  0.00  0.00    +0.000 C 
BRANCH  16  17
ATOM     17  S   UNL     1      -1.960  11.144  17.750  0.00  0.00    +0.000 S 
ATOM     18  O   UNL     1      -1.174  12.331  18.034  0.00  0.00    +0.000 OA
ATOM     19  O   UNL     1      -2.102  10.681  16.382  0.00  0.00    +0.000 OA
BRANCH  17  20
ATOM     20  C   UNL     1      -3.589  11.489  18.373  0.00  0.00    +0.000 A 
ATOM     21  C   UNL     1      -3.713  12.286  19.517  0.00  0.00    +0.000 A 
ATOM     22  C   UNL     1      -4.981  12.570  20.020  0.00  0.00    +0.000 A 
ATOM     23  C   UNL     1      -6.112  12.077  19.369  0.00  0.00    +0.000 A 
ATOM     24 CL   UNL     1      -7.673  12.433  19.995  0.00  0.00    +0.000 Cl
ATOM     25  C   UNL     1      -5.986  11.306  18.212  0.00  0.00    +0.000 A 
ATOM     26  C   UNL     1      -4.719  11.008  17.707  0.00  0.00    +0.000 A 
ENDBRANCH  17  20
ENDBRANCH  16  17
ENDBRANCH  14  16
ENDBRANCH   8  14
TORSDOF 5
ENDMDL
MODEL 8
REMARK VINA RESULT:      -6.8      4.191      6.464
REMARK  Name = 
REMARK  7 active torsions:
REMARK  status: ('A' for Active; 'I' for Inactive)
REMARK    1  A    between atoms: C_1  and  O_2
REMARK    2  A    between atoms: O_2  and  C_3
REMARK    3  A    between atoms: N_10  and  C_11
REMARK    4  A    between atoms: C_11  and  C_13
REMARK    5  A    between atoms: C_13  and  S_14
REMARK    6  A    between atoms: S_14  and  C_17
REMARK    7  A    between atoms: N_24  and  C_25
REMARK                            x       y       z     vdW  Elec       q    Type
REMARK                         _______ _______ _______ _____ _____    ______ ____
ROOT
ATOM      1  C   UNL     1      -3.730  11.571  17.506  0.00  0.00    +0.000 A 
ATOM      2  C   UNL     1      -5.105  11.341  17.339  0.00  0.00    +0.000 A 
ATOM      3  C   UNL     1      -6.009  11.573  18.382  0.00  0.00    +0.000 A 
ATOM      4  C   UNL     1      -5.547  11.993  19.624  0.00  0.00    +0.000 A 
ATOM      5  C   UNL     1      -4.178  12.150  19.802  0.00  0.00    +0.000 A 
ATOM      6  S   UNL     1      -3.359  12.594  21.313  0.00  0.00    +0.000 S 
ATOM      7  C   UNL     1      -1.748  12.298  20.557  0.00  0.00    +0.000 A 
ATOM      8  N   UNL     1      -0.789  12.228  21.415  0.00  0.00    +0.000 NA
ATOM      9  N   UNL     1      -1.907  12.135  19.186  0.00  0.00    +0.000 N 
ATOM     10  C   UNL     1      -0.895  12.439  18.193  0.00  0.00    +0.000 C 
ATOM     11  C   UNL     1      -3.246  11.950  18.766  0.00  0.00    +0.000 A 
ENDROOT
BRANCH   1  13
ATOM     12  C   UNL     1      -3.418  10.852  15.277  0.00  0.00    +0.000 C 
ATOM     13  O   UNL     1      -2.842  11.350  16.486  0.00  0.00    +0.000 OA
ENDBRANCH   1  13
BRANCH   8  14
ATOM     14  C   UNL     1       0.472  11.826  21.079  0.00  0.00    +0.000 C 
ATOM     15  O   UNL     1       1.519  12.417  21.333  0.00  0.00    +0.000 OA
BRANCH  14  16
ATOM     16  C   UNL     1       0.516  10.557  20.301  0.00  0.00    +0.000 C 
BRANCH  16  17
ATOM     17  S   UNL     1       0.736   9.189  21.385  0.00  0.00    +0.000 S 
ATOM     18  O   UNL     1       1.724   9.576  22.376  0.00  0.00    +0.000 OA
ATOM     19  O   UNL     1      -0.553   8.678  21.811  0.00  0.00    +0.000 OA
BRANCH  17  20
ATOM     20  C   UNL     1       1.515   7.932  20.398  0.00  0.00    +0.000 A 
ATOM     21  C   UNL     1       1.575   6.628  20.902  0.00  0.00    +0.000 A 
ATOM     22  C   UNL     1       2.179   5.627  20.143  0.00  0.00    +0.000 A 
ATOM     23  C   UNL     1       2.698   5.929  18.884  0.00  0.00    +0.000 A 
ATOM     24 CL   UNL     1       3.442   4.690  17.953  0.00  0.00    +0.000 Cl
ATOM     25  C   UNL     1       2.612   7.227  18.373  0.00  0.00    +0.000 A 
ATOM     26  C   UNL     1       2.017   8.237  19.131  0.00  0.00    +0.000 A 
ENDBRANCH  17  20
ENDBRANCH  16  17
ENDBRANCH  14  16
ENDBRANCH   8  14
TORSDOF 5
ENDMDL
MODEL 9
REMARK VINA RESULT:      -6.7      0.628      1.219
REMARK  Name = 
REMARK  7 active torsions:
REMARK  status: ('A' for Active; 'I' for Inactive)
REMARK    1  A    between atoms: C_1  and  O_2
REMARK    2  A    between atoms: O_2  and  C_3
REMARK    3  A    between atoms: N_10  and  C_11
REMARK    4  A    between atoms: C_11  and  C_13
REMARK    5  A    between atoms: C_13  and  S_14
REMARK    6  A    between atoms: S_14  and  C_17
REMARK    7  A    between atoms: N_24  and  C_25
REMARK                            x       y       z     vdW  Elec       q    Type
REMARK                         _______ _______ _______ _____ _____    ______ ____
ROOT
ATOM      1  C   UNL     1       0.700  10.680  21.292  0.00  0.00    +0.000 A 
ATOM      2  C   UNL     1       0.696  12.075  21.124  0.00  0.00    +0.000 A 
ATOM      3  C   UNL     1       0.999  12.655  19.887  0.00  0.00    +0.000 A 
ATOM      4  C   UNL     1       1.358  11.852  18.810  0.00  0.00    +0.000 A 
ATOM      5  C   UNL     1       1.428  10.479  19.004  0.00  0.00    +0.000 A 
ATOM      6  S   UNL     1       1.940   9.273  17.804  0.00  0.00    +0.000 S 
ATOM      7  C   UNL     1       1.900   7.973  19.055  0.00  0.00    +0.000 A 
ATOM      8  N   UNL     1       2.498   6.894  18.686  0.00  0.00    +0.000 NA
ATOM      9  N   UNL     1       1.280   8.458  20.201  0.00  0.00    +0.000 N 
ATOM     10  C   UNL     1       0.564   7.642  21.163  0.00  0.00    +0.000 C 
ATOM     11  C   UNL     1       1.104   9.863  20.227  0.00  0.00    +0.000 A 
ENDROOT
BRANCH   1  13
ATOM     12  C   UNL     1      -0.853  10.502  23.063  0.00  0.00    +0.000 C 
ATOM     13  O   UNL     1       0.399  10.108  22.500  0.00  0.00    +0.000 OA
ENDBRANCH   1  13
BRANCH   8  14
ATOM     14  C   UNL     1       2.749   5.860  19.543  0.00  0.00    +0.000 C 
ATOM     15  O   UNL     1       2.685   5.896  20.769  0.00  0.00    +0.000 OA
BRANCH  14  16
ATOM     16  C   UNL     1       3.169   4.602  18.866  0.00  0.00    +0.000 C 
BRANCH  16  17
ATOM     17  S   UNL     1       4.907   4.378  19.031  0.00  0.00    +0.000 S 
ATOM     18  O   UNL     1       5.432   5.548  19.712  0.00  0.00    +0.000 OA
ATOM     19  O   UNL     1       5.192   3.053  19.547  0.00  0.00    +0.000 OA
BRANCH  17  20
ATOM     20  C   UNL     1       5.548   4.461  17.375  0.00  0.00    +0.000 A 
ATOM     21  C   UNL     1       6.910   4.728  17.198  0.00  0.00    +0.000 A 
ATOM     22  C   UNL     1       7.433   4.794  15.908  0.00  0.00    +0.000 A 
ATOM     23  C   UNL     1       6.601   4.576  14.810  0.00  0.00    +0.000 A 
ATOM     24 CL   UNL     1       7.253   4.659  13.221  0.00  0.00    +0.000 Cl
ATOM     25  C   UNL     1       5.247   4.282  14.992  0.00  0.00    +0.000 A 
ATOM     26  C   UNL     1       4.713   4.223  16.280  0.00  0.00    +0.000 A 
ENDBRANCH  17  20
ENDBRANCH  16  17
ENDBRANCH  14  16
ENDBRANCH   8  14
TORSDOF 5
ENDMDL
