MODEL 1
REMARK VINA RESULT:      -5.8      0.000      0.000
REMARK  Name = 
REMARK  8 active torsions:
REMARK  status: ('A' for Active; 'I' for Inactive)
REMARK    1  A    between atoms: C_1  and  C_2
REMARK    2  A    between atoms: C_2  and  C_3
REMARK    3  A    between atoms: C_3  and  C_4
REMARK    4  A    between atoms: C_4  and  N_5
REMARK    5  A    between atoms: C_8  and  O_9
REMARK    6  A    between atoms: C_10  and  O_11
REMARK    7  A    between atoms: C_12  and  C_13
REMARK    8  A    between atoms: C_13  and  O_14
REMARK                            x       y       z     vdW  Elec       q    Type
REMARK                         _______ _______ _______ _____ _____    ______ ____
ROOT
ATOM      1  N   UNL     1       5.150   4.150  17.886  0.00  0.00    +0.000 NA
ATOM      2  C   UNL     1       4.617   4.077  16.504  0.00  0.00    +0.000 C 
ATOM      3  C   UNL     1       5.692   4.074  15.425  0.00  0.00    +0.000 C 
ATOM      4  C   UNL     1       6.591   5.288  15.587  0.00  0.00    +0.000 C 
ATOM      5  C   UNL     1       7.188   5.320  16.997  0.00  0.00    +0.000 C 
ATOM      6  C   UNL     1       6.070   5.323  18.072  0.00  0.00    +0.000 C 
ENDROOT
BRANCH   4   7
ATOM      7  O   UNL     1       7.632   5.234  14.612  0.00  0.00    +0.000 OA
ATOM      8  H   UNL     1       7.270   4.713  13.869  0.00  0.00    +0.000 HD
ENDBRANCH   4   7
BRANCH   5   9
ATOM      9  O   UNL     1       8.050   4.176  17.161  0.00  0.00    +0.000 OA
ATOM     10  H   UNL     1       8.109   3.772  16.266  0.00  0.00    +0.000 HD
ENDBRANCH   5   9
BRANCH   1  11
ATOM     11  C   UNL     1       4.016   4.226  18.844  0.00  0.00    +0.000 C 
BRANCH  11  12
ATOM     12  C   UNL     1       2.694   4.770  18.282  0.00  0.00    +0.000 C 
BRANCH  12  14
ATOM     13  C   UNL     1       1.064   3.974  20.024  0.00  0.00    +0.000 C 
ATOM     14  C   UNL     1       1.506   3.854  18.575  0.00  0.00    +0.000 C 
ENDBRANCH  12  14
ENDBRANCH  11  12
ENDBRANCH   1  11
BRANCH   6  15
ATOM     15  C   UNL     1       6.747   5.392  19.476  0.00  0.00    +0.000 C 
BRANCH  15  16
ATOM     16  O   UNL     1       8.045   5.981  19.457  0.00  0.00    +0.000 OA
ATOM     17  H   UNL     1       8.655   5.308  19.095  0.00  0.00    +0.000 HD
ENDBRANCH  15  16
ENDBRANCH   6  15
TORSDOF 7
ENDMDL
MODEL 2
REMARK VINA RESULT:      -5.7      2.301      4.860
REMARK  Name = 
REMARK  8 active torsions:
REMARK  status: ('A' for Active; 'I' for Inactive)
REMARK    1  A    between atoms: C_1  and  C_2
REMARK    2  A    between atoms: C_2  and  C_3
REMARK    3  A    between atoms: C_3  and  C_4
REMARK    4  A    between atoms: C_4  and  N_5
REMARK    5  A    between atoms: C_8  and  O_9
REMARK    6  A    between atoms: C_10  and  O_11
REMARK    7  A    between atoms: C_12  and  C_13
REMARK    8  A    between atoms: C_13  and  O_14
REMARK                            x       y       z     vdW  Elec       q    Type
REMARK                         _______ _______ _______ _____ _____    ______ ____
ROOT
ATOM      1  N   UNL     1       5.749   4.100  16.353  0.00  0.00    +0.000 NA
ATOM      2  C   UNL     1       7.107   4.690  16.416  0.00  0.00    +0.000 C 
ATOM      3  C   UNL     1       7.720   4.687  17.810  0.00  0.00    +0.000 C 
ATOM      4  C   UNL     1       6.789   5.385  18.786  0.00  0.00    +0.000 C 
ATOM      5  C   UNL     1       5.407   4.727  18.762  0.00  0.00    +0.000 C 
ATOM      6  C   UNL     1       4.809   4.747  17.330  0.00  0.00    +0.000 C 
ENDROOT
BRANCH   4   7
ATOM      7  O   UNL     1       7.346   5.313  20.098  0.00  0.00    +0.000 OA
ATOM      8  H   UNL     1       8.245   4.948  19.983  0.00  0.00    +0.000 HD
ENDBRANCH   4   7
BRANCH   5   9
ATOM      9  O   UNL     1       5.530   3.374  19.244  0.00  0.00    +0.000 OA
ATOM     10  H   UNL     1       5.550   3.455  20.223  0.00  0.00    +0.000 HD
ENDBRANCH   5   9
BRANCH   1  11
ATOM     11  C   UNL     1       5.223   4.228  14.968  0.00  0.00    +0.000 C 
BRANCH  11  12
ATOM     12  C   UNL     1       6.197   3.852  13.840  0.00  0.00    +0.000 C 
BRANCH  12  14
ATOM     13  C   UNL     1       6.040   2.401  11.792  0.00  0.00    +0.000 C 
ATOM     14  C   UNL     1       5.493   3.628  12.502  0.00  0.00    +0.000 C 
ENDBRANCH  12  14
ENDBRANCH  11  12
ENDBRANCH   1  11
BRANCH   6  15
ATOM     15  C   UNL     1       3.393   4.095  17.386  0.00  0.00    +0.000 C 
BRANCH  15  16
ATOM     16  O   UNL     1       3.421   2.681  17.565  0.00  0.00    +0.000 OA
ATOM     17  H   UNL     1       4.361   2.412  17.540  0.00  0.00    +0.000 HD
ENDBRANCH  15  16
ENDBRANCH   6  15
TORSDOF 7
ENDMDL
MODEL 3
REMARK VINA RESULT:      -5.6      0.844      1.050
REMARK  Name = 
REMARK  8 active torsions:
REMARK  status: ('A' for Active; 'I' for Inactive)
REMARK    1  A    between atoms: C_1  and  C_2
REMARK    2  A    between atoms: C_2  and  C_3
REMARK    3  A    between atoms: C_3  and  C_4
REMARK    4  A    between atoms: C_4  and  N_5
REMARK    5  A    between atoms: C_8  and  O_9
REMARK    6  A    between atoms: C_10  and  O_11
REMARK    7  A    between atoms: C_12  and  C_13
REMARK    8  A    between atoms: C_13  and  O_14
REMARK                            x       y       z     vdW  Elec       q    Type
REMARK                         _______ _______ _______ _____ _____    ______ ____
ROOT
ATOM      1  N   UNL     1       5.176   4.113  17.882  0.00  0.00    +0.000 NA
ATOM      2  C   UNL     1       4.661   4.035  16.495  0.00  0.00    +0.000 C 
ATOM      3  C   UNL     1       5.749   4.049  15.428  0.00  0.00    +0.000 C 
ATOM      4  C   UNL     1       6.628   5.275  15.603  0.00  0.00    +0.000 C 
ATOM      5  C   UNL     1       7.209   5.313  17.019  0.00  0.00    +0.000 C 
ATOM      6  C   UNL     1       6.078   5.299  18.081  0.00  0.00    +0.000 C 
ENDROOT
BRANCH   4   7
ATOM      7  O   UNL     1       7.682   5.237  14.640  0.00  0.00    +0.000 OA
ATOM      8  H   UNL     1       7.684   6.119  14.218  0.00  0.00    +0.000 HD
ENDBRANCH   4   7
BRANCH   5   9
ATOM      9  O   UNL     1       8.084   4.180  17.191  0.00  0.00    +0.000 OA
ATOM     10  H   UNL     1       7.808   3.539  16.499  0.00  0.00    +0.000 HD
ENDBRANCH   5   9
BRANCH   1  11
ATOM     11  C   UNL     1       4.031   4.171  18.827  0.00  0.00    +0.000 C 
BRANCH  11  12
ATOM     12  C   UNL     1       3.681   2.858  19.543  0.00  0.00    +0.000 C 
BRANCH  12  14
ATOM     13  C   UNL     1       1.311   2.382  18.847  0.00  0.00    +0.000 C 
ATOM     14  C   UNL     1       2.765   1.958  18.713  0.00  0.00    +0.000 C 
ENDBRANCH  12  14
ENDBRANCH  11  12
ENDBRANCH   1  11
BRANCH   6  15
ATOM     15  C   UNL     1       6.738   5.374  19.493  0.00  0.00    +0.000 C 
BRANCH  15  16
ATOM     16  O   UNL     1       8.047   5.938  19.483  0.00  0.00    +0.000 OA
ATOM     17  H   UNL     1       8.594   5.371  18.904  0.00  0.00    +0.000 HD
ENDBRANCH  15  16
ENDBRANCH   6  15
TORSDOF 7
ENDMDL
MODEL 4
REMARK VINA RESULT:      -5.6      0.901      1.413
REMARK  Name = 
REMARK  8 active torsions:
REMARK  status: ('A' for Active; 'I' for Inactive)
REMARK    1  A    between atoms: C_1  and  C_2
REMARK    2  A    between atoms: C_2  and  C_3
REMARK    3  A    between atoms: C_3  and  C_4
REMARK    4  A    between atoms: C_4  and  N_5
REMARK    5  A    between atoms: C_8  and  O_9
REMARK    6  A    between atoms: C_10  and  O_11
REMARK    7  A    between atoms: C_12  and  C_13
REMARK    8  A    between atoms: C_13  and  O_14
REMARK                            x       y       z     vdW  Elec       q    Type
REMARK                         _______ _______ _______ _____ _____    ______ ____
ROOT
ATOM      1  N   UNL     1       5.090   4.102  17.679  0.00  0.00    +0.000 NA
ATOM      2  C   UNL     1       4.677   4.070  16.256  0.00  0.00    +0.000 C 
ATOM      3  C   UNL     1       5.839   4.097  15.272  0.00  0.00    +0.000 C 
ATOM      4  C   UNL     1       6.718   5.306  15.545  0.00  0.00    +0.000 C 
ATOM      5  C   UNL     1       7.194   5.297  17.001  0.00  0.00    +0.000 C 
ATOM      6  C   UNL     1       5.989   5.269  17.977  0.00  0.00    +0.000 C 
ENDROOT
BRANCH   4   7
ATOM      7  O   UNL     1       7.839   5.280  14.661  0.00  0.00    +0.000 OA
ATOM      8  H   UNL     1       7.480   5.490  13.776  0.00  0.00    +0.000 HD
ENDBRANCH   4   7
BRANCH   5   9
ATOM      9  O   UNL     1       8.041   4.147  17.203  0.00  0.00    +0.000 OA
ATOM     10  H   UNL     1       8.303   3.863  16.299  0.00  0.00    +0.000 HD
ENDBRANCH   5   9
BRANCH   1  11
ATOM     11  C   UNL     1       3.880   4.150  18.540  0.00  0.00    +0.000 C 
BRANCH  11  12
ATOM     12  C   UNL     1       2.681   4.926  17.973  0.00  0.00    +0.000 C 
BRANCH  12  14
ATOM     13  C   UNL     1       3.081   7.407  17.877  0.00  0.00    +0.000 C 
ATOM     14  C   UNL     1       2.462   6.268  18.671  0.00  0.00    +0.000 C 
ENDBRANCH  12  14
ENDBRANCH  11  12
ENDBRANCH   1  11
BRANCH   6  15
ATOM     15  C   UNL     1       6.544   5.296  19.434  0.00  0.00    +0.000 C 
BRANCH  15  16
ATOM     16  O   UNL     1       7.946   5.548  19.508  0.00  0.00    +0.000 OA
ATOM     17  H   UNL     1       8.191   6.015  18.684  0.00  0.00    +0.000 HD
ENDBRANCH  15  16
ENDBRANCH   6  15
TORSDOF 7
ENDMDL
MODEL 5
REMARK VINA RESULT:      -5.5      2.814      4.050
REMARK  Name = 
REMARK  8 active torsions:
REMARK  status: ('A' for Active; 'I' for Inactive)
REMARK    1  A    between atoms: C_1  and  C_2
REMARK    2  A    between atoms: C_2  and  C_3
REMARK    3  A    between atoms: C_3  and  C_4
REMARK    4  A    between atoms: C_4  and  N_5
REMARK    5  A    between atoms: C_8  and  O_9
REMARK    6  A    between atoms: C_10  and  O_11
REMARK    7  A    between atoms: C_12  and  C_13
REMARK    8  A    between atoms: C_13  and  O_14
REMARK                            x       y       z     vdW  Elec       q    Type
REMARK                         _______ _______ _______ _____ _____    ______ ____
ROOT
ATOM      1  N   UNL     1       3.145   4.645  19.667  0.00  0.00    +0.000 NA
ATOM      2  C   UNL     1       2.006   3.765  19.314  0.00  0.00    +0.000 C 
ATOM      3  C   UNL     1       2.359   2.285  19.262  0.00  0.00    +0.000 C 
ATOM      4  C   UNL     1       3.518   2.064  18.306  0.00  0.00    +0.000 C 
ATOM      5  C   UNL     1       4.714   2.928  18.716  0.00  0.00    +0.000 C 
ATOM      6  C   UNL     1       4.323   4.428  18.760  0.00  0.00    +0.000 C 
ENDROOT
BRANCH   4   7
ATOM      7  O   UNL     1       3.881   0.683  18.319  0.00  0.00    +0.000 OA
ATOM      8  H   UNL     1       4.827   0.658  18.077  0.00  0.00    +0.000 HD
ENDBRANCH   4   7
BRANCH   5   9
ATOM      9  O   UNL     1       5.184   2.485  20.005  0.00  0.00    +0.000 OA
ATOM     10  H   UNL     1       5.336   3.310  20.517  0.00  0.00    +0.000 HD
ENDBRANCH   5   9
BRANCH   1  11
ATOM     11  C   UNL     1       2.705   6.063  19.612  0.00  0.00    +0.000 C 
BRANCH  11  12
ATOM     12  C   UNL     1       2.264   6.579  18.233  0.00  0.00    +0.000 C 
BRANCH  12  14
ATOM     13  C   UNL     1       1.827   9.024  17.841  0.00  0.00    +0.000 C 
ATOM     14  C   UNL     1       2.883   7.931  17.883  0.00  0.00    +0.000 C 
ENDBRANCH  12  14
ENDBRANCH  11  12
ENDBRANCH   1  11
BRANCH   6  15
ATOM     15  C   UNL     1       5.592   5.249  19.149  0.00  0.00    +0.000 C 
BRANCH  15  16
ATOM     16  O   UNL     1       6.817   4.603  18.811  0.00  0.00    +0.000 OA
ATOM     17  H   UNL     1       6.908   3.838  19.414  0.00  0.00    +0.000 HD
ENDBRANCH  15  16
ENDBRANCH   6  15
TORSDOF 7
ENDMDL
MODEL 6
REMARK VINA RESULT:      -5.5      1.843      2.385
REMARK  Name = 
REMARK  8 active torsions:
REMARK  status: ('A' for Active; 'I' for Inactive)
REMARK    1  A    between atoms: C_1  and  C_2
REMARK    2  A    between atoms: C_2  and  C_3
REMARK    3  A    between atoms: C_3  and  C_4
REMARK    4  A    between atoms: C_4  and  N_5
REMARK    5  A    between atoms: C_8  and  O_9
REMARK    6  A    between atoms: C_10  and  O_11
REMARK    7  A    between atoms: C_12  and  C_13
REMARK    8  A    between atoms: C_13  and  O_14
REMARK                            x       y       z     vdW  Elec       q    Type
REMARK                         _______ _______ _______ _____ _____    ______ ____
ROOT
ATOM      1  N   UNL     1       3.740   5.165  18.056  0.00  0.00    +0.000 NA
ATOM      2  C   UNL     1       3.933   6.496  17.434  0.00  0.00    +0.000 C 
ATOM      3  C   UNL     1       5.133   6.576  16.500  0.00  0.00    +0.000 C 
ATOM      4  C   UNL     1       6.390   6.144  17.236  0.00  0.00    +0.000 C 
ATOM      5  C   UNL     1       6.206   4.741  17.821  0.00  0.00    +0.000 C 
ATOM      6  C   UNL     1       4.977   4.693  18.767  0.00  0.00    +0.000 C 
ENDROOT
BRANCH   4   7
ATOM      7  O   UNL     1       7.493   6.159  16.330  0.00  0.00    +0.000 OA
ATOM      8  H   UNL     1       7.555   5.250  15.977  0.00  0.00    +0.000 HD
ENDBRANCH   4   7
BRANCH   5   9
ATOM      9  O   UNL     1       6.051   3.804  16.736  0.00  0.00    +0.000 OA
ATOM     10  H   UNL     1       6.951   3.438  16.586  0.00  0.00    +0.000 HD
ENDBRANCH   5   9
BRANCH   1  11
ATOM     11  C   UNL     1       2.594   5.227  19.001  0.00  0.00    +0.000 C 
BRANCH  11  12
ATOM     12  C   UNL     1       1.471   4.206  18.765  0.00  0.00    +0.000 C 
BRANCH  12  14
ATOM     13  C   UNL     1       1.875   3.862  21.223  0.00  0.00    +0.000 C 
ATOM     14  C   UNL     1       0.920   3.622  20.065  0.00  0.00    +0.000 C 
ENDBRANCH  12  14
ENDBRANCH  11  12
ENDBRANCH   1  11
BRANCH   6  15
ATOM     15  C   UNL     1       4.871   3.250  19.350  0.00  0.00    +0.000 C 
BRANCH  15  16
ATOM     16  O   UNL     1       4.393   2.288  18.413  0.00  0.00    +0.000 OA
ATOM     17  H   UNL     1       5.115   2.137  17.772  0.00  0.00    +0.000 HD
ENDBRANCH  15  16
ENDBRANCH   6  15
TORSDOF 7
ENDMDL
MODEL 7
REMARK VINA RESULT:      -5.4      1.320      3.046
REMARK  Name = 
REMARK  8 active torsions:
REMARK  status: ('A' for Active; 'I' for Inactive)
REMARK    1  A    between atoms: C_1  and  C_2
REMARK    2  A    between atoms: C_2  and  C_3
REMARK    3  A    between atoms: C_3  and  C_4
REMARK    4  A    between atoms: C_4  and  N_5
REMARK    5  A    between atoms: C_8  and  O_9
REMARK    6  A    between atoms: C_10  and  O_11
REMARK    7  A    between atoms: C_12  and  C_13
REMARK    8  A    between atoms: C_13  and  O_14
REMARK                            x       y       z     vdW  Elec       q    Type
REMARK                         _______ _______ _______ _____ _____    ______ ____
ROOT
ATOM      1  N   UNL     1       5.056   4.641  17.284  0.00  0.00    +0.000 NA
ATOM      2  C   UNL     1       5.184   4.562  18.758  0.00  0.00    +0.000 C 
ATOM      3  C   UNL     1       6.136   5.590  19.354  0.00  0.00    +0.000 C 
ATOM      4  C   UNL     1       7.499   5.476  18.693  0.00  0.00    +0.000 C 
ATOM      5  C   UNL     1       7.366   5.624  17.175  0.00  0.00    +0.000 C 
ATOM      6  C   UNL     1       6.391   4.564  16.599  0.00  0.00    +0.000 C 
ENDROOT
BRANCH   4   7
ATOM      7  O   UNL     1       8.359   6.490  19.213  0.00  0.00    +0.000 OA
ATOM      8  H   UNL     1       9.195   6.036  19.436  0.00  0.00    +0.000 HD
ENDBRANCH   4   7
BRANCH   5   9
ATOM      9  O   UNL     1       6.902   6.957  16.879  0.00  0.00    +0.000 OA
ATOM     10  H   UNL     1       7.403   7.542  17.490  0.00  0.00    +0.000 HD
ENDBRANCH   5   9
BRANCH   1  11
ATOM     11  C   UNL     1       4.168   3.547  16.809  0.00  0.00    +0.000 C 
BRANCH  11  12
ATOM     12  C   UNL     1       2.718   3.589  17.316  0.00  0.00    +0.000 C 
BRANCH  12  14
ATOM     13  C   UNL     1       0.981   2.452  18.736  0.00  0.00    +0.000 C 
ATOM     14  C   UNL     1       2.283   2.278  17.970  0.00  0.00    +0.000 C 
ENDBRANCH  12  14
ENDBRANCH  11  12
ENDBRANCH   1  11
BRANCH   6  15
ATOM     15  C   UNL     1       6.330   4.751  15.051  0.00  0.00    +0.000 C 
BRANCH  15  16
ATOM     16  O   UNL     1       7.506   5.341  14.500  0.00  0.00    +0.000 OA
ATOM     17  H   UNL     1       8.250   4.746  14.722  0.00  0.00    +0.000 HD
ENDBRANCH  15  16
ENDBRANCH   6  15
TORSDOF 7
ENDMDL
MODEL 8
REMARK VINA RESULT:      -5.4      1.584      1.889
REMARK  Name = 
REMARK  8 active torsions:
REMARK  status: ('A' for Active; 'I' for Inactive)
REMARK    1  A    between atoms: C_1  and  C_2
REMARK    2  A    between atoms: C_2  and  C_3
REMARK    3  A    between atoms: C_3  and  C_4
REMARK    4  A    between atoms: C_4  and  N_5
REMARK    5  A    between atoms: C_8  and  O_9
REMARK    6  A    between atoms: C_10  and  O_11
REMARK    7  A    between atoms: C_12  and  C_13
REMARK    8  A    between atoms: C_13  and  O_14
REMARK                            x       y       z     vdW  Elec       q    Type
REMARK                         _______ _______ _______ _____ _____    ______ ____
ROOT
ATOM      1  N   UNL     1       4.497   3.654  17.091  0.00  0.00    +0.000 NA
ATOM      2  C   UNL     1       4.655   4.377  15.807  0.00  0.00    +0.000 C 
ATOM      3  C   UNL     1       6.012   5.046  15.635  0.00  0.00    +0.000 C 
ATOM      4  C   UNL     1       6.283   5.974  16.806  0.00  0.00    +0.000 C 
ATOM      5  C   UNL     1       6.182   5.204  18.127  0.00  0.00    +0.000 C 
ATOM      6  C   UNL     1       4.790   4.536  18.272  0.00  0.00    +0.000 C 
ENDROOT
BRANCH   4   7
ATOM      7  O   UNL     1       7.586   6.540  16.665  0.00  0.00    +0.000 OA
ATOM      8  H   UNL     1       7.900   6.706  17.575  0.00  0.00    +0.000 HD
ENDBRANCH   4   7
BRANCH   5   9
ATOM      9  O   UNL     1       7.230   4.215  18.166  0.00  0.00    +0.000 OA
ATOM     10  H   UNL     1       7.354   4.014  19.120  0.00  0.00    +0.000 HD
ENDBRANCH   5   9
BRANCH   1  11
ATOM     11  C   UNL     1       3.116   3.112  17.182  0.00  0.00    +0.000 C 
BRANCH  11  12
ATOM     12  C   UNL     1       2.050   4.073  17.730  0.00  0.00    +0.000 C 
BRANCH  12  14
ATOM     13  C   UNL     1       1.070   4.043  20.046  0.00  0.00    +0.000 C 
ATOM     14  C   UNL     1       1.065   3.386  18.675  0.00  0.00    +0.000 C 
ENDBRANCH  12  14
ENDBRANCH  11  12
ENDBRANCH   1  11
BRANCH   6  15
ATOM     15  C   UNL     1       4.746   3.802  19.648  0.00  0.00    +0.000 C 
BRANCH  15  16
ATOM     16  O   UNL     1       5.303   2.490  19.615  0.00  0.00    +0.000 OA
ATOM     17  H   UNL     1       4.557   1.865  19.712  0.00  0.00    +0.000 HD
ENDBRANCH  15  16
ENDBRANCH   6  15
TORSDOF 7
ENDMDL
MODEL 9
REMARK VINA RESULT:      -5.4      1.902      2.562
REMARK  Name = 
REMARK  8 active torsions:
REMARK  status: ('A' for Active; 'I' for Inactive)
REMARK    1  A    between atoms: C_1  and  C_2
REMARK    2  A    between atoms: C_2  and  C_3
REMARK    3  A    between atoms: C_3  and  C_4
REMARK    4  A    between atoms: C_4  and  N_5
REMARK    5  A    between atoms: C_8  and  O_9
REMARK    6  A    between atoms: C_10  and  O_11
REMARK    7  A    between atoms: C_12  and  C_13
REMARK    8  A    between atoms: C_13  and  O_14
REMARK                            x       y       z     vdW  Elec       q    Type
REMARK                         _______ _______ _______ _____ _____    ______ ____
ROOT
ATOM      1  N   UNL     1       3.582   5.167  17.773  0.00  0.00    +0.000 NA
ATOM      2  C   UNL     1       3.996   6.562  17.492  0.00  0.00    +0.000 C 
ATOM      3  C   UNL     1       5.366   6.682  16.837  0.00  0.00    +0.000 C 
ATOM      4  C   UNL     1       6.409   5.977  17.687  0.00  0.00    +0.000 C 
ATOM      5  C   UNL     1       6.005   4.518  17.918  0.00  0.00    +0.000 C 
ATOM      6  C   UNL     1       4.608   4.430  18.586  0.00  0.00    +0.000 C 
ENDROOT
BRANCH   4   7
ATOM      7  O   UNL     1       7.673   6.040  17.026  0.00  0.00    +0.000 OA
ATOM      8  H   UNL     1       7.555   5.553  16.187  0.00  0.00    +0.000 HD
ENDBRANCH   4   7
BRANCH   5   9
ATOM      9  O   UNL     1       6.009   3.831  16.650  0.00  0.00    +0.000 OA
ATOM     10  H   UNL     1       6.029   4.545  15.975  0.00  0.00    +0.000 HD
ENDBRANCH   5   9
BRANCH   1  11
ATOM     11  C   UNL     1       2.274   5.177  18.478  0.00  0.00    +0.000 C 
BRANCH  11  12
ATOM     12  C   UNL     1       2.266   5.819  19.875  0.00  0.00    +0.000 C 
BRANCH  12  14
ATOM     13  C   UNL     1       1.010   3.712  20.426  0.00  0.00    +0.000 C 
ATOM     14  C   UNL     1       1.874   4.835  20.976  0.00  0.00    +0.000 C 
ENDBRANCH  12  14
ENDBRANCH  11  12
ENDBRANCH   1  11
BRANCH   6  15
ATOM     15  C   UNL     1       4.278   2.923  18.822  0.00  0.00    +0.000 C 
BRANCH  15  16
ATOM     16  O   UNL     1       5.096   2.307  19.814  0.00  0.00    +0.000 OA
ATOM     17  H   UNL     1       5.504   3.029  20.331  0.00  0.00    +0.000 HD
ENDBRANCH  15  16
ENDBRANCH   6  15
TORSDOF 7
ENDMDL
