MODEL 1
REMARK VINA RESULT:      -7.9      0.000      0.000
REMARK  Name = 
REMARK  10 active torsions:
REMARK  status: ('A' for Active; 'I' for Inactive)
REMARK    1  A    between atoms: C_1  and  C_2
REMARK    2  A    between atoms: C_2  and  O_3
REMARK    3  A    between atoms: O_3  and  C_4
REMARK    4  A    between atoms: C_9  and  N_10
REMARK    5  A    between atoms: N_10  and  C_11
REMARK    6  A    between atoms: N_10  and  C_12
REMARK    7  A    between atoms: N_16  and  C_17
REMARK    8  A    between atoms: C_17  and  C_18
REMARK    9  A    between atoms: C_18  and  C_19
REMARK   10  A    between atoms: C_19  and  C_20
REMARK                            x       y       z     vdW  Elec       q    Type
REMARK                         _______ _______ _______ _____ _____    ______ ____
ROOT
ATOM      1  C   UNL     1       2.835   6.314  19.337  0.00  0.00    +0.000 C 
ATOM      2  C   UNL     1       2.528   6.504  17.835  0.00  0.00    +0.000 C 
ATOM      3  C   UNL     1       2.826   7.952  17.482  0.00  0.00    +0.000 C 
ATOM      4  C   UNL     1       1.844   8.858  18.208  0.00  0.00    +0.000 C 
ATOM      5  N   UNL     1       1.888   8.659  19.663  0.00  0.00    +0.000 NA
ATOM      6  C   UNL     1       1.803   7.230  20.063  0.00  0.00    +0.000 C 
ENDROOT
BRANCH   1   7
ATOM      7  N   UNL     1       2.853   4.880  19.783  0.00  0.00    +0.000 NA
ATOM      8  C   UNL     1       1.738   4.159  19.166  0.00  0.00    +0.000 C 
BRANCH   7  14
ATOM      9  C   UNL     1       6.383   4.811  15.837  0.00  0.00    +0.000 C 
ATOM     10  O   UNL     1       7.241   5.671  15.720  0.00  0.00    +0.000 OA
ATOM     11  N   UNL     1       5.673   4.574  17.010  0.00  0.00    +0.000 N 
ATOM     12  C   UNL     1       5.731   5.612  18.029  0.00  0.00    +0.000 C 
ATOM     13  C   UNL     1       5.436   5.094  19.431  0.00  0.00    +0.000 C 
ATOM     14  C   UNL     1       4.176   4.208  19.551  0.00  0.00    +0.000 C 
ATOM     15  C   UNL     1       4.180   3.167  18.408  0.00  0.00    +0.000 C 
ATOM     16  C   UNL     1       4.502   3.707  17.021  0.00  0.00    +0.000 C 
BRANCH   9  17
ATOM     17  O   UNL     1       5.981   4.000  14.815  0.00  0.00    +0.000 OA
BRANCH  17  19
ATOM     18  C   UNL     1       5.965   3.368  12.467  0.00  0.00    +0.000 C 
ATOM     19  C   UNL     1       6.586   4.248  13.539  0.00  0.00    +0.000 C 
ENDBRANCH  17  19
ENDBRANCH   9  17
ENDBRANCH   7  14
ENDBRANCH   1   7
BRANCH   5  20
ATOM     20  C   UNL     1       0.831   9.469  20.296  0.00  0.00    +0.000 C 
BRANCH  20  21
ATOM     21  C   UNL     1       0.357  10.601  19.388  0.00  0.00    +0.000 C 
BRANCH  21  22
ATOM     22  C   UNL     1      -1.033  11.098  19.761  0.00  0.00    +0.000 C 
BRANCH  22  23
ATOM     23  C   UNL     1      -1.951  10.857  18.590  0.00  0.00    +0.000 A 
ATOM     24  C   UNL     1      -1.535  10.057  17.520  0.00  0.00    +0.000 A 
ATOM     25  C   UNL     1      -2.329   9.939  16.381  0.00  0.00    +0.000 A 
ATOM     26  C   UNL     1      -3.546  10.616  16.306  0.00  0.00    +0.000 A 
ATOM     27  C   UNL     1      -3.969  11.413  17.368  0.00  0.00    +0.000 A 
ATOM     28  C   UNL     1      -3.175  11.536  18.506  0.00  0.00    +0.000 A 
ENDBRANCH  22  23
ENDBRANCH  21  22
ENDBRANCH  20  21
ENDBRANCH   5  20
TORSDOF 8
ENDMDL
MODEL 2
REMARK VINA RESULT:      -7.7      2.011      2.568
REMARK  Name = 
REMARK  10 active torsions:
REMARK  status: ('A' for Active; 'I' for Inactive)
REMARK    1  A    between atoms: C_1  and  C_2
REMARK    2  A    between atoms: C_2  and  O_3
REMARK    3  A    between atoms: O_3  and  C_4
REMARK    4  A    between atoms: C_9  and  N_10
REMARK    5  A    between atoms: N_10  and  C_11
REMARK    6  A    between atoms: N_10  and  C_12
REMARK    7  A    between atoms: N_16  and  C_17
REMARK    8  A    between atoms: C_17  and  C_18
REMARK    9  A    between atoms: C_18  and  C_19
REMARK   10  A    between atoms: C_19  and  C_20
REMARK                            x       y       z     vdW  Elec       q    Type
REMARK                         _______ _______ _______ _____ _____    ______ ____
ROOT
ATOM      1  C   UNL     1       2.636   5.772  19.352  0.00  0.00    +0.000 C 
ATOM      2  C   UNL     1       2.185   6.413  18.020  0.00  0.00    +0.000 C 
ATOM      3  C   UNL     1       2.531   7.893  18.080  0.00  0.00    +0.000 C 
ATOM      4  C   UNL     1       1.686   8.562  19.151  0.00  0.00    +0.000 C 
ATOM      5  N   UNL     1       1.870   7.934  20.467  0.00  0.00    +0.000 NA
ATOM      6  C   UNL     1       1.743   6.454  20.433  0.00  0.00    +0.000 C 
ENDROOT
BRANCH   1   7
ATOM      7  N   UNL     1       2.615   4.270  19.348  0.00  0.00    +0.000 NA
ATOM      8  C   UNL     1       1.486   3.797  18.546  0.00  0.00    +0.000 C 
BRANCH   7  14
ATOM      9  C   UNL     1       6.563   5.744  16.143  0.00  0.00    +0.000 C 
ATOM     10  O   UNL     1       7.470   6.468  16.521  0.00  0.00    +0.000 OA
ATOM     11  N   UNL     1       5.714   5.047  16.997  0.00  0.00    +0.000 N 
ATOM     12  C   UNL     1       5.706   5.466  18.391  0.00  0.00    +0.000 C 
ATOM     13  C   UNL     1       5.229   4.375  19.343  0.00  0.00    +0.000 C 
ATOM     14  C   UNL     1       3.922   3.665  18.923  0.00  0.00    +0.000 C 
ATOM     15  C   UNL     1       4.006   3.297  17.423  0.00  0.00    +0.000 C 
ATOM     16  C   UNL     1       4.509   4.397  16.499  0.00  0.00    +0.000 C 
BRANCH   9  17
ATOM     17  O   UNL     1       6.242   5.559  14.828  0.00  0.00    +0.000 OA
BRANCH  17  19
ATOM     18  C   UNL     1       6.202   3.722  13.237  0.00  0.00    +0.000 C 
ATOM     19  C   UNL     1       7.058   4.627  14.105  0.00  0.00    +0.000 C 
ENDBRANCH  17  19
ENDBRANCH   9  17
ENDBRANCH   7  14
ENDBRANCH   1   7
BRANCH   5  20
ATOM     20  C   UNL     1       0.935   8.543  21.431  0.00  0.00    +0.000 C 
BRANCH  20  21
ATOM     21  C   UNL     1       0.097   9.648  20.794  0.00  0.00    +0.000 C 
BRANCH  21  22
ATOM     22  C   UNL     1       0.379  11.013  21.407  0.00  0.00    +0.000 C 
BRANCH  22  23
ATOM     23  C   UNL     1      -0.940  11.667  21.731  0.00  0.00    +0.000 A 
ATOM     24  C   UNL     1      -1.459  11.605  23.030  0.00  0.00    +0.000 A 
ATOM     25  C   UNL     1      -2.735  12.095  23.300  0.00  0.00    +0.000 A 
ATOM     26  C   UNL     1      -3.500  12.654  22.277  0.00  0.00    +0.000 A 
ATOM     27  C   UNL     1      -2.990  12.722  20.981  0.00  0.00    +0.000 A 
ATOM     28  C   UNL     1      -1.716  12.228  20.707  0.00  0.00    +0.000 A 
ENDBRANCH  22  23
ENDBRANCH  21  22
ENDBRANCH  20  21
ENDBRANCH   5  20
TORSDOF 8
ENDMDL
MODEL 3
REMARK VINA RESULT:      -7.5      1.932      2.586
REMARK  Name = 
REMARK  10 active torsions:
REMARK  status: ('A' for Active; 'I' for Inactive)
REMARK    1  A    between atoms: C_1  and  C_2
REMARK    2  A    between atoms: C_2  and  O_3
REMARK    3  A    between atoms: O_3  and  C_4
REMARK    4  A    between atoms: C_9  and  N_10
REMARK    5  A    between atoms: N_10  and  C_11
REMARK    6  A    between atoms: N_10  and  C_12
REMARK    7  A    between atoms: N_16  and  C_17
REMARK    8  A    between atoms: C_17  and  C_18
REMARK    9  A    between atoms: C_18  and  C_19
REMARK   10  A    between atoms: C_19  and  C_20
REMARK                            x       y       z     vdW  Elec       q    Type
REMARK                         _______ _______ _______ _____ _____    ______ ____
ROOT
ATOM      1  C   UNL     1       2.643   6.393  19.383  0.00  0.00    +0.000 C 
ATOM      2  C   UNL     1       2.151   6.956  18.030  0.00  0.00    +0.000 C 
ATOM      3  C   UNL     1       2.402   8.456  18.037  0.00  0.00    +0.000 C 
ATOM      4  C   UNL     1       1.516   9.108  19.087  0.00  0.00    +0.000 C 
ATOM      5  N   UNL     1       1.741   8.539  20.423  0.00  0.00    +0.000 NA
ATOM      6  C   UNL     1       1.707   7.054  20.441  0.00  0.00    +0.000 C 
ENDROOT
BRANCH   1   7
ATOM      7  N   UNL     1       2.717   4.893  19.431  0.00  0.00    +0.000 NA
ATOM      8  C   UNL     1       1.882   4.325  18.372  0.00  0.00    +0.000 C 
BRANCH   7  14
ATOM      9  C   UNL     1       6.551   4.667  15.786  0.00  0.00    +0.000 C 
ATOM     10  O   UNL     1       7.308   5.602  15.582  0.00  0.00    +0.000 OA
ATOM     11  N   UNL     1       5.778   4.526  16.934  0.00  0.00    +0.000 N 
ATOM     12  C   UNL     1       5.626   5.711  17.766  0.00  0.00    +0.000 C 
ATOM     13  C   UNL     1       5.277   5.387  19.214  0.00  0.00    +0.000 C 
ATOM     14  C   UNL     1       4.126   4.373  19.400  0.00  0.00    +0.000 C 
ATOM     15  C   UNL     1       4.350   3.174  18.450  0.00  0.00    +0.000 C 
ATOM     16  C   UNL     1       4.722   3.526  17.015  0.00  0.00    +0.000 C 
BRANCH   9  17
ATOM     17  O   UNL     1       6.337   3.658  14.890  0.00  0.00    +0.000 OA
BRANCH  17  19
ATOM     18  C   UNL     1       6.512   3.628  12.466  0.00  0.00    +0.000 C 
ATOM     19  C   UNL     1       5.679   4.028  13.671  0.00  0.00    +0.000 C 
ENDBRANCH  17  19
ENDBRANCH   9  17
ENDBRANCH   7  14
ENDBRANCH   1   7
BRANCH   5  20
ATOM     20  C   UNL     1       0.769   9.120  21.368  0.00  0.00    +0.000 C 
BRANCH  20  21
ATOM     21  C   UNL     1      -0.199  10.076  20.676  0.00  0.00    +0.000 C 
BRANCH  21  22
ATOM     22  C   UNL     1      -0.116  11.490  21.236  0.00  0.00    +0.000 C 
BRANCH  22  23
ATOM     23  C   UNL     1      -1.484  11.884  21.730  0.00  0.00    +0.000 A 
ATOM     24  C   UNL     1      -2.353  12.604  20.902  0.00  0.00    +0.000 A 
ATOM     25  C   UNL     1      -3.564  13.081  21.400  0.00  0.00    +0.000 A 
ATOM     26  C   UNL     1      -3.917  12.838  22.727  0.00  0.00    +0.000 A 
ATOM     27  C   UNL     1      -3.059  12.119  23.558  0.00  0.00    +0.000 A 
ATOM     28  C   UNL     1      -1.845  11.645  23.063  0.00  0.00    +0.000 A 
ENDBRANCH  22  23
ENDBRANCH  21  22
ENDBRANCH  20  21
ENDBRANCH   5  20
TORSDOF 8
ENDMDL
MODEL 4
REMARK VINA RESULT:      -7.4      1.499      2.080
REMARK  Name = 
REMARK  10 active torsions:
REMARK  status: ('A' for Active; 'I' for Inactive)
REMARK    1  A    between atoms: C_1  and  C_2
REMARK    2  A    between atoms: C_2  and  O_3
REMARK    3  A    between atoms: O_3  and  C_4
REMARK    4  A    between atoms: C_9  and  N_10
REMARK    5  A    between atoms: N_10  and  C_11
REMARK    6  A    between atoms: N_10  and  C_12
REMARK    7  A    between atoms: N_16  and  C_17
REMARK    8  A    between atoms: C_17  and  C_18
REMARK    9  A    between atoms: C_18  and  C_19
REMARK   10  A    between atoms: C_19  and  C_20
REMARK                            x       y       z     vdW  Elec       q    Type
REMARK                         _______ _______ _______ _____ _____    ______ ____
ROOT
ATOM      1  C   UNL     1       2.574   6.273  19.378  0.00  0.00    +0.000 C 
ATOM      2  C   UNL     1       2.042   6.981  18.111  0.00  0.00    +0.000 C 
ATOM      3  C   UNL     1       2.325   8.468  18.260  0.00  0.00    +0.000 C 
ATOM      4  C   UNL     1       1.496   9.024  19.406  0.00  0.00    +0.000 C 
ATOM      5  N   UNL     1       1.760   8.317  20.668  0.00  0.00    +0.000 NA
ATOM      6  C   UNL     1       1.695   6.838  20.536  0.00  0.00    +0.000 C 
ENDROOT
BRANCH   1   7
ATOM      7  N   UNL     1       2.617   4.776  19.270  0.00  0.00    +0.000 NA
ATOM      8  C   UNL     1       1.817   4.341  18.124  0.00  0.00    +0.000 C 
BRANCH   7  14
ATOM      9  C   UNL     1       6.545   4.713  15.721  0.00  0.00    +0.000 C 
ATOM     10  O   UNL     1       7.326   5.643  15.600  0.00  0.00    +0.000 OA
ATOM     11  N   UNL     1       5.738   4.511  16.836  0.00  0.00    +0.000 N 
ATOM     12  C   UNL     1       5.586   5.640  17.742  0.00  0.00    +0.000 C 
ATOM     13  C   UNL     1       5.191   5.227  19.155  0.00  0.00    +0.000 C 
ATOM     14  C   UNL     1       4.016   4.228  19.241  0.00  0.00    +0.000 C 
ATOM     15  C   UNL     1       4.243   3.092  18.218  0.00  0.00    +0.000 C 
ATOM     16  C   UNL     1       4.661   3.531  16.821  0.00  0.00    +0.000 C 
BRANCH   9  17
ATOM     17  O   UNL     1       6.336   3.771  14.753  0.00  0.00    +0.000 OA
BRANCH  17  19
ATOM     18  C   UNL     1       5.864   3.360  12.404  0.00  0.00    +0.000 C 
ATOM     19  C   UNL     1       6.669   4.161  13.413  0.00  0.00    +0.000 C 
ENDBRANCH  17  19
ENDBRANCH   9  17
ENDBRANCH   7  14
ENDBRANCH   1   7
BRANCH   5  20
ATOM     20  C   UNL     1       0.839   8.815  21.705  0.00  0.00    +0.000 C 
BRANCH  20  21
ATOM     21  C   UNL     1      -0.374   9.520  21.103  0.00  0.00    +0.000 C 
BRANCH  21  22
ATOM     22  C   UNL     1      -0.615  10.889  21.725  0.00  0.00    +0.000 C 
BRANCH  22  23
ATOM     23  C   UNL     1      -0.546  11.924  20.631  0.00  0.00    +0.000 A 
ATOM     24  C   UNL     1      -1.203  11.709  19.414  0.00  0.00    +0.000 A 
ATOM     25  C   UNL     1      -1.033  12.602  18.358  0.00  0.00    +0.000 A 
ATOM     26  C   UNL     1      -0.210  13.717  18.511  0.00  0.00    +0.000 A 
ATOM     27  C   UNL     1       0.447  13.939  19.721  0.00  0.00    +0.000 A 
ATOM     28  C   UNL     1       0.283  13.045  20.777  0.00  0.00    +0.000 A 
ENDBRANCH  22  23
ENDBRANCH  21  22
ENDBRANCH  20  21
ENDBRANCH   5  20
TORSDOF 8
ENDMDL
MODEL 5
REMARK VINA RESULT:      -7.4      2.400      3.094
REMARK  Name = 
REMARK  10 active torsions:
REMARK  status: ('A' for Active; 'I' for Inactive)
REMARK    1  A    between atoms: C_1  and  C_2
REMARK    2  A    between atoms: C_2  and  O_3
REMARK    3  A    between atoms: O_3  and  C_4
REMARK    4  A    between atoms: C_9  and  N_10
REMARK    5  A    between atoms: N_10  and  C_11
REMARK    6  A    between atoms: N_10  and  C_12
REMARK    7  A    between atoms: N_16  and  C_17
REMARK    8  A    between atoms: C_17  and  C_18
REMARK    9  A    between atoms: C_18  and  C_19
REMARK   10  A    between atoms: C_19  and  C_20
REMARK                            x       y       z     vdW  Elec       q    Type
REMARK                         _______ _______ _______ _____ _____    ______ ____
ROOT
ATOM      1  C   UNL     1       2.690   5.776  19.377  0.00  0.00    +0.000 C 
ATOM      2  C   UNL     1       2.234   6.417  18.047  0.00  0.00    +0.000 C 
ATOM      3  C   UNL     1       2.597   7.893  18.099  0.00  0.00    +0.000 C 
ATOM      4  C   UNL     1       1.769   8.576  19.176  0.00  0.00    +0.000 C 
ATOM      5  N   UNL     1       1.959   7.949  20.493  0.00  0.00    +0.000 NA
ATOM      6  C   UNL     1       1.814   6.471  20.464  0.00  0.00    +0.000 C 
ENDROOT
BRANCH   1   7
ATOM      7  N   UNL     1       2.653   4.274  19.378  0.00  0.00    +0.000 NA
ATOM      8  C   UNL     1       1.493   3.811  18.613  0.00  0.00    +0.000 C 
BRANCH   7  14
ATOM      9  C   UNL     1       6.541   5.719  16.089  0.00  0.00    +0.000 C 
ATOM     10  O   UNL     1       7.468   6.426  16.451  0.00  0.00    +0.000 OA
ATOM     11  N   UNL     1       5.703   5.027  16.957  0.00  0.00    +0.000 N 
ATOM     12  C   UNL     1       5.737   5.431  18.355  0.00  0.00    +0.000 C 
ATOM     13  C   UNL     1       5.266   4.338  19.307  0.00  0.00    +0.000 C 
ATOM     14  C   UNL     1       3.939   3.653  18.914  0.00  0.00    +0.000 C 
ATOM     15  C   UNL     1       3.979   3.300  17.409  0.00  0.00    +0.000 C 
ATOM     16  C   UNL     1       4.476   4.401  16.483  0.00  0.00    +0.000 C 
BRANCH   9  17
ATOM     17  O   UNL     1       6.184   5.553  14.781  0.00  0.00    +0.000 OA
BRANCH  17  19
ATOM     18  C   UNL     1       6.271   3.745  13.158  0.00  0.00    +0.000 C 
ATOM     19  C   UNL     1       7.061   4.744  13.986  0.00  0.00    +0.000 C 
ENDBRANCH  17  19
ENDBRANCH   9  17
ENDBRANCH   7  14
ENDBRANCH   1   7
BRANCH   5  20
ATOM     20  C   UNL     1       1.040   8.571  21.463  0.00  0.00    +0.000 C 
BRANCH  20  21
ATOM     21  C   UNL     1       0.408   9.848  20.915  0.00  0.00    +0.000 C 
BRANCH  21  22
ATOM     22  C   UNL     1      -0.773  10.315  21.755  0.00  0.00    +0.000 C 
BRANCH  22  23
ATOM     23  C   UNL     1      -0.566  11.769  22.095  0.00  0.00    +0.000 A 
ATOM     24  C   UNL     1      -1.351  12.383  23.077  0.00  0.00    +0.000 A 
ATOM     25  C   UNL     1      -1.250  13.755  23.301  0.00  0.00    +0.000 A 
ATOM     26  C   UNL     1      -0.360  14.521  22.549  0.00  0.00    +0.000 A 
ATOM     27  C   UNL     1       0.428  13.917  21.570  0.00  0.00    +0.000 A 
ATOM     28  C   UNL     1       0.325  12.546  21.341  0.00  0.00    +0.000 A 
ENDBRANCH  22  23
ENDBRANCH  21  22
ENDBRANCH  20  21
ENDBRANCH   5  20
TORSDOF 8
ENDMDL
MODEL 6
REMARK VINA RESULT:      -7.3      2.068      2.561
REMARK  Name = 
REMARK  10 active torsions:
REMARK  status: ('A' for Active; 'I' for Inactive)
REMARK    1  A    between atoms: C_1  and  C_2
REMARK    2  A    between atoms: C_2  and  O_3
REMARK    3  A    between atoms: O_3  and  C_4
REMARK    4  A    between atoms: C_9  and  N_10
REMARK    5  A    between atoms: N_10  and  C_11
REMARK    6  A    between atoms: N_10  and  C_12
REMARK    7  A    between atoms: N_16  and  C_17
REMARK    8  A    between atoms: C_17  and  C_18
REMARK    9  A    between atoms: C_18  and  C_19
REMARK   10  A    between atoms: C_19  and  C_20
REMARK                            x       y       z     vdW  Elec       q    Type
REMARK                         _______ _______ _______ _____ _____    ______ ____
ROOT
ATOM      1  C   UNL     1       2.682   5.374  19.454  0.00  0.00    +0.000 C 
ATOM      2  C   UNL     1       2.348   6.141  18.154  0.00  0.00    +0.000 C 
ATOM      3  C   UNL     1       2.647   7.612  18.397  0.00  0.00    +0.000 C 
ATOM      4  C   UNL     1       1.682   8.155  19.439  0.00  0.00    +0.000 C 
ATOM      5  N   UNL     1       1.752   7.397  20.697  0.00  0.00    +0.000 NA
ATOM      6  C   UNL     1       1.667   5.927  20.501  0.00  0.00    +0.000 C 
ENDROOT
BRANCH   1   7
ATOM      7  N   UNL     1       2.700   3.881  19.296  0.00  0.00    +0.000 NA
ATOM      8  C   UNL     1       1.599   3.464  18.426  0.00  0.00    +0.000 C 
BRANCH   7  14
ATOM      9  C   UNL     1       6.553   5.664  16.132  0.00  0.00    +0.000 C 
ATOM     10  O   UNL     1       7.428   6.413  16.535  0.00  0.00    +0.000 OA
ATOM     11  N   UNL     1       5.743   4.895  16.962  0.00  0.00    +0.000 N 
ATOM     12  C   UNL     1       5.726   5.256  18.372  0.00  0.00    +0.000 C 
ATOM     13  C   UNL     1       5.306   4.106  19.281  0.00  0.00    +0.000 C 
ATOM     14  C   UNL     1       4.031   3.354  18.840  0.00  0.00    +0.000 C 
ATOM     15  C   UNL     1       4.121   3.052  17.326  0.00  0.00    +0.000 C 
ATOM     16  C   UNL     1       4.566   4.210  16.444  0.00  0.00    +0.000 C 
BRANCH   9  17
ATOM     17  O   UNL     1       6.232   5.518  14.813  0.00  0.00    +0.000 OA
BRANCH  17  19
ATOM     18  C   UNL     1       6.143   3.757  13.139  0.00  0.00    +0.000 C 
ATOM     19  C   UNL     1       7.019   4.575  14.073  0.00  0.00    +0.000 C 
ENDBRANCH  17  19
ENDBRANCH   9  17
ENDBRANCH   7  14
ENDBRANCH   1   7
BRANCH   5  20
ATOM     20  C   UNL     1       0.710   7.888  21.617  0.00  0.00    +0.000 C 
BRANCH  20  21
ATOM     21  C   UNL     1       0.012   9.134  21.078  0.00  0.00    +0.000 C 
BRANCH  21  22
ATOM     22  C   UNL     1       0.302  10.370  21.920  0.00  0.00    +0.000 C 
BRANCH  22  23
ATOM     23  C   UNL     1      -0.896  11.282  21.849  0.00  0.00    +0.000 A 
ATOM     24  C   UNL     1      -1.201  11.955  20.660  0.00  0.00    +0.000 A 
ATOM     25  C   UNL     1      -2.228  12.896  20.631  0.00  0.00    +0.000 A 
ATOM     26  C   UNL     1      -2.960  13.168  21.786  0.00  0.00    +0.000 A 
ATOM     27  C   UNL     1      -2.664  12.501  22.974  0.00  0.00    +0.000 A 
ATOM     28  C   UNL     1      -1.634  11.562  23.007  0.00  0.00    +0.000 A 
ENDBRANCH  22  23
ENDBRANCH  21  22
ENDBRANCH  20  21
ENDBRANCH   5  20
TORSDOF 8
ENDMDL
MODEL 7
REMARK VINA RESULT:      -7.1      0.965      1.465
REMARK  Name = 
REMARK  10 active torsions:
REMARK  status: ('A' for Active; 'I' for Inactive)
REMARK    1  A    between atoms: C_1  and  C_2
REMARK    2  A    between atoms: C_2  and  O_3
REMARK    3  A    between atoms: O_3  and  C_4
REMARK    4  A    between atoms: C_9  and  N_10
REMARK    5  A    between atoms: N_10  and  C_11
REMARK    6  A    between atoms: N_10  and  C_12
REMARK    7  A    between atoms: N_16  and  C_17
REMARK    8  A    between atoms: C_17  and  C_18
REMARK    9  A    between atoms: C_18  and  C_19
REMARK   10  A    between atoms: C_19  and  C_20
REMARK                            x       y       z     vdW  Elec       q    Type
REMARK                         _______ _______ _______ _____ _____    ______ ____
ROOT
ATOM      1  C   UNL     1       2.513   5.677  19.527  0.00  0.00    +0.000 C 
ATOM      2  C   UNL     1       2.306   6.161  18.074  0.00  0.00    +0.000 C 
ATOM      3  C   UNL     1       2.864   7.572  17.974  0.00  0.00    +0.000 C 
ATOM      4  C   UNL     1       2.024   8.506  18.829  0.00  0.00    +0.000 C 
ATOM      5  N   UNL     1       1.972   8.067  20.231  0.00  0.00    +0.000 NA
ATOM      6  C   UNL     1       1.625   6.631  20.384  0.00  0.00    +0.000 C 
ENDROOT
BRANCH   1   7
ATOM      7  N   UNL     1       2.264   4.209  19.725  0.00  0.00    +0.000 NA
ATOM      8  C   UNL     1       1.222   3.758  18.801  0.00  0.00    +0.000 C 
BRANCH   7  14
ATOM      9  C   UNL     1       6.714   4.442  16.867  0.00  0.00    +0.000 C 
ATOM     10  O   UNL     1       7.663   5.133  17.199  0.00  0.00    +0.000 OA
ATOM     11  N   UNL     1       5.686   4.064  17.725  0.00  0.00    +0.000 N 
ATOM     12  C   UNL     1       5.578   4.802  18.975  0.00  0.00    +0.000 C 
ATOM     13  C   UNL     1       4.850   4.028  20.068  0.00  0.00    +0.000 C 
ATOM     14  C   UNL     1       3.515   3.383  19.636  0.00  0.00    +0.000 C 
ATOM     15  C   UNL     1       3.716   2.661  18.284  0.00  0.00    +0.000 C 
ATOM     16  C   UNL     1       4.468   3.448  17.218  0.00  0.00    +0.000 C 
BRANCH   9  17
ATOM     17  O   UNL     1       6.522   3.984  15.594  0.00  0.00    +0.000 OA
BRANCH  17  19
ATOM     18  C   UNL     1       5.362   6.053  15.064  0.00  0.00    +0.000 C 
ATOM     19  C   UNL     1       6.332   4.985  14.586  0.00  0.00    +0.000 C 
ENDBRANCH  17  19
ENDBRANCH   9  17
ENDBRANCH   7  14
ENDBRANCH   1   7
BRANCH   5  20
ATOM     20  C   UNL     1       1.045   8.937  20.978  0.00  0.00    +0.000 C 
BRANCH  20  21
ATOM     21  C   UNL     1      -0.261   9.163  20.222  0.00  0.00    +0.000 C 
BRANCH  21  22
ATOM     22  C   UNL     1      -0.536  10.639  19.969  0.00  0.00    +0.000 C 
BRANCH  22  23
ATOM     23  C   UNL     1      -1.469  10.751  18.790  0.00  0.00    +0.000 A 
ATOM     24  C   UNL     1      -2.604  11.567  18.864  0.00  0.00    +0.000 A 
ATOM     25  C   UNL     1      -3.534  11.570  17.827  0.00  0.00    +0.000 A 
ATOM     26  C   UNL     1      -3.335  10.763  16.708  0.00  0.00    +0.000 A 
ATOM     27  C   UNL     1      -2.206   9.949  16.625  0.00  0.00    +0.000 A 
ATOM     28  C   UNL     1      -1.277   9.940  17.663  0.00  0.00    +0.000 A 
ENDBRANCH  22  23
ENDBRANCH  21  22
ENDBRANCH  20  21
ENDBRANCH   5  20
TORSDOF 8
ENDMDL
MODEL 8
REMARK VINA RESULT:      -7.1      1.329      1.929
REMARK  Name = 
REMARK  10 active torsions:
REMARK  status: ('A' for Active; 'I' for Inactive)
REMARK    1  A    between atoms: C_1  and  C_2
REMARK    2  A    between atoms: C_2  and  O_3
REMARK    3  A    between atoms: O_3  and  C_4
REMARK    4  A    between atoms: C_9  and  N_10
REMARK    5  A    between atoms: N_10  and  C_11
REMARK    6  A    between atoms: N_10  and  C_12
REMARK    7  A    between atoms: N_16  and  C_17
REMARK    8  A    between atoms: C_17  and  C_18
REMARK    9  A    between atoms: C_18  and  C_19
REMARK   10  A    between atoms: C_19  and  C_20
REMARK                            x       y       z     vdW  Elec       q    Type
REMARK                         _______ _______ _______ _____ _____    ______ ____
ROOT
ATOM      1  C   UNL     1       2.575   5.477  19.423  0.00  0.00    +0.000 C 
ATOM      2  C   UNL     1       2.011   6.047  18.102  0.00  0.00    +0.000 C 
ATOM      3  C   UNL     1       2.508   7.478  17.968  0.00  0.00    +0.000 C 
ATOM      4  C   UNL     1       1.891   8.329  19.065  0.00  0.00    +0.000 C 
ATOM      5  N   UNL     1       2.191   7.799  20.403  0.00  0.00    +0.000 NA
ATOM      6  C   UNL     1       1.912   6.346  20.535  0.00  0.00    +0.000 C 
ENDROOT
BRANCH   1   7
ATOM      7  N   UNL     1       2.402   3.993  19.572  0.00  0.00    +0.000 NA
ATOM      8  C   UNL     1       1.251   3.549  18.784  0.00  0.00    +0.000 C 
BRANCH   7  14
ATOM      9  C   UNL     1       6.264   4.410  15.975  0.00  0.00    +0.000 C 
ATOM     10  O   UNL     1       7.226   5.142  16.138  0.00  0.00    +0.000 OA
ATOM     11  N   UNL     1       5.420   3.991  16.999  0.00  0.00    +0.000 N 
ATOM     12  C   UNL     1       5.503   4.725  18.253  0.00  0.00    +0.000 C 
ATOM     13  C   UNL     1       5.014   3.923  19.452  0.00  0.00    +0.000 C 
ATOM     14  C   UNL     1       3.651   3.220  19.259  0.00  0.00    +0.000 C 
ATOM     15  C   UNL     1       3.641   2.505  17.888  0.00  0.00    +0.000 C 
ATOM     16  C   UNL     1       4.159   3.322  16.711  0.00  0.00    +0.000 C 
BRANCH   9  17
ATOM     17  O   UNL     1       5.869   3.942  14.753  0.00  0.00    +0.000 OA
BRANCH  17  19
ATOM     18  C   UNL     1       6.210   3.637  12.366  0.00  0.00    +0.000 C 
ATOM     19  C   UNL     1       6.710   4.287  13.645  0.00  0.00    +0.000 C 
ENDBRANCH  17  19
ENDBRANCH   9  17
ENDBRANCH   7  14
ENDBRANCH   1   7
BRANCH   5  20
ATOM     20  C   UNL     1       1.464   8.591  21.413  0.00  0.00    +0.000 C 
BRANCH  20  21
ATOM     21  C   UNL     1      -0.049   8.495  21.233  0.00  0.00    +0.000 C 
BRANCH  21  22
ATOM     22  C   UNL     1      -0.758   9.789  21.610  0.00  0.00    +0.000 C 
BRANCH  22  23
ATOM     23  C   UNL     1      -0.652  10.742  20.446  0.00  0.00    +0.000 A 
ATOM     24  C   UNL     1      -0.156  12.037  20.637  0.00  0.00    +0.000 A 
ATOM     25  C   UNL     1      -0.180  12.958  19.592  0.00  0.00    +0.000 A 
ATOM     26  C   UNL     1      -0.694  12.592  18.349  0.00  0.00    +0.000 A 
ATOM     27  C   UNL     1      -1.188  11.303  18.150  0.00  0.00    +0.000 A 
ATOM     28  C   UNL     1      -1.170  10.381  19.195  0.00  0.00    +0.000 A 
ENDBRANCH  22  23
ENDBRANCH  21  22
ENDBRANCH  20  21
ENDBRANCH   5  20
TORSDOF 8
ENDMDL
MODEL 9
REMARK VINA RESULT:      -7.0      3.634      8.606
REMARK  Name = 
REMARK  10 active torsions:
REMARK  status: ('A' for Active; 'I' for Inactive)
REMARK    1  A    between atoms: C_1  and  C_2
REMARK    2  A    between atoms: C_2  and  O_3
REMARK    3  A    between atoms: O_3  and  C_4
REMARK    4  A    between atoms: C_9  and  N_10
REMARK    5  A    between atoms: N_10  and  C_11
REMARK    6  A    between atoms: N_10  and  C_12
REMARK    7  A    between atoms: N_16  and  C_17
REMARK    8  A    between atoms: C_17  and  C_18
REMARK    9  A    between atoms: C_18  and  C_19
REMARK   10  A    between atoms: C_19  and  C_20
REMARK                            x       y       z     vdW  Elec       q    Type
REMARK                         _______ _______ _______ _____ _____    ______ ____
ROOT
ATOM      1  C   UNL     1       4.661   4.299  18.407  0.00  0.00    +0.000 C 
ATOM      2  C   UNL     1       5.760   4.273  19.493  0.00  0.00    +0.000 C 
ATOM      3  C   UNL     1       6.596   5.534  19.334  0.00  0.00    +0.000 C 
ATOM      4  C   UNL     1       7.341   5.477  18.010  0.00  0.00    +0.000 C 
ATOM      5  N   UNL     1       6.426   5.315  16.872  0.00  0.00    +0.000 NA
ATOM      6  C   UNL     1       5.444   4.216  17.061  0.00  0.00    +0.000 C 
ENDROOT
BRANCH   1   7
ATOM      7  N   UNL     1       3.588   3.265  18.596  0.00  0.00    +0.000 NA
ATOM      8  C   UNL     1       3.943   2.386  19.711  0.00  0.00    +0.000 C 
BRANCH   7  14
ATOM      9  C   UNL     1       1.678   7.929  20.221  0.00  0.00    +0.000 C 
ATOM     10  O   UNL     1       1.589   8.889  19.473  0.00  0.00    +0.000 OA
ATOM     11  N   UNL     1       1.829   6.615  19.788  0.00  0.00    +0.000 N 
ATOM     12  C   UNL     1       2.225   6.428  18.400  0.00  0.00    +0.000 C 
ATOM     13  C   UNL     1       1.842   5.062  17.844  0.00  0.00    +0.000 C 
ATOM     14  C   UNL     1       2.217   3.861  18.741  0.00  0.00    +0.000 C 
ATOM     15  C   UNL     1       1.797   4.167  20.197  0.00  0.00    +0.000 C 
ATOM     16  C   UNL     1       2.171   5.548  20.719  0.00  0.00    +0.000 C 
BRANCH   9  17
ATOM     17  O   UNL     1       1.683   8.029  21.583  0.00  0.00    +0.000 OA
BRANCH  17  19
ATOM     18  C   UNL     1      -0.491   8.877  22.265  0.00  0.00    +0.000 C 
ATOM     19  C   UNL     1       0.996   9.161  22.134  0.00  0.00    +0.000 C 
ENDBRANCH  17  19
ENDBRANCH   9  17
ENDBRANCH   7  14
ENDBRANCH   1   7
BRANCH   5  20
ATOM     20  C   UNL     1       7.213   5.141  15.637  0.00  0.00    +0.000 C 
BRANCH  20  21
ATOM     21  C   UNL     1       6.610   4.080  14.720  0.00  0.00    +0.000 C 
BRANCH  21  22
ATOM     22  C   UNL     1       6.839   4.392  13.247  0.00  0.00    +0.000 C 
BRANCH  22  23
ATOM     23  C   UNL     1       5.989   3.454  12.428  0.00  0.00    +0.000 A 
ATOM     24  C   UNL     1       6.520   2.246  11.961  0.00  0.00    +0.000 A 
ATOM     25  C   UNL     1       5.779   1.441  11.097  0.00  0.00    +0.000 A 
ATOM     26  C   UNL     1       4.503   1.836  10.697  0.00  0.00    +0.000 A 
ATOM     27  C   UNL     1       3.966   3.037  11.159  0.00  0.00    +0.000 A 
ATOM     28  C   UNL     1       4.706   3.846  12.019  0.00  0.00    +0.000 A 
ENDBRANCH  22  23
ENDBRANCH  21  22
ENDBRANCH  20  21
ENDBRANCH   5  20
TORSDOF 8
ENDMDL
