MODEL 1
REMARK VINA RESULT:      -9.3      0.000      0.000
REMARK  Name = 
REMARK  12 active torsions:
REMARK  status: ('A' for Active; 'I' for Inactive)
REMARK    1  A    between atoms: C_1  and  N_2
REMARK    2  A    between atoms: C_3  and  C_4
REMARK    3  A    between atoms: C_4  and  C_5
REMARK    4  A    between atoms: C_5  and  C_6
REMARK    5  A    between atoms: C_17  and  C_18
REMARK    6  A    between atoms: C_18  and  C_19
REMARK    7  A    between atoms: C_18  and  N_29
REMARK    8  A    between atoms: C_19  and  C_20
REMARK    9  A    between atoms: C_30  and  C_32
REMARK   10  A    between atoms: C_32  and  C_33
REMARK   11  A    between atoms: C_32  and  C_34
REMARK   12  A    between atoms: C_32  and  N_35
REMARK                            x       y       z     vdW  Elec       q    Type
REMARK                         _______ _______ _______ _____ _____    ______ ____
ROOT
ATOM      1  C   UNL     1       3.063   6.547  18.378  0.00  0.00    +0.000 C 
ENDROOT
BRANCH   1   7
ATOM      2  C   UNL     1       1.486   8.069  20.629  0.00  0.00    +0.000 C 
ATOM      3  N   UNL     1       1.797   8.590  19.324  0.00  0.00    +0.000 N 
ATOM      4  C   UNL     1       1.490   9.841  18.834  0.00  0.00    +0.000 A 
ATOM      5  N   UNL     1       1.896   9.908  17.582  0.00  0.00    +0.000 NA
ATOM      6  N   UNL     1       2.507   8.727  17.260  0.00  0.00    +0.000 NA
ATOM      7  C   UNL     1       2.464   7.929  18.310  0.00  0.00    +0.000 A 
BRANCH   4   8
ATOM      8  C   UNL     1       0.790  10.948  19.564  0.00  0.00    +0.000 C 
BRANCH   8   9
ATOM      9  C   UNL     1      -0.580  10.530  20.106  0.00  0.00    +0.000 C 
BRANCH   9  10
ATOM     10  C   UNL     1      -1.727  11.158  19.370  0.00  0.00    +0.000 A 
ATOM     11  C   UNL     1      -2.534  12.171  19.848  0.00  0.00    +0.000 A 
ATOM     12  N   UNL     1      -3.495  12.441  18.912  0.00  0.00    +0.000 N 
ATOM     13  C   UNL     1      -3.338  11.624  17.818  0.00  0.00    +0.000 A 
ATOM     14  C   UNL     1      -4.096  11.541  16.643  0.00  0.00    +0.000 A 
ATOM     15  C   UNL     1      -3.708  10.598  15.688  0.00  0.00    +0.000 A 
ATOM     16  C   UNL     1      -2.604   9.779  15.900  0.00  0.00    +0.000 A 
ATOM     17  C   UNL     1      -1.858   9.874  17.085  0.00  0.00    +0.000 A 
ATOM     18  C   UNL     1      -2.227  10.815  18.070  0.00  0.00    +0.000 A 
ATOM     19  H   UNL     1      -4.228  13.130  19.010  0.00  0.00    +0.000 HD
ENDBRANCH   9  10
ENDBRANCH   8   9
ENDBRANCH   4   8
ENDBRANCH   1   7
BRANCH   1  20
ATOM     20  N   UNL     1       4.430   6.634  17.868  0.00  0.00    +0.000 N 
ATOM     21  C   UNL     1       5.488   5.931  18.384  0.00  0.00    +0.000 C 
ATOM     22  O   UNL     1       5.363   5.145  19.324  0.00  0.00    +0.000 OA
ATOM     23  H   UNL     1       4.570   7.229  17.061  0.00  0.00    +0.000 HD
BRANCH  21  24
ATOM     24  C   UNL     1       6.866   6.209  17.706  0.00  0.00    +0.000 C 
ATOM     25  C   UNL     1       7.953   6.440  18.761  0.00  0.00    +0.000 C 
ATOM     26  C   UNL     1       7.243   5.046  16.783  0.00  0.00    +0.000 C 
BRANCH  24  27
ATOM     27  N   UNL     1       6.760   7.436  16.879  0.00  0.00    +0.000 NA
ATOM     28  H   UNL     1       5.893   7.912  17.137  0.00  0.00    +0.000 HD
ATOM     29  H   UNL     1       6.598   7.148  15.911  0.00  0.00    +0.000 HD
ENDBRANCH  24  27
ENDBRANCH  21  24
ENDBRANCH   1  20
BRANCH   1  30
ATOM     30  C   UNL     1       2.235   5.557  17.518  0.00  0.00    +0.000 C 
BRANCH  30  31
ATOM     31  C   UNL     1       2.240   4.144  18.042  0.00  0.00    +0.000 A 
ATOM     32  C   UNL     1       2.330   2.988  17.289  0.00  0.00    +0.000 A 
ATOM     33  N   UNL     1       2.264   1.913  18.132  0.00  0.00    +0.000 N 
ATOM     34  C   UNL     1       2.167   2.338  19.438  0.00  0.00    +0.000 A 
ATOM     35  C   UNL     1       2.092   1.590  20.623  0.00  0.00    +0.000 A 
ATOM     36  C   UNL     1       2.025   2.292  21.829  0.00  0.00    +0.000 A 
ATOM     37  C   UNL     1       2.028   3.684  21.847  0.00  0.00    +0.000 A 
ATOM     38  C   UNL     1       2.091   4.415  20.652  0.00  0.00    +0.000 A 
ATOM     39  C   UNL     1       2.163   3.733  19.417  0.00  0.00    +0.000 A 
ATOM     40  H   UNL     1       2.300   0.942  17.851  0.00  0.00    +0.000 HD
ENDBRANCH  30  31
ENDBRANCH   1  30
TORSDOF 9
ENDMDL
MODEL 2
REMARK VINA RESULT:      -9.2      1.574      4.598
REMARK  Name = 
REMARK  12 active torsions:
REMARK  status: ('A' for Active; 'I' for Inactive)
REMARK    1  A    between atoms: C_1  and  N_2
REMARK    2  A    between atoms: C_3  and  C_4
REMARK    3  A    between atoms: C_4  and  C_5
REMARK    4  A    between atoms: C_5  and  C_6
REMARK    5  A    between atoms: C_17  and  C_18
REMARK    6  A    between atoms: C_18  and  C_19
REMARK    7  A    between atoms: C_18  and  N_29
REMARK    8  A    between atoms: C_19  and  C_20
REMARK    9  A    between atoms: C_30  and  C_32
REMARK   10  A    between atoms: C_32  and  C_33
REMARK   11  A    between atoms: C_32  and  C_34
REMARK   12  A    between atoms: C_32  and  N_35
REMARK                            x       y       z     vdW  Elec       q    Type
REMARK                         _______ _______ _______ _____ _____    ______ ____
ROOT
ATOM      1  C   UNL     1       3.394   5.867  18.619  0.00  0.00    +0.000 C 
ENDROOT
BRANCH   1   7
ATOM      2  C   UNL     1       2.680   8.683  17.422  0.00  0.00    +0.000 C 
ATOM      3  N   UNL     1       2.250   8.181  18.701  0.00  0.00    +0.000 N 
ATOM      4  C   UNL     1       1.438   8.819  19.614  0.00  0.00    +0.000 A 
ATOM      5  N   UNL     1       1.329   8.052  20.680  0.00  0.00    +0.000 NA
ATOM      6  N   UNL     1       2.025   6.896  20.456  0.00  0.00    +0.000 NA
ATOM      7  C   UNL     1       2.575   6.959  19.258  0.00  0.00    +0.000 A 
BRANCH   4   8
ATOM      8  C   UNL     1       0.798  10.167  19.463  0.00  0.00    +0.000 C 
BRANCH   8   9
ATOM      9  C   UNL     1      -0.479  10.316  20.295  0.00  0.00    +0.000 C 
BRANCH   9  10
ATOM     10  C   UNL     1      -1.577  11.040  19.572  0.00  0.00    +0.000 A 
ATOM     11  C   UNL     1      -2.281  12.126  20.054  0.00  0.00    +0.000 A 
ATOM     12  N   UNL     1      -3.229  12.475  19.132  0.00  0.00    +0.000 N 
ATOM     13  C   UNL     1      -3.167  11.639  18.043  0.00  0.00    +0.000 A 
ATOM     14  C   UNL     1      -3.949  11.617  16.882  0.00  0.00    +0.000 A 
ATOM     15  C   UNL     1      -3.665  10.636  15.929  0.00  0.00    +0.000 A 
ATOM     16  C   UNL     1      -2.636   9.722  16.130  0.00  0.00    +0.000 A 
ATOM     17  C   UNL     1      -1.864   9.757  17.301  0.00  0.00    +0.000 A 
ATOM     18  C   UNL     1      -2.129  10.735  18.284  0.00  0.00    +0.000 A 
ATOM     19  H   UNL     1      -3.895  13.229  19.237  0.00  0.00    +0.000 HD
ENDBRANCH   9  10
ENDBRANCH   8   9
ENDBRANCH   4   8
ENDBRANCH   1   7
BRANCH   1  20
ATOM     20  N   UNL     1       2.869   4.588  19.092  0.00  0.00    +0.000 N 
ATOM     21  C   UNL     1       1.911   3.861  18.433  0.00  0.00    +0.000 C 
ATOM     22  O   UNL     1       1.423   4.228  17.364  0.00  0.00    +0.000 OA
ATOM     23  H   UNL     1       3.279   4.221  19.941  0.00  0.00    +0.000 HD
BRANCH  21  24
ATOM     24  C   UNL     1       1.472   2.541  19.143  0.00  0.00    +0.000 C 
ATOM     25  C   UNL     1       2.602   1.507  19.112  0.00  0.00    +0.000 C 
ATOM     26  C   UNL     1       1.045   2.837  20.584  0.00  0.00    +0.000 C 
BRANCH  24  27
ATOM     27  N   UNL     1       0.306   1.971  18.425  0.00  0.00    +0.000 NA
ATOM     28  H   UNL     1      -0.392   1.707  19.123  0.00  0.00    +0.000 HD
ATOM     29  H   UNL     1       0.593   1.077  18.021  0.00  0.00    +0.000 HD
ENDBRANCH  24  27
ENDBRANCH  21  24
ENDBRANCH   1  20
BRANCH   1  30
ATOM     30  C   UNL     1       4.887   6.009  19.015  0.00  0.00    +0.000 C 
BRANCH  30  31
ATOM     31  C   UNL     1       5.829   6.048  17.839  0.00  0.00    +0.000 A 
ATOM     32  C   UNL     1       6.912   6.891  17.681  0.00  0.00    +0.000 A 
ATOM     33  N   UNL     1       7.486   6.639  16.465  0.00  0.00    +0.000 N 
ATOM     34  C   UNL     1       6.820   5.616  15.827  0.00  0.00    +0.000 A 
ATOM     35  C   UNL     1       7.068   5.021  14.581  0.00  0.00    +0.000 A 
ATOM     36  C   UNL     1       6.237   3.971  14.188  0.00  0.00    +0.000 A 
ATOM     37  C   UNL     1       5.197   3.537  15.005  0.00  0.00    +0.000 A 
ATOM     38  C   UNL     1       4.956   4.151  16.242  0.00  0.00    +0.000 A 
ATOM     39  C   UNL     1       5.782   5.214  16.669  0.00  0.00    +0.000 A 
ATOM     40  H   UNL     1       8.295   7.114  16.086  0.00  0.00    +0.000 HD
ENDBRANCH  30  31
ENDBRANCH   1  30
TORSDOF 9
ENDMDL
MODEL 3
REMARK VINA RESULT:      -9.0      1.771      4.315
REMARK  Name = 
REMARK  12 active torsions:
REMARK  status: ('A' for Active; 'I' for Inactive)
REMARK    1  A    between atoms: C_1  and  N_2
REMARK    2  A    between atoms: C_3  and  C_4
REMARK    3  A    between atoms: C_4  and  C_5
REMARK    4  A    between atoms: C_5  and  C_6
REMARK    5  A    between atoms: C_17  and  C_18
REMARK    6  A    between atoms: C_18  and  C_19
REMARK    7  A    between atoms: C_18  and  N_29
REMARK    8  A    between atoms: C_19  and  C_20
REMARK    9  A    between atoms: C_30  and  C_32
REMARK   10  A    between atoms: C_32  and  C_33
REMARK   11  A    between atoms: C_32  and  C_34
REMARK   12  A    between atoms: C_32  and  N_35
REMARK                            x       y       z     vdW  Elec       q    Type
REMARK                         _______ _______ _______ _____ _____    ______ ____
ROOT
ATOM      1  C   UNL     1       2.503   6.694  18.428  0.00  0.00    +0.000 C 
ENDROOT
BRANCH   1   7
ATOM      2  C   UNL     1       1.806   9.749  18.193  0.00  0.00    +0.000 C 
ATOM      3  N   UNL     1       1.597   8.928  19.357  0.00  0.00    +0.000 N 
ATOM      4  C   UNL     1       1.039   9.313  20.557  0.00  0.00    +0.000 A 
ATOM      5  N   UNL     1       1.078   8.286  21.381  0.00  0.00    +0.000 NA
ATOM      6  N   UNL     1       1.616   7.217  20.719  0.00  0.00    +0.000 NA
ATOM      7  C   UNL     1       1.921   7.591  19.491  0.00  0.00    +0.000 A 
BRANCH   4   8
ATOM      8  C   UNL     1       0.497  10.667  20.905  0.00  0.00    +0.000 C 
BRANCH   8   9
ATOM      9  C   UNL     1      -0.988  10.821  20.563  0.00  0.00    +0.000 C 
BRANCH   9  10
ATOM     10  C   UNL     1      -1.227  11.350  19.180  0.00  0.00    +0.000 A 
ATOM     11  C   UNL     1      -0.724  12.530  18.670  0.00  0.00    +0.000 A 
ATOM     12  N   UNL     1      -1.200  12.694  17.397  0.00  0.00    +0.000 N 
ATOM     13  C   UNL     1      -2.010  11.638  17.052  0.00  0.00    +0.000 A 
ATOM     14  C   UNL     1      -2.716  11.398  15.867  0.00  0.00    +0.000 A 
ATOM     15  C   UNL     1      -3.479  10.231  15.793  0.00  0.00    +0.000 A 
ATOM     16  C   UNL     1      -3.525   9.339  16.860  0.00  0.00    +0.000 A 
ATOM     17  C   UNL     1      -2.813   9.597  18.041  0.00  0.00    +0.000 A 
ATOM     18  C   UNL     1      -2.036  10.770  18.147  0.00  0.00    +0.000 A 
ATOM     19  H   UNL     1      -1.001  13.482  16.796  0.00  0.00    +0.000 HD
ENDBRANCH   9  10
ENDBRANCH   8   9
ENDBRANCH   4   8
ENDBRANCH   1   7
BRANCH   1  20
ATOM     20  N   UNL     1       2.558   5.341  18.975  0.00  0.00    +0.000 N 
ATOM     21  C   UNL     1       1.888   4.269  18.442  0.00  0.00    +0.000 C 
ATOM     22  O   UNL     1       1.189   4.363  17.432  0.00  0.00    +0.000 OA
ATOM     23  H   UNL     1       3.162   5.204  19.775  0.00  0.00    +0.000 HD
BRANCH  21  24
ATOM     24  C   UNL     1       2.062   2.924  19.215  0.00  0.00    +0.000 C 
ATOM     25  C   UNL     1       3.519   2.454  19.164  0.00  0.00    +0.000 C 
ATOM     26  C   UNL     1       1.593   3.087  20.664  0.00  0.00    +0.000 C 
BRANCH  24  27
ATOM     27  N   UNL     1       1.220   1.885  18.573  0.00  0.00    +0.000 NA
ATOM     28  H   UNL     1       1.219   1.064  19.182  0.00  0.00    +0.000 HD
ATOM     29  H   UNL     1       1.706   1.563  17.734  0.00  0.00    +0.000 HD
ENDBRANCH  24  27
ENDBRANCH  21  24
ENDBRANCH   1  20
BRANCH   1  30
ATOM     30  C   UNL     1       3.927   7.171  18.039  0.00  0.00    +0.000 C 
BRANCH  30  31
ATOM     31  C   UNL     1       4.911   6.047  17.837  0.00  0.00    +0.000 A 
ATOM     32  C   UNL     1       5.555   5.331  18.829  0.00  0.00    +0.000 A 
ATOM     33  N   UNL     1       6.392   4.425  18.237  0.00  0.00    +0.000 N 
ATOM     34  C   UNL     1       6.288   4.505  16.866  0.00  0.00    +0.000 A 
ATOM     35  C   UNL     1       6.942   3.764  15.870  0.00  0.00    +0.000 A 
ATOM     36  C   UNL     1       6.622   4.043  14.540  0.00  0.00    +0.000 A 
ATOM     37  C   UNL     1       5.691   5.027  14.219  0.00  0.00    +0.000 A 
ATOM     38  C   UNL     1       5.057   5.767  15.228  0.00  0.00    +0.000 A 
ATOM     39  C   UNL     1       5.357   5.505  16.583  0.00  0.00    +0.000 A 
ATOM     40  H   UNL     1       6.991   3.772  18.724  0.00  0.00    +0.000 HD
ENDBRANCH  30  31
ENDBRANCH   1  30
TORSDOF 9
ENDMDL
MODEL 4
REMARK VINA RESULT:      -8.7      3.292      9.925
REMARK  Name = 
REMARK  12 active torsions:
REMARK  status: ('A' for Active; 'I' for Inactive)
REMARK    1  A    between atoms: C_1  and  N_2
REMARK    2  A    between atoms: C_3  and  C_4
REMARK    3  A    between atoms: C_4  and  C_5
REMARK    4  A    between atoms: C_5  and  C_6
REMARK    5  A    between atoms: C_17  and  C_18
REMARK    6  A    between atoms: C_18  and  C_19
REMARK    7  A    between atoms: C_18  and  N_29
REMARK    8  A    between atoms: C_19  and  C_20
REMARK    9  A    between atoms: C_30  and  C_32
REMARK   10  A    between atoms: C_32  and  C_33
REMARK   11  A    between atoms: C_32  and  C_34
REMARK   12  A    between atoms: C_32  and  N_35
REMARK                            x       y       z     vdW  Elec       q    Type
REMARK                         _______ _______ _______ _____ _____    ______ ____
ROOT
ATOM      1  C   UNL     1       1.028  10.920  19.015  0.00  0.00    +0.000 C 
ENDROOT
BRANCH   1   7
ATOM      2  C   UNL     1       1.140   8.479  20.990  0.00  0.00    +0.000 C 
ATOM      3  N   UNL     1       1.646   8.492  19.643  0.00  0.00    +0.000 N 
ATOM      4  C   UNL     1       2.242   7.448  18.968  0.00  0.00    +0.000 A 
ATOM      5  N   UNL     1       2.616   7.880  17.781  0.00  0.00    +0.000 NA
ATOM      6  N   UNL     1       2.231   9.186  17.653  0.00  0.00    +0.000 NA
ATOM      7  C   UNL     1       1.633   9.561  18.768  0.00  0.00    +0.000 A 
BRANCH   4   8
ATOM      8  C   UNL     1       2.466   6.056  19.480  0.00  0.00    +0.000 C 
BRANCH   8   9
ATOM      9  C   UNL     1       2.755   5.050  18.363  0.00  0.00    +0.000 C 
BRANCH   9  10
ATOM     10  C   UNL     1       4.209   4.699  18.241  0.00  0.00    +0.000 A 
ATOM     11  C   UNL     1       5.017   4.243  19.263  0.00  0.00    +0.000 A 
ATOM     12  N   UNL     1       6.286   4.081  18.778  0.00  0.00    +0.000 N 
ATOM     13  C   UNL     1       6.334   4.423  17.447  0.00  0.00    +0.000 A 
ATOM     14  C   UNL     1       7.417   4.427  16.559  0.00  0.00    +0.000 A 
ATOM     15  C   UNL     1       7.176   4.835  15.246  0.00  0.00    +0.000 A 
ATOM     16  C   UNL     1       5.902   5.215  14.839  0.00  0.00    +0.000 A 
ATOM     17  C   UNL     1       4.828   5.207  15.742  0.00  0.00    +0.000 A 
ATOM     18  C   UNL     1       5.041   4.803  17.077  0.00  0.00    +0.000 A 
ATOM     19  H   UNL     1       7.082   3.771  19.317  0.00  0.00    +0.000 HD
ENDBRANCH   9  10
ENDBRANCH   8   9
ENDBRANCH   4   8
ENDBRANCH   1   7
BRANCH   1  20
ATOM     20  N   UNL     1      -0.203  11.004  18.233  0.00  0.00    +0.000 N 
ATOM     21  C   UNL     1      -1.461  10.988  18.778  0.00  0.00    +0.000 C 
ATOM     22  O   UNL     1      -1.655  10.917  19.992  0.00  0.00    +0.000 OA
ATOM     23  H   UNL     1      -0.092  11.116  17.233  0.00  0.00    +0.000 HD
BRANCH  21  24
ATOM     24  C   UNL     1      -2.633  11.049  17.747  0.00  0.00    +0.000 C 
ATOM     25  C   UNL     1      -2.993   9.645  17.251  0.00  0.00    +0.000 C 
ATOM     26  C   UNL     1      -3.851  11.731  18.378  0.00  0.00    +0.000 C 
BRANCH  24  27
ATOM     27  N   UNL     1      -2.208  11.856  16.578  0.00  0.00    +0.000 NA
ATOM     28  H   UNL     1      -2.994  11.901  15.926  0.00  0.00    +0.000 HD
ATOM     29  H   UNL     1      -1.501  11.321  16.069  0.00  0.00    +0.000 HD
ENDBRANCH  24  27
ENDBRANCH  21  24
ENDBRANCH   1  20
BRANCH   1  30
ATOM     30  C   UNL     1       2.013  12.037  18.581  0.00  0.00    +0.000 C 
BRANCH  30  31
ATOM     31  C   UNL     1       1.619  13.413  19.052  0.00  0.00    +0.000 A 
ATOM     32  C   UNL     1       0.716  13.712  20.054  0.00  0.00    +0.000 A 
ATOM     33  N   UNL     1       0.608  15.073  20.152  0.00  0.00    +0.000 N 
ATOM     34  C   UNL     1       1.454  15.683  19.252  0.00  0.00    +0.000 A 
ATOM     35  C   UNL     1       1.683  17.047  19.017  0.00  0.00    +0.000 A 
ATOM     36  C   UNL     1       2.627  17.387  18.047  0.00  0.00    +0.000 A 
ATOM     37  C   UNL     1       3.311  16.403  17.338  0.00  0.00    +0.000 A 
ATOM     38  C   UNL     1       3.060  15.045  17.578  0.00  0.00    +0.000 A 
ATOM     39  C   UNL     1       2.112  14.670  18.555  0.00  0.00    +0.000 A 
ATOM     40  H   UNL     1       0.013  15.570  20.801  0.00  0.00    +0.000 HD
ENDBRANCH  30  31
ENDBRANCH   1  30
TORSDOF 9
ENDMDL
MODEL 5
REMARK VINA RESULT:      -8.7      3.319      9.695
REMARK  Name = 
REMARK  12 active torsions:
REMARK  status: ('A' for Active; 'I' for Inactive)
REMARK    1  A    between atoms: C_1  and  N_2
REMARK    2  A    between atoms: C_3  and  C_4
REMARK    3  A    between atoms: C_4  and  C_5
REMARK    4  A    between atoms: C_5  and  C_6
REMARK    5  A    between atoms: C_17  and  C_18
REMARK    6  A    between atoms: C_18  and  C_19
REMARK    7  A    between atoms: C_18  and  N_29
REMARK    8  A    between atoms: C_19  and  C_20
REMARK    9  A    between atoms: C_30  and  C_32
REMARK   10  A    between atoms: C_32  and  C_33
REMARK   11  A    between atoms: C_32  and  C_34
REMARK   12  A    between atoms: C_32  and  N_35
REMARK                            x       y       z     vdW  Elec       q    Type
REMARK                         _______ _______ _______ _____ _____    ______ ____
ROOT
ATOM      1  C   UNL     1       0.801  10.849  18.830  0.00  0.00    +0.000 C 
ENDROOT
BRANCH   1   7
ATOM      2  C   UNL     1       1.059   8.581  20.989  0.00  0.00    +0.000 C 
ATOM      3  N   UNL     1       1.600   8.535  19.656  0.00  0.00    +0.000 N 
ATOM      4  C   UNL     1       2.298   7.498  19.077  0.00  0.00    +0.000 A 
ATOM      5  N   UNL     1       2.668   7.869  17.868  0.00  0.00    +0.000 NA
ATOM      6  N   UNL     1       2.180   9.125  17.632  0.00  0.00    +0.000 NA
ATOM      7  C   UNL     1       1.522   9.531  18.701  0.00  0.00    +0.000 A 
BRANCH   4   8
ATOM      8  C   UNL     1       2.622   6.172  19.699  0.00  0.00    +0.000 C 
BRANCH   8   9
ATOM      9  C   UNL     1       2.934   5.088  18.664  0.00  0.00    +0.000 C 
BRANCH   9  10
ATOM     10  C   UNL     1       4.404   4.887  18.440  0.00  0.00    +0.000 A 
ATOM     11  C   UNL     1       5.364   4.792  19.428  0.00  0.00    +0.000 A 
ATOM     12  N   UNL     1       6.590   4.661  18.834  0.00  0.00    +0.000 N 
ATOM     13  C   UNL     1       6.459   4.666  17.465  0.00  0.00    +0.000 A 
ATOM     14  C   UNL     1       7.439   4.575  16.469  0.00  0.00    +0.000 A 
ATOM     15  C   UNL     1       7.016   4.615  15.139  0.00  0.00    +0.000 A 
ATOM     16  C   UNL     1       5.667   4.735  14.822  0.00  0.00    +0.000 A 
ATOM     17  C   UNL     1       4.698   4.828  15.833  0.00  0.00    +0.000 A 
ATOM     18  C   UNL     1       5.095   4.793  17.187  0.00  0.00    +0.000 A 
ATOM     19  H   UNL     1       7.471   4.587  19.323  0.00  0.00    +0.000 HD
ENDBRANCH   9  10
ENDBRANCH   8   9
ENDBRANCH   4   8
ENDBRANCH   1   7
BRANCH   1  20
ATOM     20  N   UNL     1      -0.435  10.752  18.056  0.00  0.00    +0.000 N 
ATOM     21  C   UNL     1      -1.607  11.376  18.400  0.00  0.00    +0.000 C 
ATOM     22  O   UNL     1      -1.706  12.092  19.397  0.00  0.00    +0.000 OA
ATOM     23  H   UNL     1      -0.386  10.216  17.199  0.00  0.00    +0.000 HD
BRANCH  21  24
ATOM     24  C   UNL     1      -2.812  11.101  17.446  0.00  0.00    +0.000 C 
ATOM     25  C   UNL     1      -3.067   9.596  17.315  0.00  0.00    +0.000 C 
ATOM     26  C   UNL     1      -4.062  11.822  17.958  0.00  0.00    +0.000 C 
BRANCH  24  27
ATOM     27  N   UNL     1      -2.493  11.632  16.099  0.00  0.00    +0.000 NA
ATOM     28  H   UNL     1      -2.647  10.882  15.422  0.00  0.00    +0.000 HD
ATOM     29  H   UNL     1      -1.484  11.792  16.055  0.00  0.00    +0.000 HD
ENDBRANCH  24  27
ENDBRANCH  21  24
ENDBRANCH   1  20
BRANCH   1  30
ATOM     30  C   UNL     1       1.683  12.003  18.286  0.00  0.00    +0.000 C 
BRANCH  30  31
ATOM     31  C   UNL     1       2.089  13.005  19.335  0.00  0.00    +0.000 A 
ATOM     32  C   UNL     1       1.577  13.110  20.615  0.00  0.00    +0.000 A 
ATOM     33  N   UNL     1       2.180  14.167  21.240  0.00  0.00    +0.000 N 
ATOM     34  C   UNL     1       3.111  14.745  20.406  0.00  0.00    +0.000 A 
ATOM     35  C   UNL     1       3.966  15.833  20.633  0.00  0.00    +0.000 A 
ATOM     36  C   UNL     1       4.839  16.196  19.605  0.00  0.00    +0.000 A 
ATOM     37  C   UNL     1       4.851  15.501  18.398  0.00  0.00    +0.000 A 
ATOM     38  C   UNL     1       3.980  14.424  18.185  0.00  0.00    +0.000 A 
ATOM     39  C   UNL     1       3.088  14.032  19.208  0.00  0.00    +0.000 A 
ATOM     40  H   UNL     1       1.992  14.477  22.185  0.00  0.00    +0.000 HD
ENDBRANCH  30  31
ENDBRANCH   1  30
TORSDOF 9
ENDMDL
MODEL 6
REMARK VINA RESULT:      -8.6      1.824      4.576
REMARK  Name = 
REMARK  12 active torsions:
REMARK  status: ('A' for Active; 'I' for Inactive)
REMARK    1  A    between atoms: C_1  and  N_2
REMARK    2  A    between atoms: C_3  and  C_4
REMARK    3  A    between atoms: C_4  and  C_5
REMARK    4  A    between atoms: C_5  and  C_6
REMARK    5  A    between atoms: C_17  and  C_18
REMARK    6  A    between atoms: C_18  and  C_19
REMARK    7  A    between atoms: C_18  and  N_29
REMARK    8  A    between atoms: C_19  and  C_20
REMARK    9  A    between atoms: C_30  and  C_32
REMARK   10  A    between atoms: C_32  and  C_33
REMARK   11  A    between atoms: C_32  and  C_34
REMARK   12  A    between atoms: C_32  and  N_35
REMARK                            x       y       z     vdW  Elec       q    Type
REMARK                         _______ _______ _______ _____ _____    ______ ____
ROOT
ATOM      1  C   UNL     1       2.850   6.571  18.626  0.00  0.00    +0.000 C 
ENDROOT
BRANCH   1   7
ATOM      2  C   UNL     1       1.970   9.474  17.807  0.00  0.00    +0.000 C 
ATOM      3  N   UNL     1       1.647   8.818  19.047  0.00  0.00    +0.000 N 
ATOM      4  C   UNL     1       0.884   9.320  20.079  0.00  0.00    +0.000 A 
ATOM      5  N   UNL     1       0.873   8.436  21.055  0.00  0.00    +0.000 NA
ATOM      6  N   UNL     1       1.586   7.338  20.656  0.00  0.00    +0.000 NA
ATOM      7  C   UNL     1       2.047   7.555  19.438  0.00  0.00    +0.000 A 
BRANCH   4   8
ATOM      8  C   UNL     1       0.195  10.651  20.124  0.00  0.00    +0.000 C 
BRANCH   8   9
ATOM      9  C   UNL     1      -0.123  11.205  18.733  0.00  0.00    +0.000 C 
BRANCH   9  10
ATOM     10  C   UNL     1      -1.487  10.821  18.239  0.00  0.00    +0.000 A 
ATOM     11  C   UNL     1      -1.755   9.908  17.237  0.00  0.00    +0.000 A 
ATOM     12  N   UNL     1      -3.108   9.864  17.037  0.00  0.00    +0.000 N 
ATOM     13  C   UNL     1      -3.744  10.732  17.892  0.00  0.00    +0.000 A 
ATOM     14  C   UNL     1      -5.108  11.024  18.025  0.00  0.00    +0.000 A 
ATOM     15  C   UNL     1      -5.477  11.968  18.984  0.00  0.00    +0.000 A 
ATOM     16  C   UNL     1      -4.521  12.589  19.780  0.00  0.00    +0.000 A 
ATOM     17  C   UNL     1      -3.158  12.288  19.632  0.00  0.00    +0.000 A 
ATOM     18  C   UNL     1      -2.754  11.339  18.669  0.00  0.00    +0.000 A 
ATOM     19  H   UNL     1      -3.578   9.290  16.351  0.00  0.00    +0.000 HD
ENDBRANCH   9  10
ENDBRANCH   8   9
ENDBRANCH   4   8
ENDBRANCH   1   7
BRANCH   1  20
ATOM     20  N   UNL     1       2.713   5.261  19.258  0.00  0.00    +0.000 N 
ATOM     21  C   UNL     1       2.000   4.220  18.719  0.00  0.00    +0.000 C 
ATOM     22  O   UNL     1       1.425   4.305  17.633  0.00  0.00    +0.000 OA
ATOM     23  H   UNL     1       3.212   5.128  20.127  0.00  0.00    +0.000 HD
BRANCH  21  24
ATOM     24  C   UNL     1       1.957   2.923  19.587  0.00  0.00    +0.000 C 
ATOM     25  C   UNL     1       3.354   2.574  20.109  0.00  0.00    +0.000 C 
ATOM     26  C   UNL     1       0.972   3.100  20.747  0.00  0.00    +0.000 C 
BRANCH  24  27
ATOM     27  N   UNL     1       1.483   1.796  18.749  0.00  0.00    +0.000 NA
ATOM     28  H   UNL     1       2.286   1.431  18.233  0.00  0.00    +0.000 HD
ATOM     29  H   UNL     1       0.880   2.180  18.019  0.00  0.00    +0.000 HD
ENDBRANCH  24  27
ENDBRANCH  21  24
ENDBRANCH   1  20
BRANCH   1  30
ATOM     30  C   UNL     1       4.343   6.992  18.590  0.00  0.00    +0.000 C 
BRANCH  30  31
ATOM     31  C   UNL     1       5.275   5.894  18.147  0.00  0.00    +0.000 A 
ATOM     32  C   UNL     1       6.003   5.053  18.967  0.00  0.00    +0.000 A 
ATOM     33  N   UNL     1       6.753   4.221  18.181  0.00  0.00    +0.000 N 
ATOM     34  C   UNL     1       6.508   4.475  16.850  0.00  0.00    +0.000 A 
ATOM     35  C   UNL     1       7.037   3.860  15.705  0.00  0.00    +0.000 A 
ATOM     36  C   UNL     1       6.587   4.308  14.462  0.00  0.00    +0.000 A 
ATOM     37  C   UNL     1       5.649   5.333  14.368  0.00  0.00    +0.000 A 
ATOM     38  C   UNL     1       5.141   5.945  15.522  0.00  0.00    +0.000 A 
ATOM     39  C   UNL     1       5.575   5.511  16.794  0.00  0.00    +0.000 A 
ATOM     40  H   UNL     1       7.385   3.506  18.516  0.00  0.00    +0.000 HD
ENDBRANCH  30  31
ENDBRANCH   1  30
TORSDOF 9
ENDMDL
MODEL 7
REMARK VINA RESULT:      -8.6      2.457      5.157
REMARK  Name = 
REMARK  12 active torsions:
REMARK  status: ('A' for Active; 'I' for Inactive)
REMARK    1  A    between atoms: C_1  and  N_2
REMARK    2  A    between atoms: C_3  and  C_4
REMARK    3  A    between atoms: C_4  and  C_5
REMARK    4  A    between atoms: C_5  and  C_6
REMARK    5  A    between atoms: C_17  and  C_18
REMARK    6  A    between atoms: C_18  and  C_19
REMARK    7  A    between atoms: C_18  and  N_29
REMARK    8  A    between atoms: C_19  and  C_20
REMARK    9  A    between atoms: C_30  and  C_32
REMARK   10  A    between atoms: C_32  and  C_33
REMARK   11  A    between atoms: C_32  and  C_34
REMARK   12  A    between atoms: C_32  and  N_35
REMARK                            x       y       z     vdW  Elec       q    Type
REMARK                         _______ _______ _______ _____ _____    ______ ____
ROOT
ATOM      1  C   UNL     1       2.685   6.701  18.697  0.00  0.00    +0.000 C 
ENDROOT
BRANCH   1   7
ATOM      2  C   UNL     1       1.779   9.558  17.755  0.00  0.00    +0.000 C 
ATOM      3  N   UNL     1       1.528   8.983  19.051  0.00  0.00    +0.000 N 
ATOM      4  C   UNL     1       0.835   9.557  20.095  0.00  0.00    +0.000 A 
ATOM      5  N   UNL     1       0.878   8.735  21.123  0.00  0.00    +0.000 NA
ATOM      6  N   UNL     1       1.555   7.606  20.749  0.00  0.00    +0.000 NA
ATOM      7  C   UNL     1       1.941   7.742  19.495  0.00  0.00    +0.000 A 
BRANCH   4   8
ATOM      8  C   UNL     1       0.160  10.896  20.100  0.00  0.00    +0.000 C 
BRANCH   8   9
ATOM      9  C   UNL     1      -0.569  11.190  21.414  0.00  0.00    +0.000 C 
BRANCH   9  10
ATOM     10  C   UNL     1      -1.731  12.127  21.251  0.00  0.00    +0.000 A 
ATOM     11  C   UNL     1      -2.023  12.859  20.117  0.00  0.00    +0.000 A 
ATOM     12  N   UNL     1      -3.125  13.630  20.368  0.00  0.00    +0.000 N 
ATOM     13  C   UNL     1      -3.571  13.421  21.651  0.00  0.00    +0.000 A 
ATOM     14  C   UNL     1      -4.647  14.002  22.334  0.00  0.00    +0.000 A 
ATOM     15  C   UNL     1      -4.867  13.603  23.654  0.00  0.00    +0.000 A 
ATOM     16  C   UNL     1      -4.048  12.656  24.260  0.00  0.00    +0.000 A 
ATOM     17  C   UNL     1      -2.973  12.086  23.561  0.00  0.00    +0.000 A 
ATOM     18  C   UNL     1      -2.723  12.471  22.227  0.00  0.00    +0.000 A 
ATOM     19  H   UNL     1      -3.548  14.275  19.714  0.00  0.00    +0.000 HD
ENDBRANCH   9  10
ENDBRANCH   8   9
ENDBRANCH   4   8
ENDBRANCH   1   7
BRANCH   1  20
ATOM     20  N   UNL     1       2.400   5.399  19.296  0.00  0.00    +0.000 N 
ATOM     21  C   UNL     1       1.769   4.374  18.639  0.00  0.00    +0.000 C 
ATOM     22  O   UNL     1       1.404   4.466  17.466  0.00  0.00    +0.000 OA
ATOM     23  H   UNL     1       2.729   5.259  20.242  0.00  0.00    +0.000 HD
BRANCH  21  24
ATOM     24  C   UNL     1       1.534   3.085  19.488  0.00  0.00    +0.000 C 
ATOM     25  C   UNL     1       0.684   2.073  18.713  0.00  0.00    +0.000 C 
ATOM     26  C   UNL     1       2.877   2.470  19.892  0.00  0.00    +0.000 C 
BRANCH  24  27
ATOM     27  N   UNL     1       0.803   3.448  20.726  0.00  0.00    +0.000 NA
ATOM     28  H   UNL     1       1.229   4.296  21.104  0.00  0.00    +0.000 HD
ATOM     29  H   UNL     1       1.010   2.738  21.432  0.00  0.00    +0.000 HD
ENDBRANCH  24  27
ENDBRANCH  21  24
ENDBRANCH   1  20
BRANCH   1  30
ATOM     30  C   UNL     1       4.211   6.981  18.732  0.00  0.00    +0.000 C 
BRANCH  30  31
ATOM     31  C   UNL     1       5.053   5.824  18.262  0.00  0.00    +0.000 A 
ATOM     32  C   UNL     1       5.642   4.860  19.057  0.00  0.00    +0.000 A 
ATOM     33  N   UNL     1       6.352   4.008  18.255  0.00  0.00    +0.000 N 
ATOM     34  C   UNL     1       6.215   4.373  16.934  0.00  0.00    +0.000 A 
ATOM     35  C   UNL     1       6.748   3.783  15.779  0.00  0.00    +0.000 A 
ATOM     36  C   UNL     1       6.421   4.356  14.548  0.00  0.00    +0.000 A 
ATOM     37  C   UNL     1       5.598   5.477  14.478  0.00  0.00    +0.000 A 
ATOM     38  C   UNL     1       5.084   6.061  15.644  0.00  0.00    +0.000 A 
ATOM     39  C   UNL     1       5.395   5.502  16.903  0.00  0.00    +0.000 A 
ATOM     40  H   UNL     1       6.888   3.211  18.572  0.00  0.00    +0.000 HD
ENDBRANCH  30  31
ENDBRANCH   1  30
TORSDOF 9
ENDMDL
MODEL 8
REMARK VINA RESULT:      -8.5      1.469      4.498
REMARK  Name = 
REMARK  12 active torsions:
REMARK  status: ('A' for Active; 'I' for Inactive)
REMARK    1  A    between atoms: C_1  and  N_2
REMARK    2  A    between atoms: C_3  and  C_4
REMARK    3  A    between atoms: C_4  and  C_5
REMARK    4  A    between atoms: C_5  and  C_6
REMARK    5  A    between atoms: C_17  and  C_18
REMARK    6  A    between atoms: C_18  and  C_19
REMARK    7  A    between atoms: C_18  and  N_29
REMARK    8  A    between atoms: C_19  and  C_20
REMARK    9  A    between atoms: C_30  and  C_32
REMARK   10  A    between atoms: C_32  and  C_33
REMARK   11  A    between atoms: C_32  and  C_34
REMARK   12  A    between atoms: C_32  and  N_35
REMARK                            x       y       z     vdW  Elec       q    Type
REMARK                         _______ _______ _______ _____ _____    ______ ____
ROOT
ATOM      1  C   UNL     1       3.255   5.939  18.022  0.00  0.00    +0.000 C 
ENDROOT
BRANCH   1   7
ATOM      2  C   UNL     1       1.788   6.995  20.592  0.00  0.00    +0.000 C 
ATOM      3  N   UNL     1       1.974   7.732  19.370  0.00  0.00    +0.000 N 
ATOM      4  C   UNL     1       1.573   9.025  19.110  0.00  0.00    +0.000 A 
ATOM      5  N   UNL     1       1.878   9.311  17.861  0.00  0.00    +0.000 NA
ATOM      6  N   UNL     1       2.516   8.232  17.311  0.00  0.00    +0.000 NA
ATOM      7  C   UNL     1       2.590   7.278  18.220  0.00  0.00    +0.000 A 
BRANCH   4   8
ATOM      8  C   UNL     1       0.881   9.961  20.055  0.00  0.00    +0.000 C 
BRANCH   8   9
ATOM      9  C   UNL     1       0.716  11.372  19.483  0.00  0.00    +0.000 C 
BRANCH   9  10
ATOM     10  C   UNL     1      -0.717  11.760  19.265  0.00  0.00    +0.000 A 
ATOM     11  C   UNL     1      -1.398  12.745  19.952  0.00  0.00    +0.000 A 
ATOM     12  N   UNL     1      -2.692  12.771  19.508  0.00  0.00    +0.000 N 
ATOM     13  C   UNL     1      -2.882  11.818  18.536  0.00  0.00    +0.000 A 
ATOM     14  C   UNL     1      -4.038  11.480  17.822  0.00  0.00    +0.000 A 
ATOM     15  C   UNL     1      -3.943  10.449  16.885  0.00  0.00    +0.000 A 
ATOM     16  C   UNL     1      -2.738   9.789  16.669  0.00  0.00    +0.000 A 
ATOM     17  C   UNL     1      -1.589  10.138  17.396  0.00  0.00    +0.000 A 
ATOM     18  C   UNL     1      -1.655  11.175  18.352  0.00  0.00    +0.000 A 
ATOM     19  H   UNL     1      -3.415  13.388  19.852  0.00  0.00    +0.000 HD
ENDBRANCH   9  10
ENDBRANCH   8   9
ENDBRANCH   4   8
ENDBRANCH   1   7
BRANCH   1  20
ATOM     20  N   UNL     1       2.461   4.943  18.738  0.00  0.00    +0.000 N 
ATOM     21  C   UNL     1       2.874   3.657  18.973  0.00  0.00    +0.000 C 
ATOM     22  O   UNL     1       3.973   3.239  18.607  0.00  0.00    +0.000 OA
ATOM     23  H   UNL     1       1.571   5.257  19.104  0.00  0.00    +0.000 HD
BRANCH  21  24
ATOM     24  C   UNL     1       1.845   2.754  19.725  0.00  0.00    +0.000 C 
ATOM     25  C   UNL     1       2.206   2.643  21.210  0.00  0.00    +0.000 C 
ATOM     26  C   UNL     1       0.430   3.313  19.550  0.00  0.00    +0.000 C 
BRANCH  24  27
ATOM     27  N   UNL     1       1.879   1.392  19.139  0.00  0.00    +0.000 NA
ATOM     28  H   UNL     1       1.395   1.427  18.239  0.00  0.00    +0.000 HD
ATOM     29  H   UNL     1       1.281   0.791  19.711  0.00  0.00    +0.000 HD
ENDBRANCH  24  27
ENDBRANCH  21  24
ENDBRANCH   1  20
BRANCH   1  30
ATOM     30  C   UNL     1       4.703   5.968  18.578  0.00  0.00    +0.000 C 
BRANCH  30  31
ATOM     31  C   UNL     1       5.765   6.001  17.510  0.00  0.00    +0.000 A 
ATOM     32  C   UNL     1       6.902   6.786  17.506  0.00  0.00    +0.000 A 
ATOM     33  N   UNL     1       7.589   6.552  16.346  0.00  0.00    +0.000 N 
ATOM     34  C   UNL     1       6.942   5.596  15.594  0.00  0.00    +0.000 A 
ATOM     35  C   UNL     1       7.290   5.040  14.354  0.00  0.00    +0.000 A 
ATOM     36  C   UNL     1       6.451   4.056  13.827  0.00  0.00    +0.000 A 
ATOM     37  C   UNL     1       5.308   3.649  14.510  0.00  0.00    +0.000 A 
ATOM     38  C   UNL     1       4.969   4.225  15.743  0.00  0.00    +0.000 A 
ATOM     39  C   UNL     1       5.800   5.220  16.303  0.00  0.00    +0.000 A 
ATOM     40  H   UNL     1       8.458   6.995  16.076  0.00  0.00    +0.000 HD
ENDBRANCH  30  31
ENDBRANCH   1  30
TORSDOF 9
ENDMDL
MODEL 9
REMARK VINA RESULT:      -8.5      5.153      7.986
REMARK  Name = 
REMARK  12 active torsions:
REMARK  status: ('A' for Active; 'I' for Inactive)
REMARK    1  A    between atoms: C_1  and  N_2
REMARK    2  A    between atoms: C_3  and  C_4
REMARK    3  A    between atoms: C_4  and  C_5
REMARK    4  A    between atoms: C_5  and  C_6
REMARK    5  A    between atoms: C_17  and  C_18
REMARK    6  A    between atoms: C_18  and  C_19
REMARK    7  A    between atoms: C_18  and  N_29
REMARK    8  A    between atoms: C_19  and  C_20
REMARK    9  A    between atoms: C_30  and  C_32
REMARK   10  A    between atoms: C_32  and  C_33
REMARK   11  A    between atoms: C_32  and  C_34
REMARK   12  A    between atoms: C_32  and  N_35
REMARK                            x       y       z     vdW  Elec       q    Type
REMARK                         _______ _______ _______ _____ _____    ______ ____
ROOT
ATOM      1  C   UNL     1       5.122   4.414  16.343  0.00  0.00    +0.000 C 
ENDROOT
BRANCH   1   7
ATOM      2  C   UNL     1       7.500   4.951  18.326  0.00  0.00    +0.000 C 
ATOM      3  N   UNL     1       6.838   5.944  17.521  0.00  0.00    +0.000 N 
ATOM      4  C   UNL     1       7.133   7.288  17.451  0.00  0.00    +0.000 A 
ATOM      5  N   UNL     1       6.263   7.863  16.647  0.00  0.00    +0.000 NA
ATOM      6  N   UNL     1       5.426   6.900  16.152  0.00  0.00    +0.000 NA
ATOM      7  C   UNL     1       5.774   5.735  16.665  0.00  0.00    +0.000 A 
BRANCH   4   8
ATOM      8  C   UNL     1       8.231   8.009  18.176  0.00  0.00    +0.000 C 
BRANCH   8   9
ATOM      9  C   UNL     1       8.355   9.477  17.761  0.00  0.00    +0.000 C 
BRANCH   9  10
ATOM     10  C   UNL     1       9.076  10.320  18.772  0.00  0.00    +0.000 A 
ATOM     11  C   UNL     1       9.138  10.075  20.129  0.00  0.00    +0.000 A 
ATOM     12  N   UNL     1       9.841  11.087  20.723  0.00  0.00    +0.000 N 
ATOM     13  C   UNL     1      10.248  12.002  19.782  0.00  0.00    +0.000 A 
ATOM     14  C   UNL     1      10.970  13.192  19.938  0.00  0.00    +0.000 A 
ATOM     15  C   UNL     1      11.241  13.941  18.791  0.00  0.00    +0.000 A 
ATOM     16  C   UNL     1      10.810  13.512  17.540  0.00  0.00    +0.000 A 
ATOM     17  C   UNL     1      10.084  12.318  17.402  0.00  0.00    +0.000 A 
ATOM     18  C   UNL     1       9.794  11.541  18.543  0.00  0.00    +0.000 A 
ATOM     19  H   UNL     1      10.025  11.167  21.714  0.00  0.00    +0.000 HD
ENDBRANCH   9  10
ENDBRANCH   8   9
ENDBRANCH   4   8
ENDBRANCH   1   7
BRANCH   1  20
ATOM     20  N   UNL     1       5.279   4.184  14.909  0.00  0.00    +0.000 N 
ATOM     21  C   UNL     1       6.486   4.187  14.258  0.00  0.00    +0.000 C 
ATOM     22  O   UNL     1       7.553   4.369  14.846  0.00  0.00    +0.000 OA
ATOM     23  H   UNL     1       4.433   3.977  14.393  0.00  0.00    +0.000 HD
BRANCH  21  24
ATOM     24  C   UNL     1       6.411   3.956  12.715  0.00  0.00    +0.000 C 
ATOM     25  C   UNL     1       4.959   4.005  12.230  0.00  0.00    +0.000 C 
ATOM     26  C   UNL     1       7.263   5.000  11.986  0.00  0.00    +0.000 C 
BRANCH  24  27
ATOM     27  N   UNL     1       6.957   2.614  12.400  0.00  0.00    +0.000 NA
ATOM     28  H   UNL     1       7.875   2.538  12.844  0.00  0.00    +0.000 HD
ATOM     29  H   UNL     1       7.170   2.590  11.400  0.00  0.00    +0.000 HD
ENDBRANCH  24  27
ENDBRANCH  21  24
ENDBRANCH   1  20
BRANCH   1  30
ATOM     30  C   UNL     1       3.617   4.448  16.717  0.00  0.00    +0.000 C 
BRANCH  30  31
ATOM     31  C   UNL     1       3.359   4.700  18.180  0.00  0.00    +0.000 A 
ATOM     32  C   UNL     1       3.774   5.797  18.911  0.00  0.00    +0.000 A 
ATOM     33  N   UNL     1       3.372   5.632  20.209  0.00  0.00    +0.000 N 
ATOM     34  C   UNL     1       2.665   4.458  20.343  0.00  0.00    +0.000 A 
ATOM     35  C   UNL     1       2.058   3.899  21.477  0.00  0.00    +0.000 A 
ATOM     36  C   UNL     1       1.375   2.691  21.318  0.00  0.00    +0.000 A 
ATOM     37  C   UNL     1       1.309   2.066  20.076  0.00  0.00    +0.000 A 
ATOM     38  C   UNL     1       1.933   2.632  18.956  0.00  0.00    +0.000 A 
ATOM     39  C   UNL     1       2.628   3.855  19.085  0.00  0.00    +0.000 A 
ATOM     40  H   UNL     1       3.545   6.281  20.965  0.00  0.00    +0.000 HD
ENDBRANCH  30  31
ENDBRANCH   1  30
TORSDOF 9
ENDMDL
