MODEL 1
REMARK VINA RESULT:      -8.9      0.000      0.000
REMARK  Name = 
REMARK  9 active torsions:
REMARK  status: ('A' for Active; 'I' for Inactive)
REMARK    1  A    between atoms: C_1  and  C_2
REMARK    2  A    between atoms: C_2  and  O_3
REMARK    3  A    between atoms: O_3  and  C_4
REMARK    4  A    between atoms: C_4  and  C_6
REMARK    5  A    between atoms: C_11  and  C_12
REMARK    6  A    between atoms: C_12  and  C_13
REMARK    7  A    between atoms: C_13  and  N_14
REMARK    8  A    between atoms: C_27  and  C_28
REMARK    9  A    between atoms: N_31  and  C_32
REMARK                            x       y       z     vdW  Elec       q    Type
REMARK                         _______ _______ _______ _____ _____    ______ ____
ROOT
ATOM      1  C   UNL     1       3.341   4.825  19.809  0.00  0.00    +0.000 A 
ATOM      2  N   UNL     1       2.502   5.352  20.765  0.00  0.00    +0.000 N 
ATOM      3  C   UNL     1       2.045   6.596  20.393  0.00  0.00    +0.000 A 
ATOM      4  C   UNL     1       1.203   7.488  21.057  0.00  0.00    +0.000 A 
ATOM      5  C   UNL     1       0.898   8.696  20.415  0.00  0.00    +0.000 A 
ATOM      6  C   UNL     1       1.421   9.020  19.157  0.00  0.00    +0.000 A 
ATOM      7  C   UNL     1       2.254   8.091  18.511  0.00  0.00    +0.000 A 
ATOM      8  C   UNL     1       2.576   6.866  19.136  0.00  0.00    +0.000 A 
ATOM      9  C   UNL     1       3.364   5.740  18.769  0.00  0.00    +0.000 A 
ATOM     10  H   UNL     1       2.254   4.877  21.621  0.00  0.00    +0.000 HD
ENDROOT
BRANCH   9  11
ATOM     11  C   UNL     1       4.066   5.578  17.537  0.00  0.00    +0.000 C 
ATOM     12  C   UNL     1       3.942   4.490  16.771  0.00  0.00    +0.000 C 
ATOM     13  C   UNL     1       4.728   4.249  15.533  0.00  0.00    +0.000 C 
ATOM     14  N   UNL     1       5.765   5.213  15.181  0.00  0.00    +0.000 NA
ATOM     15  C   UNL     1       7.086   4.613  15.098  0.00  0.00    +0.000 C 
ATOM     16  C   UNL     1       5.771   6.507  15.867  0.00  0.00    +0.000 C 
ATOM     17  C   UNL     1       4.980   6.702  17.172  0.00  0.00    +0.000 C 
ENDBRANCH   9  11
BRANCH   1  18
ATOM     18  C   UNL     1       3.985   3.535  19.892  0.00  0.00    +0.000 C 
ATOM     19  O   UNL     1       5.176   3.328  19.708  0.00  0.00    +0.000 OA
BRANCH  18  20
ATOM     20  O   UNL     1       3.056   2.560  20.078  0.00  0.00    +0.000 OA
BRANCH  20  22
ATOM     21  C   UNL     1       1.062   2.285  18.815  0.00  0.00    +0.000 C 
ATOM     22  C   UNL     1       2.559   2.025  18.848  0.00  0.00    +0.000 C 
ENDBRANCH  20  22
ENDBRANCH  18  20
ENDBRANCH   1  18
BRANCH   6  23
ATOM     23  C   UNL     1       1.068  10.300  18.426  0.00  0.00    +0.000 C 
BRANCH  23  24
ATOM     24  C   UNL     1       1.132  11.573  19.275  0.00  0.00    +0.000 C 
BRANCH  24  25
ATOM     25  N   UNL     1      -0.144  11.878  19.890  0.00  0.00    +0.000 N 
ATOM     26  C   UNL     1      -0.362  11.861  21.243  0.00  0.00    +0.000 C 
ATOM     27  O   UNL     1       0.411  11.606  22.143  0.00  0.00    +0.000 OA
ATOM     28  C   UNL     1      -1.771  12.195  21.436  0.00  0.00    +0.000 A 
ATOM     29  C   UNL     1      -2.514  12.324  22.593  0.00  0.00    +0.000 A 
ATOM     30  C   UNL     1      -3.866  12.655  22.452  0.00  0.00    +0.000 A 
ATOM     31  C   UNL     1      -4.436  12.845  21.176  0.00  0.00    +0.000 A 
ATOM     32  C   UNL     1      -3.660  12.713  20.017  0.00  0.00    +0.000 A 
ATOM     33  C   UNL     1      -2.331  12.389  20.187  0.00  0.00    +0.000 A 
ATOM     34  C   UNL     1      -1.278  12.169  19.190  0.00  0.00    +0.000 C 
ATOM     35  O   UNL     1      -1.451  12.232  17.991  0.00  0.00    +0.000 OA
ENDBRANCH  24  25
ENDBRANCH  23  24
ENDBRANCH   6  23
TORSDOF 7
ENDMDL
MODEL 2
REMARK VINA RESULT:      -8.8      0.184      1.509
REMARK  Name = 
REMARK  9 active torsions:
REMARK  status: ('A' for Active; 'I' for Inactive)
REMARK    1  A    between atoms: C_1  and  C_2
REMARK    2  A    between atoms: C_2  and  O_3
REMARK    3  A    between atoms: O_3  and  C_4
REMARK    4  A    between atoms: C_4  and  C_6
REMARK    5  A    between atoms: C_11  and  C_12
REMARK    6  A    between atoms: C_12  and  C_13
REMARK    7  A    between atoms: C_13  and  N_14
REMARK    8  A    between atoms: C_27  and  C_28
REMARK    9  A    between atoms: N_31  and  C_32
REMARK                            x       y       z     vdW  Elec       q    Type
REMARK                         _______ _______ _______ _____ _____    ______ ____
ROOT
ATOM      1  C   UNL     1       3.221   4.880  19.892  0.00  0.00    +0.000 A 
ATOM      2  N   UNL     1       2.369   5.462  20.805  0.00  0.00    +0.000 N 
ATOM      3  C   UNL     1       1.952   6.700  20.373  0.00  0.00    +0.000 A 
ATOM      4  C   UNL     1       1.113   7.636  20.980  0.00  0.00    +0.000 A 
ATOM      5  C   UNL     1       0.853   8.825  20.285  0.00  0.00    +0.000 A 
ATOM      6  C   UNL     1       1.416   9.088  19.029  0.00  0.00    +0.000 A 
ATOM      7  C   UNL     1       2.244   8.116  18.442  0.00  0.00    +0.000 A 
ATOM      8  C   UNL     1       2.521   6.910  19.121  0.00  0.00    +0.000 A 
ATOM      9  C   UNL     1       3.292   5.753  18.819  0.00  0.00    +0.000 A 
ATOM     10  H   UNL     1       2.089   5.026  21.671  0.00  0.00    +0.000 HD
ENDROOT
BRANCH   9  11
ATOM     11  C   UNL     1       4.021   5.528  17.613  0.00  0.00    +0.000 C 
ATOM     12  C   UNL     1       3.890   4.416  16.884  0.00  0.00    +0.000 C 
ATOM     13  C   UNL     1       4.701   4.109  15.678  0.00  0.00    +0.000 C 
ATOM     14  N   UNL     1       5.771   5.033  15.320  0.00  0.00    +0.000 NA
ATOM     15  C   UNL     1       7.079   4.397  15.294  0.00  0.00    +0.000 C 
ATOM     16  C   UNL     1       5.794   6.351  15.958  0.00  0.00    +0.000 C 
ATOM     17  C   UNL     1       4.974   6.615  17.233  0.00  0.00    +0.000 C 
ENDBRANCH   9  11
BRANCH   1  18
ATOM     18  C   UNL     1       3.832   3.580  20.042  0.00  0.00    +0.000 C 
ATOM     19  O   UNL     1       5.015   3.331  19.857  0.00  0.00    +0.000 OA
BRANCH  18  20
ATOM     20  O   UNL     1       2.880   2.642  20.293  0.00  0.00    +0.000 OA
BRANCH  20  22
ATOM     21  C   UNL     1       1.061   2.415  18.783  0.00  0.00    +0.000 C 
ATOM     22  C   UNL     1       2.466   1.942  19.117  0.00  0.00    +0.000 C 
ENDBRANCH  20  22
ENDBRANCH  18  20
ENDBRANCH   1  18
BRANCH   6  23
ATOM     23  C   UNL     1       1.112  10.346  18.240  0.00  0.00    +0.000 C 
BRANCH  23  24
ATOM     24  C   UNL     1       1.128  11.643  19.054  0.00  0.00    +0.000 C 
BRANCH  24  25
ATOM     25  N   UNL     1      -0.141  11.889  19.706  0.00  0.00    +0.000 N 
ATOM     26  C   UNL     1      -1.309  12.138  19.034  0.00  0.00    +0.000 C 
ATOM     27  O   UNL     1      -1.510  12.200  17.839  0.00  0.00    +0.000 OA
ATOM     28  C   UNL     1      -2.332  12.357  20.054  0.00  0.00    +0.000 A 
ATOM     29  C   UNL     1      -3.679  12.636  19.932  0.00  0.00    +0.000 A 
ATOM     30  C   UNL     1      -4.409  12.800  21.114  0.00  0.00    +0.000 A 
ATOM     31  C   UNL     1      -3.785  12.682  22.373  0.00  0.00    +0.000 A 
ATOM     32  C   UNL     1      -2.418  12.392  22.471  0.00  0.00    +0.000 A 
ATOM     33  C   UNL     1      -1.725  12.235  21.289  0.00  0.00    +0.000 A 
ATOM     34  C   UNL     1      -0.305  11.947  21.059  0.00  0.00    +0.000 C 
ATOM     35  O   UNL     1       0.516  11.813  21.943  0.00  0.00    +0.000 OA
ENDBRANCH  24  25
ENDBRANCH  23  24
ENDBRANCH   6  23
TORSDOF 7
ENDMDL
MODEL 3
REMARK VINA RESULT:      -8.7      4.942      8.125
REMARK  Name = 
REMARK  9 active torsions:
REMARK  status: ('A' for Active; 'I' for Inactive)
REMARK    1  A    between atoms: C_1  and  C_2
REMARK    2  A    between atoms: C_2  and  O_3
REMARK    3  A    between atoms: O_3  and  C_4
REMARK    4  A    between atoms: C_4  and  C_6
REMARK    5  A    between atoms: C_11  and  C_12
REMARK    6  A    between atoms: C_12  and  C_13
REMARK    7  A    between atoms: C_13  and  N_14
REMARK    8  A    between atoms: C_27  and  C_28
REMARK    9  A    between atoms: N_31  and  C_32
REMARK                            x       y       z     vdW  Elec       q    Type
REMARK                         _______ _______ _______ _____ _____    ______ ____
ROOT
ATOM      1  C   UNL     1       3.197   4.763  17.726  0.00  0.00    +0.000 A 
ATOM      2  N   UNL     1       4.367   4.116  17.393  0.00  0.00    +0.000 N 
ATOM      3  C   UNL     1       5.426   4.994  17.358  0.00  0.00    +0.000 A 
ATOM      4  C   UNL     1       6.770   4.780  17.051  0.00  0.00    +0.000 A 
ATOM      5  C   UNL     1       7.635   5.881  17.112  0.00  0.00    +0.000 A 
ATOM      6  C   UNL     1       7.183   7.162  17.455  0.00  0.00    +0.000 A 
ATOM      7  C   UNL     1       5.825   7.337  17.773  0.00  0.00    +0.000 A 
ATOM      8  C   UNL     1       4.933   6.243  17.720  0.00  0.00    +0.000 A 
ATOM      9  C   UNL     1       3.543   6.081  17.973  0.00  0.00    +0.000 A 
ATOM     10  H   UNL     1       4.430   3.126  17.206  0.00  0.00    +0.000 HD
ENDROOT
BRANCH   9  11
ATOM     11  C   UNL     1       2.648   7.106  18.406  0.00  0.00    +0.000 C 
ATOM     12  C   UNL     1       2.149   8.028  17.578  0.00  0.00    +0.000 C 
ATOM     13  C   UNL     1       1.292   9.162  18.012  0.00  0.00    +0.000 C 
ATOM     14  N   UNL     1       1.057   9.334  19.441  0.00  0.00    +0.000 NA
ATOM     15  C   UNL     1       1.512  10.623  19.936  0.00  0.00    +0.000 C 
ATOM     16  C   UNL     1       1.400   8.229  20.339  0.00  0.00    +0.000 C 
ATOM     17  C   UNL     1       2.328   7.097  19.865  0.00  0.00    +0.000 C 
ENDBRANCH   9  11
BRANCH   1  18
ATOM     18  C   UNL     1       1.907   4.127  17.852  0.00  0.00    +0.000 C 
ATOM     19  O   UNL     1       0.923   4.389  17.175  0.00  0.00    +0.000 OA
BRANCH  18  20
ATOM     20  O   UNL     1       1.903   3.284  18.919  0.00  0.00    +0.000 OA
BRANCH  20  22
ATOM     21  C   UNL     1       1.745   3.608  21.268  0.00  0.00    +0.000 C 
ATOM     22  C   UNL     1       0.998   3.694  19.947  0.00  0.00    +0.000 C 
ENDBRANCH  20  22
ENDBRANCH  18  20
ENDBRANCH   1  18
BRANCH   6  23
ATOM     23  C   UNL     1       8.108   8.356  17.572  0.00  0.00    +0.000 C 
BRANCH  23  24
ATOM     24  C   UNL     1       7.408   9.705  17.760  0.00  0.00    +0.000 C 
BRANCH  24  25
ATOM     25  N   UNL     1       8.340  10.754  18.119  0.00  0.00    +0.000 N 
ATOM     26  C   UNL     1       9.313  10.616  19.074  0.00  0.00    +0.000 C 
ATOM     27  O   UNL     1       9.579   9.657  19.768  0.00  0.00    +0.000 OA
ATOM     28  C   UNL     1      10.006  11.901  19.144  0.00  0.00    +0.000 A 
ATOM     29  C   UNL     1      11.067  12.309  19.928  0.00  0.00    +0.000 A 
ATOM     30  C   UNL     1      11.512  13.625  19.768  0.00  0.00    +0.000 A 
ATOM     31  C   UNL     1      10.896  14.491  18.841  0.00  0.00    +0.000 A 
ATOM     32  C   UNL     1       9.824  14.051  18.053  0.00  0.00    +0.000 A 
ATOM     33  C   UNL     1       9.408  12.749  18.232  0.00  0.00    +0.000 A 
ATOM     34  C   UNL     1       8.322  12.008  17.582  0.00  0.00    +0.000 C 
ATOM     35  O   UNL     1       7.578  12.480  16.747  0.00  0.00    +0.000 OA
ENDBRANCH  24  25
ENDBRANCH  23  24
ENDBRANCH   6  23
TORSDOF 7
ENDMDL
MODEL 4
REMARK VINA RESULT:      -8.5      1.237      1.605
REMARK  Name = 
REMARK  9 active torsions:
REMARK  status: ('A' for Active; 'I' for Inactive)
REMARK    1  A    between atoms: C_1  and  C_2
REMARK    2  A    between atoms: C_2  and  O_3
REMARK    3  A    between atoms: O_3  and  C_4
REMARK    4  A    between atoms: C_4  and  C_6
REMARK    5  A    between atoms: C_11  and  C_12
REMARK    6  A    between atoms: C_12  and  C_13
REMARK    7  A    between atoms: C_13  and  N_14
REMARK    8  A    between atoms: C_27  and  C_28
REMARK    9  A    between atoms: N_31  and  C_32
REMARK                            x       y       z     vdW  Elec       q    Type
REMARK                         _______ _______ _______ _____ _____    ______ ____
ROOT
ATOM      1  C   UNL     1       3.329   4.840  19.789  0.00  0.00    +0.000 A 
ATOM      2  N   UNL     1       2.522   5.407  20.751  0.00  0.00    +0.000 N 
ATOM      3  C   UNL     1       2.080   6.650  20.356  0.00  0.00    +0.000 A 
ATOM      4  C   UNL     1       1.270   7.575  21.017  0.00  0.00    +0.000 A 
ATOM      5  C   UNL     1       0.972   8.771  20.350  0.00  0.00    +0.000 A 
ATOM      6  C   UNL     1       1.471   9.053  19.072  0.00  0.00    +0.000 A 
ATOM      7  C   UNL     1       2.271   8.091  18.432  0.00  0.00    +0.000 A 
ATOM      8  C   UNL     1       2.585   6.877  19.080  0.00  0.00    +0.000 A 
ATOM      9  C   UNL     1       3.343   5.728  18.725  0.00  0.00    +0.000 A 
ATOM     10  H   UNL     1       2.286   4.960  21.625  0.00  0.00    +0.000 HD
ENDROOT
BRANCH   9  11
ATOM     11  C   UNL     1       4.013   5.520  17.482  0.00  0.00    +0.000 C 
ATOM     12  C   UNL     1       4.012   4.345  16.847  0.00  0.00    +0.000 C 
ATOM     13  C   UNL     1       4.776   4.069  15.601  0.00  0.00    +0.000 C 
ATOM     14  N   UNL     1       5.653   5.117  15.091  0.00  0.00    +0.000 NA
ATOM     15  C   UNL     1       7.041   4.695  15.002  0.00  0.00    +0.000 C 
ATOM     16  C   UNL     1       5.505   6.471  15.631  0.00  0.00    +0.000 C 
ATOM     17  C   UNL     1       4.746   6.708  16.948  0.00  0.00    +0.000 C 
ENDBRANCH   9  11
BRANCH   1  18
ATOM     18  C   UNL     1       3.950   3.541  19.891  0.00  0.00    +0.000 C 
ATOM     19  O   UNL     1       5.135   3.308  19.694  0.00  0.00    +0.000 OA
BRANCH  18  20
ATOM     20  O   UNL     1       3.007   2.588  20.113  0.00  0.00    +0.000 OA
BRANCH  20  22
ATOM     21  C   UNL     1       1.001   2.363  18.859  0.00  0.00    +0.000 C 
ATOM     22  C   UNL     1       2.484   2.032  18.902  0.00  0.00    +0.000 C 
ENDBRANCH  20  22
ENDBRANCH  18  20
ENDBRANCH   1  18
BRANCH   6  23
ATOM     23  C   UNL     1       1.124  10.320  18.315  0.00  0.00    +0.000 C 
BRANCH  23  24
ATOM     24  C   UNL     1       0.491  11.429  19.160  0.00  0.00    +0.000 C 
BRANCH  24  25
ATOM     25  N   UNL     1      -0.946  11.490  18.984  0.00  0.00    +0.000 N 
ATOM     26  C   UNL     1      -1.777  12.259  19.756  0.00  0.00    +0.000 C 
ATOM     27  O   UNL     1      -1.504  12.995  20.681  0.00  0.00    +0.000 OA
ATOM     28  C   UNL     1      -3.133  12.011  19.272  0.00  0.00    +0.000 A 
ATOM     29  C   UNL     1      -4.344  12.530  19.686  0.00  0.00    +0.000 A 
ATOM     30  C   UNL     1      -5.492  12.089  19.018  0.00  0.00    +0.000 A 
ATOM     31  C   UNL     1      -5.403  11.153  17.967  0.00  0.00    +0.000 A 
ATOM     32  C   UNL     1      -4.161  10.646  17.561  0.00  0.00    +0.000 A 
ATOM     33  C   UNL     1      -3.049  11.100  18.237  0.00  0.00    +0.000 A 
ATOM     34  C   UNL     1      -1.634  10.754  18.064  0.00  0.00    +0.000 C 
ATOM     35  O   UNL     1      -1.222   9.951  17.253  0.00  0.00    +0.000 OA
ENDBRANCH  24  25
ENDBRANCH  23  24
ENDBRANCH   6  23
TORSDOF 7
ENDMDL
MODEL 5
REMARK VINA RESULT:      -8.5      1.253      1.978
REMARK  Name = 
REMARK  9 active torsions:
REMARK  status: ('A' for Active; 'I' for Inactive)
REMARK    1  A    between atoms: C_1  and  C_2
REMARK    2  A    between atoms: C_2  and  O_3
REMARK    3  A    between atoms: O_3  and  C_4
REMARK    4  A    between atoms: C_4  and  C_6
REMARK    5  A    between atoms: C_11  and  C_12
REMARK    6  A    between atoms: C_12  and  C_13
REMARK    7  A    between atoms: C_13  and  N_14
REMARK    8  A    between atoms: C_27  and  C_28
REMARK    9  A    between atoms: N_31  and  C_32
REMARK                            x       y       z     vdW  Elec       q    Type
REMARK                         _______ _______ _______ _____ _____    ______ ____
ROOT
ATOM      1  C   UNL     1       3.286   4.782  19.857  0.00  0.00    +0.000 A 
ATOM      2  N   UNL     1       2.449   5.320  20.809  0.00  0.00    +0.000 N 
ATOM      3  C   UNL     1       2.008   6.569  20.432  0.00  0.00    +0.000 A 
ATOM      4  C   UNL     1       1.174   7.472  21.092  0.00  0.00    +0.000 A 
ATOM      5  C   UNL     1       0.886   8.683  20.447  0.00  0.00    +0.000 A 
ATOM      6  C   UNL     1       1.418   8.998  19.190  0.00  0.00    +0.000 A 
ATOM      7  C   UNL     1       2.242   8.058  18.549  0.00  0.00    +0.000 A 
ATOM      8  C   UNL     1       2.547   6.831  19.177  0.00  0.00    +0.000 A 
ATOM      9  C   UNL     1       3.323   5.695  18.815  0.00  0.00    +0.000 A 
ATOM     10  H   UNL     1       2.192   4.850  21.665  0.00  0.00    +0.000 HD
ENDROOT
BRANCH   9  11
ATOM     11  C   UNL     1       4.028   5.523  17.586  0.00  0.00    +0.000 C 
ATOM     12  C   UNL     1       3.928   4.416  16.844  0.00  0.00    +0.000 C 
ATOM     13  C   UNL     1       4.719   4.165  15.610  0.00  0.00    +0.000 C 
ATOM     14  N   UNL     1       5.733   5.145  15.237  0.00  0.00    +0.000 NA
ATOM     15  C   UNL     1       7.068   4.573  15.165  0.00  0.00    +0.000 C 
ATOM     16  C   UNL     1       5.711   6.453  15.895  0.00  0.00    +0.000 C 
ATOM     17  C   UNL     1       4.916   6.659  17.197  0.00  0.00    +0.000 C 
ENDBRANCH   9  11
BRANCH   1  18
ATOM     18  C   UNL     1       3.913   3.484  19.944  0.00  0.00    +0.000 C 
ATOM     19  O   UNL     1       5.109   3.269  19.804  0.00  0.00    +0.000 OA
BRANCH  18  20
ATOM     20  O   UNL     1       2.969   2.516  20.079  0.00  0.00    +0.000 OA
BRANCH  20  22
ATOM     21  C   UNL     1       0.933   2.361  18.864  0.00  0.00    +0.000 C 
ATOM     22  C   UNL     1       2.428   2.091  18.825  0.00  0.00    +0.000 C 
ENDBRANCH  20  22
ENDBRANCH  18  20
ENDBRANCH   1  18
BRANCH   6  23
ATOM     23  C   UNL     1       1.083  10.281  18.455  0.00  0.00    +0.000 C 
BRANCH  23  24
ATOM     24  C   UNL     1       0.417  11.364  19.308  0.00  0.00    +0.000 C 
BRANCH  24  25
ATOM     25  N   UNL     1      -1.015  11.414  19.098  0.00  0.00    +0.000 N 
ATOM     26  C   UNL     1      -1.667  10.720  18.113  0.00  0.00    +0.000 C 
ATOM     27  O   UNL     1      -1.215   9.971  17.273  0.00  0.00    +0.000 OA
ATOM     28  C   UNL     1      -3.081  11.069  18.231  0.00  0.00    +0.000 A 
ATOM     29  C   UNL     1      -4.175  10.650  17.499  0.00  0.00    +0.000 A 
ATOM     30  C   UNL     1      -5.422  11.174  17.854  0.00  0.00    +0.000 A 
ATOM     31  C   UNL     1      -5.546  12.091  18.918  0.00  0.00    +0.000 A 
ATOM     32  C   UNL     1      -4.421  12.497  19.650  0.00  0.00    +0.000 A 
ATOM     33  C   UNL     1      -3.206  11.963  19.278  0.00  0.00    +0.000 A 
ATOM     34  C   UNL     1      -1.866  12.194  19.826  0.00  0.00    +0.000 C 
ATOM     35  O   UNL     1      -1.625  12.956  20.739  0.00  0.00    +0.000 OA
ENDBRANCH  24  25
ENDBRANCH  23  24
ENDBRANCH   6  23
TORSDOF 7
ENDMDL
MODEL 6
REMARK VINA RESULT:      -8.4      5.269      8.369
REMARK  Name = 
REMARK  9 active torsions:
REMARK  status: ('A' for Active; 'I' for Inactive)
REMARK    1  A    between atoms: C_1  and  C_2
REMARK    2  A    between atoms: C_2  and  O_3
REMARK    3  A    between atoms: O_3  and  C_4
REMARK    4  A    between atoms: C_4  and  C_6
REMARK    5  A    between atoms: C_11  and  C_12
REMARK    6  A    between atoms: C_12  and  C_13
REMARK    7  A    between atoms: C_13  and  N_14
REMARK    8  A    between atoms: C_27  and  C_28
REMARK    9  A    between atoms: N_31  and  C_32
REMARK                            x       y       z     vdW  Elec       q    Type
REMARK                         _______ _______ _______ _____ _____    ______ ____
ROOT
ATOM      1  C   UNL     1       3.473   5.048  17.788  0.00  0.00    +0.000 A 
ATOM      2  N   UNL     1       4.704   4.526  17.458  0.00  0.00    +0.000 N 
ATOM      3  C   UNL     1       5.673   5.504  17.457  0.00  0.00    +0.000 A 
ATOM      4  C   UNL     1       7.036   5.428  17.166  0.00  0.00    +0.000 A 
ATOM      5  C   UNL     1       7.788   6.607  17.262  0.00  0.00    +0.000 A 
ATOM      6  C   UNL     1       7.208   7.830  17.624  0.00  0.00    +0.000 A 
ATOM      7  C   UNL     1       5.836   7.864  17.925  0.00  0.00    +0.000 A 
ATOM      8  C   UNL     1       5.056   6.691  17.837  0.00  0.00    +0.000 A 
ATOM      9  C   UNL     1       3.685   6.389  18.066  0.00  0.00    +0.000 A 
ATOM     10  H   UNL     1       4.867   3.551  17.253  0.00  0.00    +0.000 HD
ENDROOT
BRANCH   9  11
ATOM     11  C   UNL     1       2.690   7.312  18.507  0.00  0.00    +0.000 C 
ATOM     12  C   UNL     1       2.169   8.250  17.710  0.00  0.00    +0.000 C 
ATOM     13  C   UNL     1       1.202   9.284  18.161  0.00  0.00    +0.000 C 
ATOM     14  N   UNL     1       0.871   9.338  19.581  0.00  0.00    +0.000 NA
ATOM     15  C   UNL     1       1.194  10.620  20.185  0.00  0.00    +0.000 C 
ATOM     16  C   UNL     1       1.246   8.203  20.425  0.00  0.00    +0.000 C 
ATOM     17  C   UNL     1       2.286   7.178  19.939  0.00  0.00    +0.000 C 
ENDBRANCH   9  11
BRANCH   1  18
ATOM     18  C   UNL     1       2.250   4.288  17.882  0.00  0.00    +0.000 C 
ATOM     19  O   UNL     1       1.276   4.425  17.155  0.00  0.00    +0.000 OA
BRANCH  18  20
ATOM     20  O   UNL     1       2.283   3.483  18.977  0.00  0.00    +0.000 OA
BRANCH  20  22
ATOM     21  C   UNL     1       1.444   3.264  21.189  0.00  0.00    +0.000 C 
ATOM     22  C   UNL     1       1.074   3.533  19.740  0.00  0.00    +0.000 C 
ENDBRANCH  20  22
ENDBRANCH  18  20
ENDBRANCH   1  18
BRANCH   6  23
ATOM     23  C   UNL     1       8.011   9.106  17.779  0.00  0.00    +0.000 C 
BRANCH  23  24
ATOM     24  C   UNL     1       8.971   9.129  18.971  0.00  0.00    +0.000 C 
BRANCH  24  25
ATOM     25  N   UNL     1       9.403  10.474  19.293  0.00  0.00    +0.000 N 
ATOM     26  C   UNL     1      10.095  11.280  18.428  0.00  0.00    +0.000 C 
ATOM     27  O   UNL     1      10.464  11.054  17.294  0.00  0.00    +0.000 OA
ATOM     28  C   UNL     1      10.356  12.526  19.146  0.00  0.00    +0.000 A 
ATOM     29  C   UNL     1      11.007  13.676  18.745  0.00  0.00    +0.000 A 
ATOM     30  C   UNL     1      11.102  14.715  19.676  0.00  0.00    +0.000 A 
ATOM     31  C   UNL     1      10.554  14.583  20.968  0.00  0.00    +0.000 A 
ATOM     32  C   UNL     1       9.893  13.407  21.350  0.00  0.00    +0.000 A 
ATOM     33  C   UNL     1       9.813  12.401  20.411  0.00  0.00    +0.000 A 
ATOM     34  C   UNL     1       9.211  11.068  20.506  0.00  0.00    +0.000 C 
ATOM     35  O   UNL     1       8.675  10.631  21.503  0.00  0.00    +0.000 OA
ENDBRANCH  24  25
ENDBRANCH  23  24
ENDBRANCH   6  23
TORSDOF 7
ENDMDL
MODEL 7
REMARK VINA RESULT:      -8.3      5.245      8.244
REMARK  Name = 
REMARK  9 active torsions:
REMARK  status: ('A' for Active; 'I' for Inactive)
REMARK    1  A    between atoms: C_1  and  C_2
REMARK    2  A    between atoms: C_2  and  O_3
REMARK    3  A    between atoms: O_3  and  C_4
REMARK    4  A    between atoms: C_4  and  C_6
REMARK    5  A    between atoms: C_11  and  C_12
REMARK    6  A    between atoms: C_12  and  C_13
REMARK    7  A    between atoms: C_13  and  N_14
REMARK    8  A    between atoms: C_27  and  C_28
REMARK    9  A    between atoms: N_31  and  C_32
REMARK                            x       y       z     vdW  Elec       q    Type
REMARK                         _______ _______ _______ _____ _____    ______ ____
ROOT
ATOM      1  C   UNL     1       3.441   5.075  17.761  0.00  0.00    +0.000 A 
ATOM      2  N   UNL     1       4.674   4.547  17.448  0.00  0.00    +0.000 N 
ATOM      3  C   UNL     1       5.646   5.522  17.457  0.00  0.00    +0.000 A 
ATOM      4  C   UNL     1       7.012   5.441  17.183  0.00  0.00    +0.000 A 
ATOM      5  C   UNL     1       7.767   6.618  17.286  0.00  0.00    +0.000 A 
ATOM      6  C   UNL     1       7.187   7.843  17.638  0.00  0.00    +0.000 A 
ATOM      7  C   UNL     1       5.811   7.883  17.922  0.00  0.00    +0.000 A 
ATOM      8  C   UNL     1       5.028   6.712  17.826  0.00  0.00    +0.000 A 
ATOM      9  C   UNL     1       3.654   6.415  18.039  0.00  0.00    +0.000 A 
ATOM     10  H   UNL     1       4.836   3.571  17.247  0.00  0.00    +0.000 HD
ENDROOT
BRANCH   9  11
ATOM     11  C   UNL     1       2.656   7.342  18.465  0.00  0.00    +0.000 C 
ATOM     12  C   UNL     1       2.130   8.264  17.652  0.00  0.00    +0.000 C 
ATOM     13  C   UNL     1       1.160   9.303  18.087  0.00  0.00    +0.000 C 
ATOM     14  N   UNL     1       0.832   9.381  19.506  0.00  0.00    +0.000 NA
ATOM     15  C   UNL     1       1.151  10.675  20.087  0.00  0.00    +0.000 C 
ATOM     16  C   UNL     1       1.213   8.262  20.370  0.00  0.00    +0.000 C 
ATOM     17  C   UNL     1       2.256   7.233  19.900  0.00  0.00    +0.000 C 
ENDBRANCH   9  11
BRANCH   1  18
ATOM     18  C   UNL     1       2.213   4.318  17.841  0.00  0.00    +0.000 C 
ATOM     19  O   UNL     1       1.215   4.521  17.165  0.00  0.00    +0.000 OA
BRANCH  18  20
ATOM     20  O   UNL     1       2.279   3.429  18.867  0.00  0.00    +0.000 OA
BRANCH  20  22
ATOM     21  C   UNL     1       1.538   3.642  21.115  0.00  0.00    +0.000 C 
ATOM     22  C   UNL     1       1.099   3.426  19.676  0.00  0.00    +0.000 C 
ENDBRANCH  20  22
ENDBRANCH  18  20
ENDBRANCH   1  18
BRANCH   6  23
ATOM     23  C   UNL     1       7.992   9.117  17.800  0.00  0.00    +0.000 C 
BRANCH  23  24
ATOM     24  C   UNL     1       9.047   9.083  18.909  0.00  0.00    +0.000 C 
BRANCH  24  25
ATOM     25  N   UNL     1       9.460  10.413  19.306  0.00  0.00    +0.000 N 
ATOM     26  C   UNL     1       9.220  10.949  20.544  0.00  0.00    +0.000 C 
ATOM     27  O   UNL     1       8.653  10.458  21.497  0.00  0.00    +0.000 OA
ATOM     28  C   UNL     1       9.769  12.303  20.519  0.00  0.00    +0.000 A 
ATOM     29  C   UNL     1       9.806  13.276  21.498  0.00  0.00    +0.000 A 
ATOM     30  C   UNL     1      10.406  14.496  21.166  0.00  0.00    +0.000 A 
ATOM     31  C   UNL     1      10.946  14.711  19.882  0.00  0.00    +0.000 A 
ATOM     32  C   UNL     1      10.900  13.706  18.906  0.00  0.00    +0.000 A 
ATOM     33  C   UNL     1      10.305  12.515  19.263  0.00  0.00    +0.000 A 
ATOM     34  C   UNL     1      10.090  11.295  18.478  0.00  0.00    +0.000 C 
ATOM     35  O   UNL     1      10.418  11.165  17.316  0.00  0.00    +0.000 OA
ENDBRANCH  24  25
ENDBRANCH  23  24
ENDBRANCH   6  23
TORSDOF 7
ENDMDL
MODEL 8
REMARK VINA RESULT:      -8.2      1.841      2.335
REMARK  Name = 
REMARK  9 active torsions:
REMARK  status: ('A' for Active; 'I' for Inactive)
REMARK    1  A    between atoms: C_1  and  C_2
REMARK    2  A    between atoms: C_2  and  O_3
REMARK    3  A    between atoms: O_3  and  C_4
REMARK    4  A    between atoms: C_4  and  C_6
REMARK    5  A    between atoms: C_11  and  C_12
REMARK    6  A    between atoms: C_12  and  C_13
REMARK    7  A    between atoms: C_13  and  N_14
REMARK    8  A    between atoms: C_27  and  C_28
REMARK    9  A    between atoms: N_31  and  C_32
REMARK                            x       y       z     vdW  Elec       q    Type
REMARK                         _______ _______ _______ _____ _____    ______ ____
ROOT
ATOM      1  C   UNL     1       3.353   4.711  19.751  0.00  0.00    +0.000 A 
ATOM      2  N   UNL     1       2.539   5.250  20.723  0.00  0.00    +0.000 N 
ATOM      3  C   UNL     1       2.103   6.505  20.363  0.00  0.00    +0.000 A 
ATOM      4  C   UNL     1       1.290   7.412  21.044  0.00  0.00    +0.000 A 
ATOM      5  C   UNL     1       1.001   8.630  20.412  0.00  0.00    +0.000 A 
ATOM      6  C   UNL     1       1.512   8.949  19.148  0.00  0.00    +0.000 A 
ATOM      7  C   UNL     1       2.316   8.005  18.485  0.00  0.00    +0.000 A 
ATOM      8  C   UNL     1       2.621   6.771  19.099  0.00  0.00    +0.000 A 
ATOM      9  C   UNL     1       3.379   5.630  18.715  0.00  0.00    +0.000 A 
ATOM     10  H   UNL     1       2.294   4.777  21.580  0.00  0.00    +0.000 HD
ENDROOT
BRANCH   9  11
ATOM     11  C   UNL     1       4.059   5.460  17.472  0.00  0.00    +0.000 C 
ATOM     12  C   UNL     1       4.076   4.299  16.810  0.00  0.00    +0.000 C 
ATOM     13  C   UNL     1       4.850   4.062  15.564  0.00  0.00    +0.000 C 
ATOM     14  N   UNL     1       5.720   5.130  15.084  0.00  0.00    +0.000 NA
ATOM     15  C   UNL     1       7.113   4.725  14.995  0.00  0.00    +0.000 C 
ATOM     16  C   UNL     1       5.554   6.469  15.654  0.00  0.00    +0.000 C 
ATOM     17  C   UNL     1       4.783   6.667  16.972  0.00  0.00    +0.000 C 
ENDBRANCH   9  11
BRANCH   1  18
ATOM     18  C   UNL     1       3.970   3.407  19.819  0.00  0.00    +0.000 C 
ATOM     19  O   UNL     1       5.157   3.179  19.638  0.00  0.00    +0.000 OA
BRANCH  18  20
ATOM     20  O   UNL     1       3.020   2.449  19.986  0.00  0.00    +0.000 OA
BRANCH  20  22
ATOM     21  C   UNL     1       0.874   2.343  18.971  0.00  0.00    +0.000 C 
ATOM     22  C   UNL     1       2.361   2.102  18.765  0.00  0.00    +0.000 C 
ENDBRANCH  20  22
ENDBRANCH  18  20
ENDBRANCH   1  18
BRANCH   6  23
ATOM     23  C   UNL     1       1.176  10.239  18.427  0.00  0.00    +0.000 C 
BRANCH  23  24
ATOM     24  C   UNL     1      -0.020  11.009  18.997  0.00  0.00    +0.000 C 
BRANCH  24  25
ATOM     25  N   UNL     1       0.358  12.325  19.467  0.00  0.00    +0.000 N 
ATOM     26  C   UNL     1       0.971  12.559  20.670  0.00  0.00    +0.000 C 
ATOM     27  O   UNL     1       1.303  11.770  21.530  0.00  0.00    +0.000 OA
ATOM     28  C   UNL     1       1.149  14.006  20.766  0.00  0.00    +0.000 A 
ATOM     29  C   UNL     1       1.717  14.778  21.761  0.00  0.00    +0.000 A 
ATOM     30  C   UNL     1       1.737  16.163  21.564  0.00  0.00    +0.000 A 
ATOM     31  C   UNL     1       1.196  16.736  20.395  0.00  0.00    +0.000 A 
ATOM     32  C   UNL     1       0.630  15.931  19.397  0.00  0.00    +0.000 A 
ATOM     33  C   UNL     1       0.626  14.570  19.618  0.00  0.00    +0.000 A 
ATOM     34  C   UNL     1       0.103  13.481  18.788  0.00  0.00    +0.000 C 
ATOM     35  O   UNL     1      -0.453  13.643  17.721  0.00  0.00    +0.000 OA
ENDBRANCH  24  25
ENDBRANCH  23  24
ENDBRANCH   6  23
TORSDOF 7
ENDMDL
MODEL 9
REMARK VINA RESULT:      -8.2      2.265      3.267
REMARK  Name = 
REMARK  9 active torsions:
REMARK  status: ('A' for Active; 'I' for Inactive)
REMARK    1  A    between atoms: C_1  and  C_2
REMARK    2  A    between atoms: C_2  and  O_3
REMARK    3  A    between atoms: O_3  and  C_4
REMARK    4  A    between atoms: C_4  and  C_6
REMARK    5  A    between atoms: C_11  and  C_12
REMARK    6  A    between atoms: C_12  and  C_13
REMARK    7  A    between atoms: C_13  and  N_14
REMARK    8  A    between atoms: C_27  and  C_28
REMARK    9  A    between atoms: N_31  and  C_32
REMARK                            x       y       z     vdW  Elec       q    Type
REMARK                         _______ _______ _______ _____ _____    ______ ____
ROOT
ATOM      1  C   UNL     1       3.184   4.907  19.926  0.00  0.00    +0.000 A 
ATOM      2  N   UNL     1       2.350   5.466  20.869  0.00  0.00    +0.000 N 
ATOM      3  C   UNL     1       1.936   6.720  20.481  0.00  0.00    +0.000 A 
ATOM      4  C   UNL     1       1.113   7.643  21.129  0.00  0.00    +0.000 A 
ATOM      5  C   UNL     1       0.852   8.855  20.475  0.00  0.00    +0.000 A 
ATOM      6  C   UNL     1       1.399   9.153  19.221  0.00  0.00    +0.000 A 
ATOM      7  C   UNL     1       2.212   8.194  18.592  0.00  0.00    +0.000 A 
ATOM      8  C   UNL     1       2.488   6.965  19.229  0.00  0.00    +0.000 A 
ATOM      9  C   UNL     1       3.246   5.813  18.880  0.00  0.00    +0.000 A 
ATOM     10  H   UNL     1       2.078   5.006  21.725  0.00  0.00    +0.000 HD
ENDROOT
BRANCH   9  11
ATOM     11  C   UNL     1       3.957   5.620  17.657  0.00  0.00    +0.000 C 
ATOM     12  C   UNL     1       3.861   4.501  16.933  0.00  0.00    +0.000 C 
ATOM     13  C   UNL     1       4.658   4.231  15.707  0.00  0.00    +0.000 C 
ATOM     14  N   UNL     1       5.674   5.204  15.323  0.00  0.00    +0.000 NA
ATOM     15  C   UNL     1       7.009   4.632  15.268  0.00  0.00    +0.000 C 
ATOM     16  C   UNL     1       5.649   6.523  15.960  0.00  0.00    +0.000 C 
ATOM     17  C   UNL     1       4.848   6.750  17.254  0.00  0.00    +0.000 C 
ENDBRANCH   9  11
BRANCH   1  18
ATOM     18  C   UNL     1       3.787   3.599  20.026  0.00  0.00    +0.000 C 
ATOM     19  O   UNL     1       4.965   3.348  19.817  0.00  0.00    +0.000 OA
BRANCH  18  20
ATOM     20  O   UNL     1       2.832   2.661  20.261  0.00  0.00    +0.000 OA
BRANCH  20  22
ATOM     21  C   UNL     1       0.951   2.521  18.815  0.00  0.00    +0.000 C 
ATOM     22  C   UNL     1       2.367   2.029  19.065  0.00  0.00    +0.000 C 
ENDBRANCH  20  22
ENDBRANCH  18  20
ENDBRANCH   1  18
BRANCH   6  23
ATOM     23  C   UNL     1       1.094  10.437  18.475  0.00  0.00    +0.000 C 
BRANCH  23  24
ATOM     24  C   UNL     1       0.402  11.522  19.306  0.00  0.00    +0.000 C 
BRANCH  24  25
ATOM     25  N   UNL     1       0.884  12.847  18.976  0.00  0.00    +0.000 N 
ATOM     26  C   UNL     1       2.101  13.094  18.398  0.00  0.00    +0.000 C 
ATOM     27  O   UNL     1       2.967  12.312  18.065  0.00  0.00    +0.000 OA
ATOM     28  C   UNL     1       2.205  14.545  18.262  0.00  0.00    +0.000 A 
ATOM     29  C   UNL     1       3.214  15.330  17.739  0.00  0.00    +0.000 A 
ATOM     30  C   UNL     1       3.021  16.715  17.753  0.00  0.00    +0.000 A 
ATOM     31  C   UNL     1       1.841  17.277  18.282  0.00  0.00    +0.000 A 
ATOM     32  C   UNL     1       0.828  16.459  18.803  0.00  0.00    +0.000 A 
ATOM     33  C   UNL     1       1.046  15.098  18.774  0.00  0.00    +0.000 A 
ATOM     34  C   UNL     1       0.201  13.997  19.247  0.00  0.00    +0.000 C 
ATOM     35  O   UNL     1      -0.878  14.146  19.782  0.00  0.00    +0.000 OA
ENDBRANCH  24  25
ENDBRANCH  23  24
ENDBRANCH   6  23
TORSDOF 7
ENDMDL
