MODEL 1
REMARK VINA RESULT:      -5.9      0.000      0.000
REMARK  Name = 
REMARK  19 active torsions:
REMARK  status: ('A' for Active; 'I' for Inactive)
REMARK    1  A    between atoms: C_1  and  C_2
REMARK    2  A    between atoms: C_2  and  C_3
REMARK    3  A    between atoms: C_4  and  C_5
REMARK    4  A    between atoms: C_5  and  C_6
REMARK    5  A    between atoms: C_7  and  C_8
REMARK    6  A    between atoms: C_8  and  C_9
REMARK    7  A    between atoms: C_10  and  C_11
REMARK    8  A    between atoms: C_11  and  C_12
REMARK    9  A    between atoms: C_12  and  C_13
REMARK   10  A    between atoms: C_13  and  C_14
REMARK   11  A    between atoms: C_14  and  C_15
REMARK   12  A    between atoms: C_15  and  C_16
REMARK   13  A    between atoms: C_16  and  C_17
REMARK   14  A    between atoms: C_17  and  C_18
REMARK   15  A    between atoms: C_18  and  C_19
REMARK   16  A    between atoms: C_19  and  C_20
REMARK   17  A    between atoms: C_20  and  C_21
REMARK   18  A    between atoms: C_21  and  C_22
REMARK   19  A    between atoms: C_22  and  O_24
REMARK                            x       y       z     vdW  Elec       q    Type
REMARK                         _______ _______ _______ _____ _____    ______ ____
ROOT
ATOM      1  C   UNL     1       2.779   7.072  17.993  0.00  0.00    +0.000 C 
ENDROOT
BRANCH   1   2
ATOM      2  C   UNL     1       3.125   6.453  19.351  0.00  0.00    +0.000 C 
BRANCH   2   3
ATOM      3  C   UNL     1       1.867   6.091  20.138  0.00  0.00    +0.000 C 
BRANCH   3   5
ATOM      4  C   UNL     1       1.570   3.672  20.660  0.00  0.00    +0.000 C 
ATOM      5  C   UNL     1       2.019   4.887  21.019  0.00  0.00    +0.000 C 
BRANCH   4   6
ATOM      6  C   UNL     1       0.836   3.367  19.383  0.00  0.00    +0.000 C 
BRANCH   6   8
ATOM      7  C   UNL     1       2.376   2.211  17.771  0.00  0.00    +0.000 C 
ATOM      8  C   UNL     1       1.387   2.157  18.679  0.00  0.00    +0.000 C 
BRANCH   7   9
ATOM      9  C   UNL     1       2.999   3.477  17.255  0.00  0.00    +0.000 C 
BRANCH   9  11
ATOM     10  C   UNL     1       5.397   4.038  16.762  0.00  0.00    +0.000 C 
ATOM     11  C   UNL     1       4.450   3.608  17.615  0.00  0.00    +0.000 C 
BRANCH  10  13
ATOM     12  C   UNL     1       6.436   4.328  14.500  0.00  0.00    +0.000 C 
ATOM     13  C   UNL     1       5.163   4.417  15.325  0.00  0.00    +0.000 C 
ENDBRANCH  10  13
ENDBRANCH   9  11
ENDBRANCH   7   9
ENDBRANCH   6   8
ENDBRANCH   4   6
ENDBRANCH   3   5
ENDBRANCH   2   3
ENDBRANCH   1   2
BRANCH   1  14
ATOM     14  C   UNL     1       2.615   8.589  18.075  0.00  0.00    +0.000 C 
BRANCH  14  15
ATOM     15  C   UNL     1       1.154   9.007  18.004  0.00  0.00    +0.000 C 
BRANCH  15  16
ATOM     16  C   UNL     1       0.786   9.807  19.250  0.00  0.00    +0.000 C 
BRANCH  16  17
ATOM     17  C   UNL     1      -0.679  10.217  19.213  0.00  0.00    +0.000 C 
BRANCH  17  18
ATOM     18  C   UNL     1      -1.207  10.188  17.785  0.00  0.00    +0.000 C 
BRANCH  18  19
ATOM     19  C   UNL     1      -2.326  11.209  17.598  0.00  0.00    +0.000 C 
BRANCH  19  20
ATOM     20  C   UNL     1      -3.678  10.506  17.532  0.00  0.00    +0.000 C 
BRANCH  20  21
ATOM     21  C   UNL     1      -4.698  11.320  16.742  0.00  0.00    +0.000 C 
BRANCH  21  22
ATOM     22  C   UNL     1      -5.797  11.837  17.634  0.00  0.00    +0.000 C 
ATOM     23  O   UNL     1      -6.754  11.190  18.037  0.00  0.00    +0.000 OA
BRANCH  22  24
ATOM     24  O   UNL     1      -5.627  13.137  17.972  0.00  0.00    +0.000 OA
ATOM     25  H   UNL     1      -5.233  13.672  17.259  0.00  0.00    +0.000 HD
ENDBRANCH  22  24
ENDBRANCH  21  22
ENDBRANCH  20  21
ENDBRANCH  19  20
ENDBRANCH  18  19
ENDBRANCH  17  18
ENDBRANCH  16  17
ENDBRANCH  15  16
ENDBRANCH  14  15
ENDBRANCH   1  14
TORSDOF 18
ENDMDL
MODEL 2
REMARK VINA RESULT:      -5.8      3.391      4.546
REMARK  Name = 
REMARK  19 active torsions:
REMARK  status: ('A' for Active; 'I' for Inactive)
REMARK    1  A    between atoms: C_1  and  C_2
REMARK    2  A    between atoms: C_2  and  C_3
REMARK    3  A    between atoms: C_4  and  C_5
REMARK    4  A    between atoms: C_5  and  C_6
REMARK    5  A    between atoms: C_7  and  C_8
REMARK    6  A    between atoms: C_8  and  C_9
REMARK    7  A    between atoms: C_10  and  C_11
REMARK    8  A    between atoms: C_11  and  C_12
REMARK    9  A    between atoms: C_12  and  C_13
REMARK   10  A    between atoms: C_13  and  C_14
REMARK   11  A    between atoms: C_14  and  C_15
REMARK   12  A    between atoms: C_15  and  C_16
REMARK   13  A    between atoms: C_16  and  C_17
REMARK   14  A    between atoms: C_17  and  C_18
REMARK   15  A    between atoms: C_18  and  C_19
REMARK   16  A    between atoms: C_19  and  C_20
REMARK   17  A    between atoms: C_20  and  C_21
REMARK   18  A    between atoms: C_21  and  C_22
REMARK   19  A    between atoms: C_22  and  O_24
REMARK                            x       y       z     vdW  Elec       q    Type
REMARK                         _______ _______ _______ _____ _____    ______ ____
ROOT
ATOM      1  C   UNL     1       1.511   5.283  20.382  0.00  0.00    +0.000 C 
ENDROOT
BRANCH   1   2
ATOM      2  C   UNL     1       0.929   3.870  20.264  0.00  0.00    +0.000 C 
BRANCH   2   3
ATOM      3  C   UNL     1       1.111   3.306  18.856  0.00  0.00    +0.000 C 
BRANCH   3   5
ATOM      4  C   UNL     1       2.926   1.630  18.529  0.00  0.00    +0.000 C 
ATOM      5  C   UNL     1       1.643   1.906  18.821  0.00  0.00    +0.000 C 
BRANCH   4   6
ATOM      6  C   UNL     1       3.967   2.655  18.166  0.00  0.00    +0.000 C 
BRANCH   6   8
ATOM      7  C   UNL     1       4.449   4.217  16.261  0.00  0.00    +0.000 C 
ATOM      8  C   UNL     1       3.584   3.458  16.955  0.00  0.00    +0.000 C 
BRANCH   7   9
ATOM      9  C   UNL     1       5.882   4.454  16.646  0.00  0.00    +0.000 C 
BRANCH   9  11
ATOM     10  C   UNL     1       6.796   4.856  14.341  0.00  0.00    +0.000 C 
ATOM     11  C   UNL     1       6.643   5.243  15.621  0.00  0.00    +0.000 C 
BRANCH  10  13
ATOM     12  C   UNL     1       6.363   3.570  12.235  0.00  0.00    +0.000 C 
ATOM     13  C   UNL     1       6.267   3.578  13.751  0.00  0.00    +0.000 C 
ENDBRANCH  10  13
ENDBRANCH   9  11
ENDBRANCH   7   9
ENDBRANCH   6   8
ENDBRANCH   4   6
ENDBRANCH   3   5
ENDBRANCH   2   3
ENDBRANCH   1   2
BRANCH   1  14
ATOM     14  C   UNL     1       3.035   5.290  20.280  0.00  0.00    +0.000 C 
BRANCH  14  15
ATOM     15  C   UNL     1       3.526   6.220  19.181  0.00  0.00    +0.000 C 
BRANCH  15  16
ATOM     16  C   UNL     1       2.335   6.777  18.406  0.00  0.00    +0.000 C 
BRANCH  16  17
ATOM     17  C   UNL     1       2.636   8.176  17.889  0.00  0.00    +0.000 C 
BRANCH  17  18
ATOM     18  C   UNL     1       1.632   9.179  18.443  0.00  0.00    +0.000 C 
BRANCH  18  19
ATOM     19  C   UNL     1       1.351   8.908  19.919  0.00  0.00    +0.000 C 
BRANCH  19  20
ATOM     20  C   UNL     1       0.744  10.143  20.576  0.00  0.00    +0.000 C 
BRANCH  20  21
ATOM     21  C   UNL     1      -0.431   9.780  21.479  0.00  0.00    +0.000 C 
BRANCH  21  22
ATOM     22  C   UNL     1      -0.317  10.448  22.825  0.00  0.00    +0.000 C 
ATOM     23  O   UNL     1      -0.735  11.562  23.109  0.00  0.00    +0.000 OA
BRANCH  22  24
ATOM     24  O   UNL     1       0.313   9.673  23.739  0.00  0.00    +0.000 OA
ATOM     25  H   UNL     1       0.837  10.184  24.383  0.00  0.00    +0.000 HD
ENDBRANCH  22  24
ENDBRANCH  21  22
ENDBRANCH  20  21
ENDBRANCH  19  20
ENDBRANCH  18  19
ENDBRANCH  17  18
ENDBRANCH  16  17
ENDBRANCH  15  16
ENDBRANCH  14  15
ENDBRANCH   1  14
TORSDOF 18
ENDMDL
MODEL 3
REMARK VINA RESULT:      -5.8      4.775      9.580
REMARK  Name = 
REMARK  19 active torsions:
REMARK  status: ('A' for Active; 'I' for Inactive)
REMARK    1  A    between atoms: C_1  and  C_2
REMARK    2  A    between atoms: C_2  and  C_3
REMARK    3  A    between atoms: C_4  and  C_5
REMARK    4  A    between atoms: C_5  and  C_6
REMARK    5  A    between atoms: C_7  and  C_8
REMARK    6  A    between atoms: C_8  and  C_9
REMARK    7  A    between atoms: C_10  and  C_11
REMARK    8  A    between atoms: C_11  and  C_12
REMARK    9  A    between atoms: C_12  and  C_13
REMARK   10  A    between atoms: C_13  and  C_14
REMARK   11  A    between atoms: C_14  and  C_15
REMARK   12  A    between atoms: C_15  and  C_16
REMARK   13  A    between atoms: C_16  and  C_17
REMARK   14  A    between atoms: C_17  and  C_18
REMARK   15  A    between atoms: C_18  and  C_19
REMARK   16  A    between atoms: C_19  and  C_20
REMARK   17  A    between atoms: C_20  and  C_21
REMARK   18  A    between atoms: C_21  and  C_22
REMARK   19  A    between atoms: C_22  and  O_24
REMARK                            x       y       z     vdW  Elec       q    Type
REMARK                         _______ _______ _______ _____ _____    ______ ____
ROOT
ATOM      1  C   UNL     1       1.951   4.430  21.187  0.00  0.00    +0.000 C 
ENDROOT
BRANCH   1   2
ATOM      2  C   UNL     1       2.032   5.561  20.157  0.00  0.00    +0.000 C 
BRANCH   2   3
ATOM      3  C   UNL     1       1.503   6.876  20.727  0.00  0.00    +0.000 C 
BRANCH   3   5
ATOM      4  C   UNL     1       1.181   9.206  19.903  0.00  0.00    +0.000 C 
ATOM      5  C   UNL     1       1.932   8.093  19.964  0.00  0.00    +0.000 C 
BRANCH   4   6
ATOM      6  C   UNL     1      -0.173   9.368  20.537  0.00  0.00    +0.000 C 
BRANCH   6   8
ATOM      7  C   UNL     1      -1.463  11.202  19.408  0.00  0.00    +0.000 C 
ATOM      8  C   UNL     1      -0.695  10.773  20.424  0.00  0.00    +0.000 C 
BRANCH   7   9
ATOM      9  C   UNL     1      -1.822  10.385  18.200  0.00  0.00    +0.000 C 
BRANCH   9  11
ATOM     10  C   UNL     1      -3.816  10.663  16.699  0.00  0.00    +0.000 C 
ATOM     11  C   UNL     1      -3.294  10.384  17.907  0.00  0.00    +0.000 C 
BRANCH  10  13
ATOM     12  C   UNL     1      -2.981   9.925  14.455  0.00  0.00    +0.000 C 
ATOM     13  C   UNL     1      -3.026  11.047  15.479  0.00  0.00    +0.000 C 
ENDBRANCH  10  13
ENDBRANCH   9  11
ENDBRANCH   7   9
ENDBRANCH   6   8
ENDBRANCH   4   6
ENDBRANCH   3   5
ENDBRANCH   2   3
ENDBRANCH   1   2
BRANCH   1  14
ATOM     14  C   UNL     1       1.231   3.199  20.639  0.00  0.00    +0.000 C 
BRANCH  14  15
ATOM     15  C   UNL     1       0.933   3.330  19.153  0.00  0.00    +0.000 C 
BRANCH  15  16
ATOM     16  C   UNL     1       1.729   2.287  18.374  0.00  0.00    +0.000 C 
BRANCH  16  17
ATOM     17  C   UNL     1       3.213   2.393  18.694  0.00  0.00    +0.000 C 
BRANCH  17  18
ATOM     18  C   UNL     1       3.989   2.882  17.478  0.00  0.00    +0.000 C 
BRANCH  18  19
ATOM     19  C   UNL     1       3.852   4.394  17.319  0.00  0.00    +0.000 C 
BRANCH  19  20
ATOM     20  C   UNL     1       4.743   4.889  16.184  0.00  0.00    +0.000 C 
BRANCH  20  21
ATOM     21  C   UNL     1       5.873   3.908  15.887  0.00  0.00    +0.000 C 
BRANCH  21  22
ATOM     22  C   UNL     1       7.221   4.574  15.994  0.00  0.00    +0.000 C 
ATOM     23  O   UNL     1       7.674   5.400  15.215  0.00  0.00    +0.000 OA
BRANCH  22  24
ATOM     24  O   UNL     1       7.920   4.164  17.079  0.00  0.00    +0.000 OA
ATOM     25  H   UNL     1       7.934   4.821  17.799  0.00  0.00    +0.000 HD
ENDBRANCH  22  24
ENDBRANCH  21  22
ENDBRANCH  20  21
ENDBRANCH  19  20
ENDBRANCH  18  19
ENDBRANCH  17  18
ENDBRANCH  16  17
ENDBRANCH  15  16
ENDBRANCH  14  15
ENDBRANCH   1  14
TORSDOF 18
ENDMDL
MODEL 4
REMARK VINA RESULT:      -5.7      4.944      9.468
REMARK  Name = 
REMARK  19 active torsions:
REMARK  status: ('A' for Active; 'I' for Inactive)
REMARK    1  A    between atoms: C_1  and  C_2
REMARK    2  A    between atoms: C_2  and  C_3
REMARK    3  A    between atoms: C_4  and  C_5
REMARK    4  A    between atoms: C_5  and  C_6
REMARK    5  A    between atoms: C_7  and  C_8
REMARK    6  A    between atoms: C_8  and  C_9
REMARK    7  A    between atoms: C_10  and  C_11
REMARK    8  A    between atoms: C_11  and  C_12
REMARK    9  A    between atoms: C_12  and  C_13
REMARK   10  A    between atoms: C_13  and  C_14
REMARK   11  A    between atoms: C_14  and  C_15
REMARK   12  A    between atoms: C_15  and  C_16
REMARK   13  A    between atoms: C_16  and  C_17
REMARK   14  A    between atoms: C_17  and  C_18
REMARK   15  A    between atoms: C_18  and  C_19
REMARK   16  A    between atoms: C_19  and  C_20
REMARK   17  A    between atoms: C_20  and  C_21
REMARK   18  A    between atoms: C_21  and  C_22
REMARK   19  A    between atoms: C_22  and  O_24
REMARK                            x       y       z     vdW  Elec       q    Type
REMARK                         _______ _______ _______ _____ _____    ______ ____
ROOT
ATOM      1  C   UNL     1       2.468   3.119  20.773  0.00  0.00    +0.000 C 
ENDROOT
BRANCH   1   2
ATOM      2  C   UNL     1       2.418   4.542  21.341  0.00  0.00    +0.000 C 
BRANCH   2   3
ATOM      3  C   UNL     1       1.491   5.438  20.523  0.00  0.00    +0.000 C 
BRANCH   3   5
ATOM      4  C   UNL     1       1.808   7.907  20.397  0.00  0.00    +0.000 C 
ATOM      5  C   UNL     1       2.148   6.673  19.985  0.00  0.00    +0.000 C 
BRANCH   4   6
ATOM      6  C   UNL     1       0.724   8.214  21.394  0.00  0.00    +0.000 C 
BRANCH   6   8
ATOM      7  C   UNL     1       0.236  10.675  21.488  0.00  0.00    +0.000 C 
ATOM      8  C   UNL     1       0.858   9.591  21.982  0.00  0.00    +0.000 C 
BRANCH   7   9
ATOM      9  C   UNL     1      -0.591  10.692  20.235  0.00  0.00    +0.000 C 
BRANCH   9  11
ATOM     10  C   UNL     1       0.184  12.418  18.583  0.00  0.00    +0.000 C 
ATOM     11  C   UNL     1       0.178  11.149  19.029  0.00  0.00    +0.000 C 
BRANCH  10  13
ATOM     12  C   UNL     1       0.257  14.368  20.155  0.00  0.00    +0.000 C 
ATOM     13  C   UNL     1      -0.590  13.556  19.190  0.00  0.00    +0.000 C 
ENDBRANCH  10  13
ENDBRANCH   9  11
ENDBRANCH   7   9
ENDBRANCH   6   8
ENDBRANCH   4   6
ENDBRANCH   3   5
ENDBRANCH   2   3
ENDBRANCH   1   2
BRANCH   1  14
ATOM     14  C   UNL     1       1.128   2.687  20.178  0.00  0.00    +0.000 C 
BRANCH  14  15
ATOM     15  C   UNL     1       1.273   2.209  18.741  0.00  0.00    +0.000 C 
BRANCH  15  16
ATOM     16  C   UNL     1       2.749   2.013  18.409  0.00  0.00    +0.000 C 
BRANCH  16  17
ATOM     17  C   UNL     1       3.127   2.789  17.157  0.00  0.00    +0.000 C 
BRANCH  17  18
ATOM     18  C   UNL     1       3.059   4.289  17.415  0.00  0.00    +0.000 C 
BRANCH  18  19
ATOM     19  C   UNL     1       4.442   4.924  17.302  0.00  0.00    +0.000 C 
BRANCH  19  20
ATOM     20  C   UNL     1       5.261   4.634  18.555  0.00  0.00    +0.000 C 
BRANCH  20  21
ATOM     21  C   UNL     1       6.532   5.476  18.604  0.00  0.00    +0.000 C 
BRANCH  21  22
ATOM     22  C   UNL     1       7.353   5.304  17.351  0.00  0.00    +0.000 C 
ATOM     23  O   UNL     1       7.421   6.101  16.426  0.00  0.00    +0.000 OA
BRANCH  22  24
ATOM     24  O   UNL     1       8.045   4.140  17.338  0.00  0.00    +0.000 OA
ATOM     25  H   UNL     1       8.468   3.933  18.192  0.00  0.00    +0.000 HD
ENDBRANCH  22  24
ENDBRANCH  21  22
ENDBRANCH  20  21
ENDBRANCH  19  20
ENDBRANCH  18  19
ENDBRANCH  17  18
ENDBRANCH  16  17
ENDBRANCH  15  16
ENDBRANCH  14  15
ENDBRANCH   1  14
TORSDOF 18
ENDMDL
MODEL 5
REMARK VINA RESULT:      -5.6      1.878      3.770
REMARK  Name = 
REMARK  19 active torsions:
REMARK  status: ('A' for Active; 'I' for Inactive)
REMARK    1  A    between atoms: C_1  and  C_2
REMARK    2  A    between atoms: C_2  and  C_3
REMARK    3  A    between atoms: C_4  and  C_5
REMARK    4  A    between atoms: C_5  and  C_6
REMARK    5  A    between atoms: C_7  and  C_8
REMARK    6  A    between atoms: C_8  and  C_9
REMARK    7  A    between atoms: C_10  and  C_11
REMARK    8  A    between atoms: C_11  and  C_12
REMARK    9  A    between atoms: C_12  and  C_13
REMARK   10  A    between atoms: C_13  and  C_14
REMARK   11  A    between atoms: C_14  and  C_15
REMARK   12  A    between atoms: C_15  and  C_16
REMARK   13  A    between atoms: C_16  and  C_17
REMARK   14  A    between atoms: C_17  and  C_18
REMARK   15  A    between atoms: C_18  and  C_19
REMARK   16  A    between atoms: C_19  and  C_20
REMARK   17  A    between atoms: C_20  and  C_21
REMARK   18  A    between atoms: C_21  and  C_22
REMARK   19  A    between atoms: C_22  and  O_24
REMARK                            x       y       z     vdW  Elec       q    Type
REMARK                         _______ _______ _______ _____ _____    ______ ____
ROOT
ATOM      1  C   UNL     1       1.734   3.738  20.776  0.00  0.00    +0.000 C 
ENDROOT
BRANCH   1   2
ATOM      2  C   UNL     1       0.733   3.042  19.847  0.00  0.00    +0.000 C 
BRANCH   2   3
ATOM      3  C   UNL     1       1.418   2.493  18.597  0.00  0.00    +0.000 C 
BRANCH   3   5
ATOM      4  C   UNL     1       3.148   3.782  17.350  0.00  0.00    +0.000 C 
ATOM      5  C   UNL     1       1.853   3.546  17.624  0.00  0.00    +0.000 C 
BRANCH   4   6
ATOM      6  C   UNL     1       4.308   3.073  17.995  0.00  0.00    +0.000 C 
BRANCH   6   8
ATOM      7  C   UNL     1       5.673   4.846  19.134  0.00  0.00    +0.000 C 
ATOM      8  C   UNL     1       4.828   3.803  19.202  0.00  0.00    +0.000 C 
BRANCH   7   9
ATOM      9  C   UNL     1       6.296   5.364  17.870  0.00  0.00    +0.000 C 
BRANCH   9  11
ATOM     10  C   UNL     1       5.317   6.342  15.773  0.00  0.00    +0.000 C 
ATOM     11  C   UNL     1       5.400   6.304  17.115  0.00  0.00    +0.000 C 
BRANCH  10  13
ATOM     12  C   UNL     1       5.386   4.209  14.460  0.00  0.00    +0.000 C 
ATOM     13  C   UNL     1       6.118   5.488  14.829  0.00  0.00    +0.000 C 
ENDBRANCH  10  13
ENDBRANCH   9  11
ENDBRANCH   7   9
ENDBRANCH   6   8
ENDBRANCH   4   6
ENDBRANCH   3   5
ENDBRANCH   2   3
ENDBRANCH   1   2
BRANCH   1  14
ATOM     14  C   UNL     1       1.487   5.243  20.870  0.00  0.00    +0.000 C 
BRANCH  14  15
ATOM     15  C   UNL     1       2.564   6.041  20.151  0.00  0.00    +0.000 C 
BRANCH  15  16
ATOM     16  C   UNL     1       2.077   7.467  19.914  0.00  0.00    +0.000 C 
BRANCH  16  17
ATOM     17  C   UNL     1       2.007   7.772  18.425  0.00  0.00    +0.000 C 
BRANCH  17  18
ATOM     18  C   UNL     1       2.429   9.210  18.152  0.00  0.00    +0.000 C 
BRANCH  18  19
ATOM     19  C   UNL     1       1.246  10.041  17.663  0.00  0.00    +0.000 C 
BRANCH  19  20
ATOM     20  C   UNL     1       0.185  10.143  18.754  0.00  0.00    +0.000 C 
BRANCH  20  21
ATOM     21  C   UNL     1      -0.279  11.583  18.954  0.00  0.00    +0.000 C 
BRANCH  21  22
ATOM     22  C   UNL     1      -1.638  11.812  18.342  0.00  0.00    +0.000 C 
ATOM     23  O   UNL     1      -2.712  11.624  18.896  0.00  0.00    +0.000 OA
BRANCH  22  24
ATOM     24  O   UNL     1      -1.566  12.268  17.070  0.00  0.00    +0.000 OA
ATOM     25  H   UNL     1      -1.363  11.570  16.420  0.00  0.00    +0.000 HD
ENDBRANCH  22  24
ENDBRANCH  21  22
ENDBRANCH  20  21
ENDBRANCH  19  20
ENDBRANCH  18  19
ENDBRANCH  17  18
ENDBRANCH  16  17
ENDBRANCH  15  16
ENDBRANCH  14  15
ENDBRANCH   1  14
TORSDOF 18
ENDMDL
MODEL 6
REMARK VINA RESULT:      -5.6      7.442      9.741
REMARK  Name = 
REMARK  19 active torsions:
REMARK  status: ('A' for Active; 'I' for Inactive)
REMARK    1  A    between atoms: C_1  and  C_2
REMARK    2  A    between atoms: C_2  and  C_3
REMARK    3  A    between atoms: C_4  and  C_5
REMARK    4  A    between atoms: C_5  and  C_6
REMARK    5  A    between atoms: C_7  and  C_8
REMARK    6  A    between atoms: C_8  and  C_9
REMARK    7  A    between atoms: C_10  and  C_11
REMARK    8  A    between atoms: C_11  and  C_12
REMARK    9  A    between atoms: C_12  and  C_13
REMARK   10  A    between atoms: C_13  and  C_14
REMARK   11  A    between atoms: C_14  and  C_15
REMARK   12  A    between atoms: C_15  and  C_16
REMARK   13  A    between atoms: C_16  and  C_17
REMARK   14  A    between atoms: C_17  and  C_18
REMARK   15  A    between atoms: C_18  and  C_19
REMARK   16  A    between atoms: C_19  and  C_20
REMARK   17  A    between atoms: C_20  and  C_21
REMARK   18  A    between atoms: C_21  and  C_22
REMARK   19  A    between atoms: C_22  and  O_24
REMARK                            x       y       z     vdW  Elec       q    Type
REMARK                         _______ _______ _______ _____ _____    ______ ____
ROOT
ATOM      1  C   UNL     1       8.038   7.108  18.340  0.00  0.00    +0.000 C 
ENDROOT
BRANCH   1   2
ATOM      2  C   UNL     1       6.888   7.272  17.341  0.00  0.00    +0.000 C 
BRANCH   2   3
ATOM      3  C   UNL     1       6.094   5.976  17.184  0.00  0.00    +0.000 C 
BRANCH   3   5
ATOM      4  C   UNL     1       4.834   5.278  19.217  0.00  0.00    +0.000 C 
ATOM      5  C   UNL     1       5.937   5.195  18.454  0.00  0.00    +0.000 C 
BRANCH   4   6
ATOM      6  C   UNL     1       3.656   6.170  18.936  0.00  0.00    +0.000 C 
BRANCH   6   8
ATOM      7  C   UNL     1       1.751   4.794  18.053  0.00  0.00    +0.000 C 
ATOM      8  C   UNL     1       2.778   5.634  17.840  0.00  0.00    +0.000 C 
BRANCH   7   9
ATOM      9  C   UNL     1       1.396   4.193  19.383  0.00  0.00    +0.000 C 
BRANCH   9  11
ATOM     10  C   UNL     1       1.891   1.765  18.976  0.00  0.00    +0.000 C 
ATOM     11  C   UNL     1       1.023   2.742  19.292  0.00  0.00    +0.000 C 
BRANCH  10  13
ATOM     12  C   UNL     1       4.224   1.941  19.875  0.00  0.00    +0.000 C 
ATOM     13  C   UNL     1       3.342   1.968  18.638  0.00  0.00    +0.000 C 
ENDBRANCH  10  13
ENDBRANCH   9  11
ENDBRANCH   7   9
ENDBRANCH   6   8
ENDBRANCH   4   6
ENDBRANCH   3   5
ENDBRANCH   2   3
ENDBRANCH   1   2
BRANCH   1  14
ATOM     14  C   UNL     1       8.608   8.452  18.791  0.00  0.00    +0.000 C 
BRANCH  14  15
ATOM     15  C   UNL     1       8.161   9.590  17.887  0.00  0.00    +0.000 C 
BRANCH  15  16
ATOM     16  C   UNL     1       9.089  10.788  18.070  0.00  0.00    +0.000 C 
BRANCH  16  17
ATOM     17  C   UNL     1       9.876  10.666  19.365  0.00  0.00    +0.000 C 
BRANCH  17  18
ATOM     18  C   UNL     1      11.044  11.645  19.377  0.00  0.00    +0.000 C 
BRANCH  18  19
ATOM     19  C   UNL     1      10.869  12.713  18.301  0.00  0.00    +0.000 C 
BRANCH  19  20
ATOM     20  C   UNL     1      10.611  14.072  18.942  0.00  0.00    +0.000 C 
BRANCH  20  21
ATOM     21  C   UNL     1      10.082  15.082  17.928  0.00  0.00    +0.000 C 
BRANCH  21  22
ATOM     22  C   UNL     1      11.185  15.594  17.037  0.00  0.00    +0.000 C 
ATOM     23  O   UNL     1      12.333  15.831  17.385  0.00  0.00    +0.000 OA
BRANCH  22  24
ATOM     24  O   UNL     1      10.780  15.774  15.758  0.00  0.00    +0.000 OA
ATOM     25  H   UNL     1      10.683  16.713  15.513  0.00  0.00    +0.000 HD
ENDBRANCH  22  24
ENDBRANCH  21  22
ENDBRANCH  20  21
ENDBRANCH  19  20
ENDBRANCH  18  19
ENDBRANCH  17  18
ENDBRANCH  16  17
ENDBRANCH  15  16
ENDBRANCH  14  15
ENDBRANCH   1  14
TORSDOF 18
ENDMDL
MODEL 7
REMARK VINA RESULT:      -5.6      5.715      8.608
REMARK  Name = 
REMARK  19 active torsions:
REMARK  status: ('A' for Active; 'I' for Inactive)
REMARK    1  A    between atoms: C_1  and  C_2
REMARK    2  A    between atoms: C_2  and  C_3
REMARK    3  A    between atoms: C_4  and  C_5
REMARK    4  A    between atoms: C_5  and  C_6
REMARK    5  A    between atoms: C_7  and  C_8
REMARK    6  A    between atoms: C_8  and  C_9
REMARK    7  A    between atoms: C_10  and  C_11
REMARK    8  A    between atoms: C_11  and  C_12
REMARK    9  A    between atoms: C_12  and  C_13
REMARK   10  A    between atoms: C_13  and  C_14
REMARK   11  A    between atoms: C_14  and  C_15
REMARK   12  A    between atoms: C_15  and  C_16
REMARK   13  A    between atoms: C_16  and  C_17
REMARK   14  A    between atoms: C_17  and  C_18
REMARK   15  A    between atoms: C_18  and  C_19
REMARK   16  A    between atoms: C_19  and  C_20
REMARK   17  A    between atoms: C_20  and  C_21
REMARK   18  A    between atoms: C_21  and  C_22
REMARK   19  A    between atoms: C_22  and  O_24
REMARK                            x       y       z     vdW  Elec       q    Type
REMARK                         _______ _______ _______ _____ _____    ______ ____
ROOT
ATOM      1  C   UNL     1       5.922   3.840  16.216  0.00  0.00    +0.000 C 
ENDROOT
BRANCH   1   2
ATOM      2  C   UNL     1       4.407   4.060  16.159  0.00  0.00    +0.000 C 
BRANCH   2   3
ATOM      3  C   UNL     1       3.729   3.624  17.456  0.00  0.00    +0.000 C 
BRANCH   3   5
ATOM      4  C   UNL     1       3.156   1.528  18.676  0.00  0.00    +0.000 C 
ATOM      5  C   UNL     1       3.946   2.183  17.808  0.00  0.00    +0.000 C 
BRANCH   4   6
ATOM      6  C   UNL     1       2.005   2.141  19.426  0.00  0.00    +0.000 C 
BRANCH   6   8
ATOM      7  C   UNL     1       1.993   3.885  21.232  0.00  0.00    +0.000 C 
ATOM      8  C   UNL     1       2.421   2.703  20.756  0.00  0.00    +0.000 C 
BRANCH   7   9
ATOM      9  C   UNL     1       1.130   4.852  20.473  0.00  0.00    +0.000 C 
BRANCH   9  11
ATOM     10  C   UNL     1       2.203   7.111  20.236  0.00  0.00    +0.000 C 
ATOM     11  C   UNL     1       1.357   6.282  20.873  0.00  0.00    +0.000 C 
BRANCH  10  13
ATOM     12  C   UNL     1       2.436   7.145  17.741  0.00  0.00    +0.000 C 
ATOM     13  C   UNL     1       3.067   6.738  19.063  0.00  0.00    +0.000 C 
ENDBRANCH  10  13
ENDBRANCH   9  11
ENDBRANCH   7   9
ENDBRANCH   6   8
ENDBRANCH   4   6
ENDBRANCH   3   5
ENDBRANCH   2   3
ENDBRANCH   1   2
BRANCH   1  14
ATOM     14  C   UNL     1       6.702   5.150  16.112  0.00  0.00    +0.000 C 
BRANCH  14  15
ATOM     15  C   UNL     1       5.794   6.363  16.251  0.00  0.00    +0.000 C 
BRANCH  15  16
ATOM     16  C   UNL     1       6.451   7.397  17.161  0.00  0.00    +0.000 C 
BRANCH  16  17
ATOM     17  C   UNL     1       7.519   6.749  18.029  0.00  0.00    +0.000 C 
BRANCH  17  18
ATOM     18  C   UNL     1       8.452   7.804  18.608  0.00  0.00    +0.000 C 
BRANCH  18  19
ATOM     19  C   UNL     1       8.205   9.163  17.959  0.00  0.00    +0.000 C 
BRANCH  19  20
ATOM     20  C   UNL     1       8.890  10.265  18.761  0.00  0.00    +0.000 C 
BRANCH  20  21
ATOM     21  C   UNL     1       9.910  11.024  17.918  0.00  0.00    +0.000 C 
BRANCH  21  22
ATOM     22  C   UNL     1       9.799  12.512  18.130  0.00  0.00    +0.000 C 
ATOM     23  O   UNL     1      10.410  13.163  18.966  0.00  0.00    +0.000 OA
BRANCH  22  24
ATOM     24  O   UNL     1       8.929  13.097  17.273  0.00  0.00    +0.000 OA
ATOM     25  H   UNL     1       8.027  12.732  17.331  0.00  0.00    +0.000 HD
ENDBRANCH  22  24
ENDBRANCH  21  22
ENDBRANCH  20  21
ENDBRANCH  19  20
ENDBRANCH  18  19
ENDBRANCH  17  18
ENDBRANCH  16  17
ENDBRANCH  15  16
ENDBRANCH  14  15
ENDBRANCH   1  14
TORSDOF 18
ENDMDL
MODEL 8
REMARK VINA RESULT:      -5.6      3.172      5.550
REMARK  Name = 
REMARK  19 active torsions:
REMARK  status: ('A' for Active; 'I' for Inactive)
REMARK    1  A    between atoms: C_1  and  C_2
REMARK    2  A    between atoms: C_2  and  C_3
REMARK    3  A    between atoms: C_4  and  C_5
REMARK    4  A    between atoms: C_5  and  C_6
REMARK    5  A    between atoms: C_7  and  C_8
REMARK    6  A    between atoms: C_8  and  C_9
REMARK    7  A    between atoms: C_10  and  C_11
REMARK    8  A    between atoms: C_11  and  C_12
REMARK    9  A    between atoms: C_12  and  C_13
REMARK   10  A    between atoms: C_13  and  C_14
REMARK   11  A    between atoms: C_14  and  C_15
REMARK   12  A    between atoms: C_15  and  C_16
REMARK   13  A    between atoms: C_16  and  C_17
REMARK   14  A    between atoms: C_17  and  C_18
REMARK   15  A    between atoms: C_18  and  C_19
REMARK   16  A    between atoms: C_19  and  C_20
REMARK   17  A    between atoms: C_20  and  C_21
REMARK   18  A    between atoms: C_21  and  C_22
REMARK   19  A    between atoms: C_22  and  O_24
REMARK                            x       y       z     vdW  Elec       q    Type
REMARK                         _______ _______ _______ _____ _____    ______ ____
ROOT
ATOM      1  C   UNL     1       3.139   1.873  18.421  0.00  0.00    +0.000 C 
ENDROOT
BRANCH   1   2
ATOM      2  C   UNL     1       2.808   2.599  17.113  0.00  0.00    +0.000 C 
BRANCH   2   3
ATOM      3  C   UNL     1       3.805   3.720  16.827  0.00  0.00    +0.000 C 
BRANCH   3   5
ATOM      4  C   UNL     1       4.325   5.420  18.574  0.00  0.00    +0.000 C 
ATOM      5  C   UNL     1       3.533   4.989  17.577  0.00  0.00    +0.000 C 
BRANCH   4   6
ATOM      6  C   UNL     1       5.536   4.690  19.090  0.00  0.00    +0.000 C 
BRANCH   6   8
ATOM      7  C   UNL     1       7.374   6.200  18.287  0.00  0.00    +0.000 C 
ATOM      8  C   UNL     1       6.713   5.603  19.293  0.00  0.00    +0.000 C 
BRANCH   7   9
ATOM      9  C   UNL     1       7.105   5.968  16.827  0.00  0.00    +0.000 C 
BRANCH   9  11
ATOM     10  C   UNL     1       6.922   4.015  15.258  0.00  0.00    +0.000 C 
ATOM     11  C   UNL     1       7.395   4.560  16.393  0.00  0.00    +0.000 C 
BRANCH  10  13
ATOM     12  C   UNL     1       5.655   3.803  13.107  0.00  0.00    +0.000 C 
ATOM     13  C   UNL     1       6.016   4.704  14.276  0.00  0.00    +0.000 C 
ENDBRANCH  10  13
ENDBRANCH   9  11
ENDBRANCH   7   9
ENDBRANCH   6   8
ENDBRANCH   4   6
ENDBRANCH   3   5
ENDBRANCH   2   3
ENDBRANCH   1   2
BRANCH   1  14
ATOM     14  C   UNL     1       2.102   2.142  19.510  0.00  0.00    +0.000 C 
BRANCH  14  15
ATOM     15  C   UNL     1       2.732   2.737  20.760  0.00  0.00    +0.000 C 
BRANCH  15  16
ATOM     16  C   UNL     1       1.718   3.622  21.477  0.00  0.00    +0.000 C 
BRANCH  16  17
ATOM     17  C   UNL     1       1.340   4.816  20.614  0.00  0.00    +0.000 C 
BRANCH  17  18
ATOM     18  C   UNL     1       2.188   6.028  20.974  0.00  0.00    +0.000 C 
BRANCH  18  19
ATOM     19  C   UNL     1       1.631   7.294  20.328  0.00  0.00    +0.000 C 
BRANCH  19  20
ATOM     20  C   UNL     1       0.768   8.060  21.325  0.00  0.00    +0.000 C 
BRANCH  20  21
ATOM     21  C   UNL     1       0.948   9.568  21.182  0.00  0.00    +0.000 C 
BRANCH  21  22
ATOM     22  C   UNL     1       0.499  10.048  19.825  0.00  0.00    +0.000 C 
ATOM     23  O   UNL     1       1.233  10.422  18.920  0.00  0.00    +0.000 OA
BRANCH  22  24
ATOM     24  O   UNL     1      -0.847  10.026  19.683  0.00  0.00    +0.000 OA
ATOM     25  H   UNL     1      -1.140   9.596  18.858  0.00  0.00    +0.000 HD
ENDBRANCH  22  24
ENDBRANCH  21  22
ENDBRANCH  20  21
ENDBRANCH  19  20
ENDBRANCH  18  19
ENDBRANCH  17  18
ENDBRANCH  16  17
ENDBRANCH  15  16
ENDBRANCH  14  15
ENDBRANCH   1  14
TORSDOF 18
ENDMDL
MODEL 9
REMARK VINA RESULT:      -5.5      2.616      4.574
REMARK  Name = 
REMARK  19 active torsions:
REMARK  status: ('A' for Active; 'I' for Inactive)
REMARK    1  A    between atoms: C_1  and  C_2
REMARK    2  A    between atoms: C_2  and  C_3
REMARK    3  A    between atoms: C_4  and  C_5
REMARK    4  A    between atoms: C_5  and  C_6
REMARK    5  A    between atoms: C_7  and  C_8
REMARK    6  A    between atoms: C_8  and  C_9
REMARK    7  A    between atoms: C_10  and  C_11
REMARK    8  A    between atoms: C_11  and  C_12
REMARK    9  A    between atoms: C_12  and  C_13
REMARK   10  A    between atoms: C_13  and  C_14
REMARK   11  A    between atoms: C_14  and  C_15
REMARK   12  A    between atoms: C_15  and  C_16
REMARK   13  A    between atoms: C_16  and  C_17
REMARK   14  A    between atoms: C_17  and  C_18
REMARK   15  A    between atoms: C_18  and  C_19
REMARK   16  A    between atoms: C_19  and  C_20
REMARK   17  A    between atoms: C_20  and  C_21
REMARK   18  A    between atoms: C_21  and  C_22
REMARK   19  A    between atoms: C_22  and  O_24
REMARK                            x       y       z     vdW  Elec       q    Type
REMARK                         _______ _______ _______ _____ _____    ______ ____
ROOT
ATOM      1  C   UNL     1       0.921   3.656  19.418  0.00  0.00    +0.000 C 
ENDROOT
BRANCH   1   2
ATOM      2  C   UNL     1       1.327   2.295  18.841  0.00  0.00    +0.000 C 
BRANCH   2   3
ATOM      3  C   UNL     1       2.811   2.012  19.068  0.00  0.00    +0.000 C 
BRANCH   3   5
ATOM      4  C   UNL     1       4.091   3.080  17.216  0.00  0.00    +0.000 C 
ATOM      5  C   UNL     1       3.626   1.968  17.811  0.00  0.00    +0.000 C 
BRANCH   4   6
ATOM      6  C   UNL     1       3.831   4.484  17.689  0.00  0.00    +0.000 C 
BRANCH   6   8
ATOM      7  C   UNL     1       5.930   5.765  17.183  0.00  0.00    +0.000 C 
ATOM      8  C   UNL     1       5.094   5.204  18.073  0.00  0.00    +0.000 C 
BRANCH   7   9
ATOM      9  C   UNL     1       5.785   5.670  15.691  0.00  0.00    +0.000 C 
BRANCH   9  11
ATOM     10  C   UNL     1       6.574   3.961  14.029  0.00  0.00    +0.000 C 
ATOM     11  C   UNL     1       6.825   4.795  15.054  0.00  0.00    +0.000 C 
BRANCH  10  13
ATOM     12  C   UNL     1       5.352   3.242  11.963  0.00  0.00    +0.000 C 
ATOM     13  C   UNL     1       5.230   3.749  13.390  0.00  0.00    +0.000 C 
ENDBRANCH  10  13
ENDBRANCH   9  11
ENDBRANCH   7   9
ENDBRANCH   6   8
ENDBRANCH   4   6
ENDBRANCH   3   5
ENDBRANCH   2   3
ENDBRANCH   1   2
BRANCH   1  14
ATOM     14  C   UNL     1       1.373   3.827  20.868  0.00  0.00    +0.000 C 
BRANCH  14  15
ATOM     15  C   UNL     1       2.245   5.059  21.050  0.00  0.00    +0.000 C 
BRANCH  15  16
ATOM     16  C   UNL     1       1.481   6.302  20.605  0.00  0.00    +0.000 C 
BRANCH  16  17
ATOM     17  C   UNL     1       2.288   7.095  19.588  0.00  0.00    +0.000 C 
BRANCH  17  18
ATOM     18  C   UNL     1       1.768   8.523  19.487  0.00  0.00    +0.000 C 
BRANCH  18  19
ATOM     19  C   UNL     1       1.044   8.930  20.767  0.00  0.00    +0.000 C 
BRANCH  19  20
ATOM     20  C   UNL     1      -0.280   9.611  20.433  0.00  0.00    +0.000 C 
BRANCH  20  21
ATOM     21  C   UNL     1      -0.310  10.104  18.990  0.00  0.00    +0.000 C 
BRANCH  21  22
ATOM     22  C   UNL     1      -0.191  11.605  18.920  0.00  0.00    +0.000 C 
ATOM     23  O   UNL     1      -0.906  12.407  19.505  0.00  0.00    +0.000 OA
BRANCH  22  24
ATOM     24  O   UNL     1       0.824  12.011  18.121  0.00  0.00    +0.000 OA
ATOM     25  H   UNL     1       0.773  11.648  17.218  0.00  0.00    +0.000 HD
ENDBRANCH  22  24
ENDBRANCH  21  22
ENDBRANCH  20  21
ENDBRANCH  19  20
ENDBRANCH  18  19
ENDBRANCH  17  18
ENDBRANCH  16  17
ENDBRANCH  15  16
ENDBRANCH  14  15
ENDBRANCH   1  14
TORSDOF 18
ENDMDL
