MODEL 1
REMARK VINA RESULT:     -10.2      0.000      0.000
REMARK  Name = 
REMARK  4 active torsions:
REMARK  status: ('A' for Active; 'I' for Inactive)
REMARK    1  A    between atoms: C_2  and  C_3
REMARK    2  A    between atoms: C_3  and  C_4
REMARK    3  A    between atoms: C_6  and  N_7
REMARK    4  A    between atoms: C_25  and  C_26
REMARK                            x       y       z     vdW  Elec       q    Type
REMARK                         _______ _______ _______ _____ _____    ______ ____
ROOT
ATOM      1  O   UNL     1       1.654   7.227  20.634  0.00  0.00    +0.000 OA
ATOM      2  C   UNL     1       2.094   7.070  19.489  0.00  0.00    +0.000 C 
ATOM      3  N   UNL     1       2.343   5.845  18.910  0.00  0.00    +0.000 N 
ATOM      4  C   UNL     1       2.005   4.607  19.494  0.00  0.00    +0.000 A 
ATOM      5  C   UNL     1       1.391   4.367  20.715  0.00  0.00    +0.000 A 
ATOM      6  C   UNL     1       1.222   3.045  21.123  0.00  0.00    +0.000 A 
ATOM      7  C   UNL     1       1.650   1.985  20.313  0.00  0.00    +0.000 A 
ATOM      8  C   UNL     1       2.232   2.234  19.067  0.00  0.00    +0.000 A 
ATOM      9  C   UNL     1       2.400   3.551  18.671  0.00  0.00    +0.000 A 
ATOM     10  C   UNL     1       2.962   4.059  17.379  0.00  0.00    +0.000 C 
ATOM     11  C   UNL     1       3.149   5.568  17.687  0.00  0.00    +0.000 C 
ENDROOT
BRANCH  11  12
ATOM     12  C   UNL     1       4.620   5.916  17.919  0.00  0.00    +0.000 A 
ATOM     13  C   UNL     1       5.352   5.299  18.948  0.00  0.00    +0.000 A 
ATOM     14  C   UNL     1       6.691   5.639  19.162  0.00  0.00    +0.000 A 
ATOM     15  C   UNL     1       7.300   6.592  18.354  0.00  0.00    +0.000 A 
ATOM     16  F   UNL     1       8.578   6.928  18.574  0.00  0.00    +0.000 F 
ATOM     17  C   UNL     1       6.603   7.203  17.323  0.00  0.00    +0.000 A 
ATOM     18  C   UNL     1       5.271   6.862  17.104  0.00  0.00    +0.000 A 
ENDBRANCH  11  12
BRANCH   2  19
ATOM     19  C   UNL     1       2.262   8.300  18.635  0.00  0.00    +0.000 C 
BRANCH  19  20
ATOM     20  C   UNL     1       1.245   9.367  18.951  0.00  0.00    +0.000 A 
ATOM     21  N   UNL     1       0.283   9.569  18.107  0.00  0.00    +0.000 NA
ATOM     22  C   UNL     1      -0.677  10.496  18.423  0.00  0.00    +0.000 A 
ATOM     23  C   UNL     1      -0.610  11.232  19.546  0.00  0.00    +0.000 A 
ATOM     24  C   UNL     1       0.496  11.030  20.480  0.00  0.00    +0.000 A 
ATOM     25  O   UNL     1       0.584  11.667  21.522  0.00  0.00    +0.000 OA
ATOM     26  N   UNL     1       1.386  10.073  20.106  0.00  0.00    +0.000 N 
ATOM     27  H   UNL     1       2.157   9.889  20.745  0.00  0.00    +0.000 HD
BRANCH  22  28
ATOM     28  N   UNL     1      -1.778  10.673  17.579  0.00  0.00    +0.000 N 
ATOM     29  C   UNL     1      -1.981   9.765  16.425  0.00  0.00    +0.000 C 
ATOM     30  C   UNL     1      -2.972  10.406  15.435  0.00  0.00    +0.000 C 
ATOM     31  O   UNL     1      -4.220  10.745  16.063  0.00  0.00    +0.000 OA
ATOM     32  C   UNL     1      -3.995  11.642  17.160  0.00  0.00    +0.000 C 
ATOM     33  C   UNL     1      -3.080  11.007  18.207  0.00  0.00    +0.000 C 
ENDBRANCH  22  28
ENDBRANCH  19  20
ENDBRANCH   2  19
TORSDOF 4
ENDMDL
MODEL 2
REMARK VINA RESULT:      -9.6      1.983      3.452
REMARK  Name = 
REMARK  4 active torsions:
REMARK  status: ('A' for Active; 'I' for Inactive)
REMARK    1  A    between atoms: C_2  and  C_3
REMARK    2  A    between atoms: C_3  and  C_4
REMARK    3  A    between atoms: C_6  and  N_7
REMARK    4  A    between atoms: C_25  and  C_26
REMARK                            x       y       z     vdW  Elec       q    Type
REMARK                         _______ _______ _______ _____ _____    ______ ____
ROOT
ATOM      1  O   UNL     1       1.728   7.447  20.060  0.00  0.00    +0.000 OA
ATOM      2  C   UNL     1       2.289   7.179  18.992  0.00  0.00    +0.000 C 
ATOM      3  N   UNL     1       2.581   5.902  18.563  0.00  0.00    +0.000 N 
ATOM      4  C   UNL     1       2.161   4.728  19.221  0.00  0.00    +0.000 A 
ATOM      5  C   UNL     1       1.412   4.610  20.382  0.00  0.00    +0.000 A 
ATOM      6  C   UNL     1       1.177   3.334  20.894  0.00  0.00    +0.000 A 
ATOM      7  C   UNL     1       1.675   2.199  20.240  0.00  0.00    +0.000 A 
ATOM      8  C   UNL     1       2.395   2.323  19.049  0.00  0.00    +0.000 A 
ATOM      9  C   UNL     1       2.627   3.596  18.551  0.00  0.00    +0.000 A 
ATOM     10  C   UNL     1       3.337   3.974  17.288  0.00  0.00    +0.000 C 
ATOM     11  C   UNL     1       3.513   5.505  17.470  0.00  0.00    +0.000 C 
ENDROOT
BRANCH  11  12
ATOM     12  C   UNL     1       4.955   5.865  17.831  0.00  0.00    +0.000 A 
ATOM     13  C   UNL     1       5.583   5.287  18.947  0.00  0.00    +0.000 A 
ATOM     14  C   UNL     1       6.896   5.639  19.277  0.00  0.00    +0.000 A 
ATOM     15  C   UNL     1       7.580   6.565  18.499  0.00  0.00    +0.000 A 
ATOM     16  F   UNL     1       8.830   6.913  18.829  0.00  0.00    +0.000 F 
ATOM     17  C   UNL     1       6.986   7.137  17.384  0.00  0.00    +0.000 A 
ATOM     18  C   UNL     1       5.681   6.784  17.050  0.00  0.00    +0.000 A 
ENDBRANCH  11  12
BRANCH   2  19
ATOM     19  C   UNL     1       2.571   8.320  18.050  0.00  0.00    +0.000 C 
BRANCH  19  20
ATOM     20  C   UNL     1       1.637   9.485  18.258  0.00  0.00    +0.000 A 
ATOM     21  N   UNL     1       2.143  10.623  18.616  0.00  0.00    +0.000 NA
ATOM     22  C   UNL     1       1.302  11.698  18.746  0.00  0.00    +0.000 A 
ATOM     23  C   UNL     1      -0.026  11.585  18.569  0.00  0.00    +0.000 A 
ATOM     24  C   UNL     1      -0.601  10.292  18.203  0.00  0.00    +0.000 A 
ATOM     25  O   UNL     1      -1.803  10.152  18.016  0.00  0.00    +0.000 OA
ATOM     26  N   UNL     1       0.304   9.288  18.066  0.00  0.00    +0.000 N 
ATOM     27  H   UNL     1      -0.058   8.378  17.787  0.00  0.00    +0.000 HD
BRANCH  22  28
ATOM     28  N   UNL     1       1.827  12.961  19.039  0.00  0.00    +0.000 N 
ATOM     29  C   UNL     1       2.028  13.371  20.450  0.00  0.00    +0.000 C 
ATOM     30  C   UNL     1       2.193  14.900  20.523  0.00  0.00    +0.000 C 
ATOM     31  O   UNL     1       3.261  15.369  19.682  0.00  0.00    +0.000 OA
ATOM     32  C   UNL     1       3.027  14.978  18.320  0.00  0.00    +0.000 C 
ATOM     33  C   UNL     1       2.940  13.458  18.195  0.00  0.00    +0.000 C 
ENDBRANCH  22  28
ENDBRANCH  19  20
ENDBRANCH   2  19
TORSDOF 4
ENDMDL
MODEL 3
REMARK VINA RESULT:      -9.6      1.378      3.296
REMARK  Name = 
REMARK  4 active torsions:
REMARK  status: ('A' for Active; 'I' for Inactive)
REMARK    1  A    between atoms: C_2  and  C_3
REMARK    2  A    between atoms: C_3  and  C_4
REMARK    3  A    between atoms: C_6  and  N_7
REMARK    4  A    between atoms: C_25  and  C_26
REMARK                            x       y       z     vdW  Elec       q    Type
REMARK                         _______ _______ _______ _____ _____    ______ ____
ROOT
ATOM      1  O   UNL     1       1.702   7.384  20.392  0.00  0.00    +0.000 OA
ATOM      2  C   UNL     1       2.199   7.180  19.278  0.00  0.00    +0.000 C 
ATOM      3  N   UNL     1       2.455   5.931  18.755  0.00  0.00    +0.000 N 
ATOM      4  C   UNL     1       2.064   4.721  19.363  0.00  0.00    +0.000 A 
ATOM      5  C   UNL     1       1.382   4.534  20.556  0.00  0.00    +0.000 A 
ATOM      6  C   UNL     1       1.167   3.230  21.000  0.00  0.00    +0.000 A 
ATOM      7  C   UNL     1       1.618   2.135  20.250  0.00  0.00    +0.000 A 
ATOM      8  C   UNL     1       2.269   2.330  19.029  0.00  0.00    +0.000 A 
ATOM      9  C   UNL     1       2.482   3.630  18.598  0.00  0.00    +0.000 A 
ATOM     10  C   UNL     1       3.122   4.083  17.321  0.00  0.00    +0.000 C 
ATOM     11  C   UNL     1       3.320   5.599  17.587  0.00  0.00    +0.000 C 
ENDROOT
BRANCH  11  12
ATOM     12  C   UNL     1       4.782   5.929  17.886  0.00  0.00    +0.000 A 
ATOM     13  C   UNL     1       5.452   5.323  18.962  0.00  0.00    +0.000 A 
ATOM     14  C   UNL     1       6.785   5.648  19.236  0.00  0.00    +0.000 A 
ATOM     15  C   UNL     1       7.447   6.575  18.441  0.00  0.00    +0.000 A 
ATOM     16  F   UNL     1       8.718   6.897  18.718  0.00  0.00    +0.000 F 
ATOM     17  C   UNL     1       6.812   7.175  17.364  0.00  0.00    +0.000 A 
ATOM     18  C   UNL     1       5.487   6.849  17.085  0.00  0.00    +0.000 A 
ENDBRANCH  11  12
BRANCH   2  19
ATOM     19  C   UNL     1       2.435   8.376  18.394  0.00  0.00    +0.000 C 
BRANCH  19  20
ATOM     20  C   UNL     1       1.336   9.402  18.503  0.00  0.00    +0.000 A 
ATOM     21  N   UNL     1       1.467  10.354  19.373  0.00  0.00    +0.000 NA
ATOM     22  C   UNL     1       0.498  11.322  19.431  0.00  0.00    +0.000 A 
ATOM     23  C   UNL     1      -0.601  11.273  18.657  0.00  0.00    +0.000 A 
ATOM     24  C   UNL     1      -0.767  10.178  17.703  0.00  0.00    +0.000 A 
ATOM     25  O   UNL     1      -1.743  10.107  16.968  0.00  0.00    +0.000 OA
ATOM     26  N   UNL     1       0.252   9.279  17.688  0.00  0.00    +0.000 N 
ATOM     27  H   UNL     1       0.182   8.516  17.019  0.00  0.00    +0.000 HD
BRANCH  22  28
ATOM     28  N   UNL     1       0.654  12.413  20.292  0.00  0.00    +0.000 N 
ATOM     29  C   UNL     1      -0.101  12.466  21.567  0.00  0.00    +0.000 C 
ATOM     30  C   UNL     1      -0.098  13.908  22.108  0.00  0.00    +0.000 C 
ATOM     31  O   UNL     1       1.235  14.423  22.264  0.00  0.00    +0.000 OA
ATOM     32  C   UNL     1       1.932  14.382  21.010  0.00  0.00    +0.000 C 
ATOM     33  C   UNL     1       2.023  12.951  20.481  0.00  0.00    +0.000 C 
ENDBRANCH  22  28
ENDBRANCH  19  20
ENDBRANCH   2  19
TORSDOF 4
ENDMDL
MODEL 4
REMARK VINA RESULT:      -9.4      2.014      3.558
REMARK  Name = 
REMARK  4 active torsions:
REMARK  status: ('A' for Active; 'I' for Inactive)
REMARK    1  A    between atoms: C_2  and  C_3
REMARK    2  A    between atoms: C_3  and  C_4
REMARK    3  A    between atoms: C_6  and  N_7
REMARK    4  A    between atoms: C_25  and  C_26
REMARK                            x       y       z     vdW  Elec       q    Type
REMARK                         _______ _______ _______ _____ _____    ______ ____
ROOT
ATOM      1  O   UNL     1       1.685   7.545  19.958  0.00  0.00    +0.000 OA
ATOM      2  C   UNL     1       2.260   7.242  18.907  0.00  0.00    +0.000 C 
ATOM      3  N   UNL     1       2.575   5.954  18.533  0.00  0.00    +0.000 N 
ATOM      4  C   UNL     1       2.165   4.801  19.234  0.00  0.00    +0.000 A 
ATOM      5  C   UNL     1       1.406   4.718  20.392  0.00  0.00    +0.000 A 
ATOM      6  C   UNL     1       1.185   3.461  20.951  0.00  0.00    +0.000 A 
ATOM      7  C   UNL     1       1.706   2.307  20.349  0.00  0.00    +0.000 A 
ATOM      8  C   UNL     1       2.436   2.395  19.161  0.00  0.00    +0.000 A 
ATOM      9  C   UNL     1       2.654   3.650  18.615  0.00  0.00    +0.000 A 
ATOM     10  C   UNL     1       3.372   3.988  17.344  0.00  0.00    +0.000 C 
ATOM     11  C   UNL     1       3.524   5.527  17.466  0.00  0.00    +0.000 C 
ENDROOT
BRANCH  11  12
ATOM     12  C   UNL     1       4.956   5.923  17.825  0.00  0.00    +0.000 A 
ATOM     13  C   UNL     1       5.655   6.872  17.060  0.00  0.00    +0.000 A 
ATOM     14  C   UNL     1       6.971   7.211  17.388  0.00  0.00    +0.000 A 
ATOM     15  C   UNL     1       7.590   6.607  18.476  0.00  0.00    +0.000 A 
ATOM     16  F   UNL     1       8.857   6.921  18.776  0.00  0.00    +0.000 F 
ATOM     17  C   UNL     1       6.916   5.678  19.255  0.00  0.00    +0.000 A 
ATOM     18  C   UNL     1       5.603   5.342  18.933  0.00  0.00    +0.000 A 
ENDBRANCH  11  12
BRANCH   2  19
ATOM     19  C   UNL     1       2.535   8.348  17.923  0.00  0.00    +0.000 C 
BRANCH  19  20
ATOM     20  C   UNL     1       1.693   9.572  18.179  0.00  0.00    +0.000 A 
ATOM     21  N   UNL     1       2.278  10.640  18.622  0.00  0.00    +0.000 NA
ATOM     22  C   UNL     1       1.524  11.772  18.797  0.00  0.00    +0.000 A 
ATOM     23  C   UNL     1       0.197  11.781  18.578  0.00  0.00    +0.000 A 
ATOM     24  C   UNL     1      -0.469  10.565  18.115  0.00  0.00    +0.000 A 
ATOM     25  O   UNL     1      -1.672  10.537  17.887  0.00  0.00    +0.000 OA
ATOM     26  N   UNL     1       0.355   9.499  17.939  0.00  0.00    +0.000 N 
ATOM     27  H   UNL     1      -0.071   8.641  17.593  0.00  0.00    +0.000 HD
BRANCH  22  28
ATOM     28  N   UNL     1       2.139  12.966  19.184  0.00  0.00    +0.000 N 
ATOM     29  C   UNL     1       2.600  13.930  18.156  0.00  0.00    +0.000 C 
ATOM     30  C   UNL     1       3.598  14.918  18.787  0.00  0.00    +0.000 C 
ATOM     31  O   UNL     1       3.042  15.593  19.929  0.00  0.00    +0.000 OA
ATOM     32  C   UNL     1       2.628  14.636  20.916  0.00  0.00    +0.000 C 
ATOM     33  C   UNL     1       1.573  13.688  20.349  0.00  0.00    +0.000 C 
ENDBRANCH  22  28
ENDBRANCH  19  20
ENDBRANCH   2  19
TORSDOF 4
ENDMDL
MODEL 5
REMARK VINA RESULT:      -9.4      1.101      1.633
REMARK  Name = 
REMARK  4 active torsions:
REMARK  status: ('A' for Active; 'I' for Inactive)
REMARK    1  A    between atoms: C_2  and  C_3
REMARK    2  A    between atoms: C_3  and  C_4
REMARK    3  A    between atoms: C_6  and  N_7
REMARK    4  A    between atoms: C_25  and  C_26
REMARK                            x       y       z     vdW  Elec       q    Type
REMARK                         _______ _______ _______ _____ _____    ______ ____
ROOT
ATOM      1  O   UNL     1       1.698   7.623  19.891  0.00  0.00    +0.000 OA
ATOM      2  C   UNL     1       2.280   7.286  18.853  0.00  0.00    +0.000 C 
ATOM      3  N   UNL     1       2.587   5.985  18.518  0.00  0.00    +0.000 N 
ATOM      4  C   UNL     1       2.160   4.856  19.247  0.00  0.00    +0.000 A 
ATOM      5  C   UNL     1       1.390   4.813  20.399  0.00  0.00    +0.000 A 
ATOM      6  C   UNL     1       1.154   3.573  20.992  0.00  0.00    +0.000 A 
ATOM      7  C   UNL     1       1.670   2.399  20.427  0.00  0.00    +0.000 A 
ATOM      8  C   UNL     1       2.411   2.447  19.243  0.00  0.00    +0.000 A 
ATOM      9  C   UNL     1       2.645   3.684  18.664  0.00  0.00    +0.000 A 
ATOM     10  C   UNL     1       3.377   3.980  17.391  0.00  0.00    +0.000 C 
ATOM     11  C   UNL     1       3.541   5.521  17.471  0.00  0.00    +0.000 C 
ENDROOT
BRANCH  11  12
ATOM     12  C   UNL     1       4.973   5.914  17.833  0.00  0.00    +0.000 A 
ATOM     13  C   UNL     1       5.674   6.864  17.071  0.00  0.00    +0.000 A 
ATOM     14  C   UNL     1       6.990   7.202  17.400  0.00  0.00    +0.000 A 
ATOM     15  C   UNL     1       7.608   6.594  18.486  0.00  0.00    +0.000 A 
ATOM     16  F   UNL     1       8.875   6.906  18.788  0.00  0.00    +0.000 F 
ATOM     17  C   UNL     1       6.932   5.664  19.263  0.00  0.00    +0.000 A 
ATOM     18  C   UNL     1       5.620   5.331  18.940  0.00  0.00    +0.000 A 
ENDBRANCH  11  12
BRANCH   2  19
ATOM     19  C   UNL     1       2.573   8.362  17.841  0.00  0.00    +0.000 C 
BRANCH  19  20
ATOM     20  C   UNL     1       1.791   9.625  18.097  0.00  0.00    +0.000 A 
ATOM     21  N   UNL     1       0.503   9.591  17.957  0.00  0.00    +0.000 NA
ATOM     22  C   UNL     1      -0.214  10.723  18.249  0.00  0.00    +0.000 A 
ATOM     23  C   UNL     1       0.386  11.869  18.616  0.00  0.00    +0.000 A 
ATOM     24  C   UNL     1       1.842  11.917  18.736  0.00  0.00    +0.000 A 
ATOM     25  O   UNL     1       2.425  12.936  19.085  0.00  0.00    +0.000 OA
ATOM     26  N   UNL     1       2.473  10.747  18.458  0.00  0.00    +0.000 N 
ATOM     27  H   UNL     1       3.487  10.737  18.555  0.00  0.00    +0.000 HD
BRANCH  22  28
ATOM     28  N   UNL     1      -1.612  10.693  18.199  0.00  0.00    +0.000 N 
ATOM     29  C   UNL     1      -2.388  11.939  18.412  0.00  0.00    +0.000 C 
ATOM     30  C   UNL     1      -3.851  11.585  18.734  0.00  0.00    +0.000 C 
ATOM     31  O   UNL     1      -4.445  10.763  17.715  0.00  0.00    +0.000 OA
ATOM     32  C   UNL     1      -3.688   9.555  17.548  0.00  0.00    +0.000 C 
ATOM     33  C   UNL     1      -2.246   9.865  17.145  0.00  0.00    +0.000 C 
ENDBRANCH  22  28
ENDBRANCH  19  20
ENDBRANCH   2  19
TORSDOF 4
ENDMDL
MODEL 6
REMARK VINA RESULT:      -9.2      2.411      3.006
REMARK  Name = 
REMARK  4 active torsions:
REMARK  status: ('A' for Active; 'I' for Inactive)
REMARK    1  A    between atoms: C_2  and  C_3
REMARK    2  A    between atoms: C_3  and  C_4
REMARK    3  A    between atoms: C_6  and  N_7
REMARK    4  A    between atoms: C_25  and  C_26
REMARK                            x       y       z     vdW  Elec       q    Type
REMARK                         _______ _______ _______ _____ _____    ______ ____
ROOT
ATOM      1  O   UNL     1       1.669   7.514  20.005  0.00  0.00    +0.000 OA
ATOM      2  C   UNL     1       2.221   7.211  18.941  0.00  0.00    +0.000 C 
ATOM      3  N   UNL     1       2.530   5.922  18.564  0.00  0.00    +0.000 N 
ATOM      4  C   UNL     1       2.139   4.770  19.276  0.00  0.00    +0.000 A 
ATOM      5  C   UNL     1       1.406   4.689  20.450  0.00  0.00    +0.000 A 
ATOM      6  C   UNL     1       1.200   3.432  21.018  0.00  0.00    +0.000 A 
ATOM      7  C   UNL     1       1.710   2.278  20.407  0.00  0.00    +0.000 A 
ATOM      8  C   UNL     1       2.413   2.364  19.202  0.00  0.00    +0.000 A 
ATOM      9  C   UNL     1       2.616   3.619  18.648  0.00  0.00    +0.000 A 
ATOM     10  C   UNL     1       3.305   3.955  17.361  0.00  0.00    +0.000 C 
ATOM     11  C   UNL     1       3.456   5.495  17.476  0.00  0.00    +0.000 C 
ENDROOT
BRANCH  11  12
ATOM     12  C   UNL     1       4.895   5.894  17.803  0.00  0.00    +0.000 A 
ATOM     13  C   UNL     1       5.572   5.320  18.892  0.00  0.00    +0.000 A 
ATOM     14  C   UNL     1       6.881   5.708  19.192  0.00  0.00    +0.000 A 
ATOM     15  C   UNL     1       7.515   6.666  18.410  0.00  0.00    +0.000 A 
ATOM     16  F   UNL     1       8.763   7.048  18.712  0.00  0.00    +0.000 F 
ATOM     17  C   UNL     1       6.873   7.235  17.321  0.00  0.00    +0.000 A 
ATOM     18  C   UNL     1       5.571   6.847  17.016  0.00  0.00    +0.000 A 
ENDBRANCH  11  12
BRANCH   2  19
ATOM     19  C   UNL     1       2.471   8.315  17.949  0.00  0.00    +0.000 C 
BRANCH  19  20
ATOM     20  C   UNL     1       2.016   9.661  18.454  0.00  0.00    +0.000 A 
ATOM     21  N   UNL     1       1.234   9.698  19.486  0.00  0.00    +0.000 NA
ATOM     22  C   UNL     1       0.869  10.923  19.983  0.00  0.00    +0.000 A 
ATOM     23  C   UNL     1       1.252  12.070  19.395  0.00  0.00    +0.000 A 
ATOM     24  C   UNL     1       2.104  12.026  18.208  0.00  0.00    +0.000 A 
ATOM     25  O   UNL     1       2.490  13.048  17.655  0.00  0.00    +0.000 OA
ATOM     26  N   UNL     1       2.443  10.776  17.800  0.00  0.00    +0.000 N 
ATOM     27  H   UNL     1       3.056  10.707  16.990  0.00  0.00    +0.000 HD
BRANCH  22  28
ATOM     28  N   UNL     1       0.102  11.000  21.150  0.00  0.00    +0.000 N 
ATOM     29  C   UNL     1      -0.994  11.994  21.253  0.00  0.00    +0.000 C 
ATOM     30  C   UNL     1      -1.385  12.178  22.731  0.00  0.00    +0.000 C 
ATOM     31  O   UNL     1      -1.745  10.932  23.353  0.00  0.00    +0.000 OA
ATOM     32  C   UNL     1      -0.658  10.000  23.259  0.00  0.00    +0.000 C 
ATOM     33  C   UNL     1      -0.295   9.728  21.800  0.00  0.00    +0.000 C 
ENDBRANCH  22  28
ENDBRANCH  19  20
ENDBRANCH   2  19
TORSDOF 4
ENDMDL
MODEL 7
REMARK VINA RESULT:      -9.1      1.478      3.346
REMARK  Name = 
REMARK  4 active torsions:
REMARK  status: ('A' for Active; 'I' for Inactive)
REMARK    1  A    between atoms: C_2  and  C_3
REMARK    2  A    between atoms: C_3  and  C_4
REMARK    3  A    between atoms: C_6  and  N_7
REMARK    4  A    between atoms: C_25  and  C_26
REMARK                            x       y       z     vdW  Elec       q    Type
REMARK                         _______ _______ _______ _____ _____    ______ ____
ROOT
ATOM      1  O   UNL     1       1.678   7.403  20.332  0.00  0.00    +0.000 OA
ATOM      2  C   UNL     1       2.194   7.186  19.230  0.00  0.00    +0.000 C 
ATOM      3  N   UNL     1       2.467   5.931  18.729  0.00  0.00    +0.000 N 
ATOM      4  C   UNL     1       2.073   4.727  19.348  0.00  0.00    +0.000 A 
ATOM      5  C   UNL     1       1.372   4.553  20.532  0.00  0.00    +0.000 A 
ATOM      6  C   UNL     1       1.158   3.255  20.991  0.00  0.00    +0.000 A 
ATOM      7  C   UNL     1       1.627   2.152  20.265  0.00  0.00    +0.000 A 
ATOM      8  C   UNL     1       2.298   2.333  19.052  0.00  0.00    +0.000 A 
ATOM      9  C   UNL     1       2.510   3.629  18.606  0.00  0.00    +0.000 A 
ATOM     10  C   UNL     1       3.168   4.067  17.334  0.00  0.00    +0.000 C 
ATOM     11  C   UNL     1       3.353   5.587  17.581  0.00  0.00    +0.000 C 
ENDROOT
BRANCH  11  12
ATOM     12  C   UNL     1       4.808   5.931  17.899  0.00  0.00    +0.000 A 
ATOM     13  C   UNL     1       5.522   6.845  17.105  0.00  0.00    +0.000 A 
ATOM     14  C   UNL     1       6.858   7.137  17.395  0.00  0.00    +0.000 A 
ATOM     15  C   UNL     1       7.482   6.520  18.472  0.00  0.00    +0.000 A 
ATOM     16  F   UNL     1       8.768   6.789  18.735  0.00  0.00    +0.000 F 
ATOM     17  C   UNL     1       6.795   5.626  19.279  0.00  0.00    +0.000 A 
ATOM     18  C   UNL     1       5.462   5.338  18.996  0.00  0.00    +0.000 A 
ENDBRANCH  11  12
BRANCH   2  19
ATOM     19  C   UNL     1       2.438   8.371  18.332  0.00  0.00    +0.000 C 
BRANCH  19  20
ATOM     20  C   UNL     1       1.386   9.439  18.487  0.00  0.00    +0.000 A 
ATOM     21  N   UNL     1       1.604  10.400  19.329  0.00  0.00    +0.000 NA
ATOM     22  C   UNL     1       0.676  11.405  19.426  0.00  0.00    +0.000 A 
ATOM     23  C   UNL     1      -0.469  11.385  18.719  0.00  0.00    +0.000 A 
ATOM     24  C   UNL     1      -0.731  10.280  17.798  0.00  0.00    +0.000 A 
ATOM     25  O   UNL     1      -1.752  10.234  17.123  0.00  0.00    +0.000 OA
ATOM     26  N   UNL     1       0.251   9.344  17.740  0.00  0.00    +0.000 N 
ATOM     27  H   UNL     1       0.113   8.572  17.091  0.00  0.00    +0.000 HD
BRANCH  22  28
ATOM     28  N   UNL     1       0.923  12.504  20.255  0.00  0.00    +0.000 N 
ATOM     29  C   UNL     1       2.044  13.425  19.950  0.00  0.00    +0.000 C 
ATOM     30  C   UNL     1       2.373  14.266  21.197  0.00  0.00    +0.000 C 
ATOM     31  O   UNL     1       1.224  14.979  21.686  0.00  0.00    +0.000 OA
ATOM     32  C   UNL     1       0.165  14.061  21.994  0.00  0.00    +0.000 C 
ATOM     33  C   UNL     1      -0.247  13.265  20.757  0.00  0.00    +0.000 C 
ENDBRANCH  22  28
ENDBRANCH  19  20
ENDBRANCH   2  19
TORSDOF 4
ENDMDL
MODEL 8
REMARK VINA RESULT:      -8.7      0.727      1.398
REMARK  Name = 
REMARK  4 active torsions:
REMARK  status: ('A' for Active; 'I' for Inactive)
REMARK    1  A    between atoms: C_2  and  C_3
REMARK    2  A    between atoms: C_3  and  C_4
REMARK    3  A    between atoms: C_6  and  N_7
REMARK    4  A    between atoms: C_25  and  C_26
REMARK                            x       y       z     vdW  Elec       q    Type
REMARK                         _______ _______ _______ _____ _____    ______ ____
ROOT
ATOM      1  O   UNL     1       2.067   7.654  20.620  0.00  0.00    +0.000 OA
ATOM      2  C   UNL     1       2.198   7.356  19.427  0.00  0.00    +0.000 C 
ATOM      3  N   UNL     1       2.276   6.066  18.949  0.00  0.00    +0.000 N 
ATOM      4  C   UNL     1       2.083   4.914  19.739  0.00  0.00    +0.000 A 
ATOM      5  C   UNL     1       1.798   4.833  21.094  0.00  0.00    +0.000 A 
ATOM      6  C   UNL     1       1.723   3.571  21.681  0.00  0.00    +0.000 A 
ATOM      7  C   UNL     1       1.917   2.412  20.916  0.00  0.00    +0.000 A 
ATOM      8  C   UNL     1       2.165   2.501  19.544  0.00  0.00    +0.000 A 
ATOM      9  C   UNL     1       2.242   3.760  18.970  0.00  0.00    +0.000 A 
ATOM     10  C   UNL     1       2.463   4.101  17.528  0.00  0.00    +0.000 C 
ATOM     11  C   UNL     1       2.740   5.626  17.603  0.00  0.00    +0.000 C 
ENDROOT
BRANCH  11  12
ATOM     12  C   UNL     1       4.226   5.936  17.416  0.00  0.00    +0.000 A 
ATOM     13  C   UNL     1       4.704   6.459  16.202  0.00  0.00    +0.000 A 
ATOM     14  C   UNL     1       6.068   6.720  16.037  0.00  0.00    +0.000 A 
ATOM     15  C   UNL     1       6.953   6.461  17.076  0.00  0.00    +0.000 A 
ATOM     16  F   UNL     1       8.261   6.696  16.907  0.00  0.00    +0.000 F 
ATOM     17  C   UNL     1       6.502   5.959  18.288  0.00  0.00    +0.000 A 
ATOM     18  C   UNL     1       5.144   5.703  18.458  0.00  0.00    +0.000 A 
ENDBRANCH  11  12
BRANCH   2  19
ATOM     19  C   UNL     1       2.158   8.478  18.424  0.00  0.00    +0.000 C 
BRANCH  19  20
ATOM     20  C   UNL     1       1.190   9.567  18.811  0.00  0.00    +0.000 A 
ATOM     21  N   UNL     1       0.071   9.655  18.164  0.00  0.00    +0.000 NA
ATOM     22  C   UNL     1      -0.836  10.606  18.556  0.00  0.00    +0.000 A 
ATOM     23  C   UNL     1      -0.569  11.475  19.547  0.00  0.00    +0.000 A 
ATOM     24  C   UNL     1       0.709  11.400  20.251  0.00  0.00    +0.000 A 
ATOM     25  O   UNL     1       0.983  12.161  21.171  0.00  0.00    +0.000 OA
ATOM     26  N   UNL     1       1.537  10.412  19.821  0.00  0.00    +0.000 N 
ATOM     27  H   UNL     1       2.427  10.314  20.306  0.00  0.00    +0.000 HD
BRANCH  22  28
ATOM     28  N   UNL     1      -2.091  10.667  17.940  0.00  0.00    +0.000 N 
ATOM     29  C   UNL     1      -3.125  11.596  18.456  0.00  0.00    +0.000 C 
ATOM     30  C   UNL     1      -4.505  11.181  17.915  0.00  0.00    +0.000 C 
ATOM     31  O   UNL     1      -4.525  11.117  16.479  0.00  0.00    +0.000 OA
ATOM     32  C   UNL     1      -3.532  10.193  16.010  0.00  0.00    +0.000 C 
ATOM     33  C   UNL     1      -2.134  10.619  16.459  0.00  0.00    +0.000 C 
ENDBRANCH  22  28
ENDBRANCH  19  20
ENDBRANCH   2  19
TORSDOF 4
ENDMDL
MODEL 9
REMARK VINA RESULT:      -8.6      1.344      1.838
REMARK  Name = 
REMARK  4 active torsions:
REMARK  status: ('A' for Active; 'I' for Inactive)
REMARK    1  A    between atoms: C_2  and  C_3
REMARK    2  A    between atoms: C_3  and  C_4
REMARK    3  A    between atoms: C_6  and  N_7
REMARK    4  A    between atoms: C_25  and  C_26
REMARK                            x       y       z     vdW  Elec       q    Type
REMARK                         _______ _______ _______ _____ _____    ______ ____
ROOT
ATOM      1  O   UNL     1       1.825   6.129  20.617  0.00  0.00    +0.000 OA
ATOM      2  C   UNL     1       2.318   6.336  19.502  0.00  0.00    +0.000 C 
ATOM      3  N   UNL     1       2.732   5.347  18.636  0.00  0.00    +0.000 N 
ATOM      4  C   UNL     1       2.526   3.969  18.848  0.00  0.00    +0.000 A 
ATOM      5  C   UNL     1       1.904   3.343  19.919  0.00  0.00    +0.000 A 
ATOM      6  C   UNL     1       1.882   1.950  19.951  0.00  0.00    +0.000 A 
ATOM      7  C   UNL     1       2.461   1.201  18.917  0.00  0.00    +0.000 A 
ATOM      8  C   UNL     1       3.050   1.838  17.822  0.00  0.00    +0.000 A 
ATOM      9  C   UNL     1       3.071   3.224  17.802  0.00  0.00    +0.000 A 
ATOM     10  C   UNL     1       3.612   4.120  16.730  0.00  0.00    +0.000 C 
ATOM     11  C   UNL     1       3.606   5.500  17.439  0.00  0.00    +0.000 C 
ENDROOT
BRANCH  11  12
ATOM     12  C   UNL     1       5.015   5.927  17.849  0.00  0.00    +0.000 A 
ATOM     13  C   UNL     1       5.678   6.967  17.176  0.00  0.00    +0.000 A 
ATOM     14  C   UNL     1       6.974   7.336  17.548  0.00  0.00    +0.000 A 
ATOM     15  C   UNL     1       7.610   6.668  18.588  0.00  0.00    +0.000 A 
ATOM     16  F   UNL     1       8.859   7.012  18.930  0.00  0.00    +0.000 F 
ATOM     17  C   UNL     1       6.971   5.648  19.277  0.00  0.00    +0.000 A 
ATOM     18  C   UNL     1       5.678   5.284  18.912  0.00  0.00    +0.000 A 
ENDBRANCH  11  12
BRANCH   2  19
ATOM     19  C   UNL     1       2.366   7.762  19.018  0.00  0.00    +0.000 C 
BRANCH  19  20
ATOM     20  C   UNL     1       1.552   8.693  19.881  0.00  0.00    +0.000 A 
ATOM     21  N   UNL     1       0.637   9.414  19.315  0.00  0.00    +0.000 NA
ATOM     22  C   UNL     1      -0.145  10.215  20.107  0.00  0.00    +0.000 A 
ATOM     23  C   UNL     1       0.054  10.312  21.433  0.00  0.00    +0.000 A 
ATOM     24  C   UNL     1       1.112   9.527  22.066  0.00  0.00    +0.000 A 
ATOM     25  O   UNL     1       1.314   9.573  23.273  0.00  0.00    +0.000 OA
ATOM     26  N   UNL     1       1.819   8.738  21.215  0.00  0.00    +0.000 N 
ATOM     27  H   UNL     1       2.549   8.158  21.625  0.00  0.00    +0.000 HD
BRANCH  22  28
ATOM     28  N   UNL     1      -1.203  10.935  19.541  0.00  0.00    +0.000 N 
ATOM     29  C   UNL     1      -1.992  10.345  18.433  0.00  0.00    +0.000 C 
ATOM     30  C   UNL     1      -2.781  11.456  17.715  0.00  0.00    +0.000 C 
ATOM     31  O   UNL     1      -3.616  12.197  18.620  0.00  0.00    +0.000 OA
ATOM     32  C   UNL     1      -2.823  12.775  19.667  0.00  0.00    +0.000 C 
ATOM     33  C   UNL     1      -2.088  11.693  20.458  0.00  0.00    +0.000 C 
ENDBRANCH  22  28
ENDBRANCH  19  20
ENDBRANCH   2  19
TORSDOF 4
ENDMDL
