MODEL 1
REMARK VINA RESULT:      -7.5      0.000      0.000
REMARK  Name = 
REMARK  6 active torsions:
REMARK  status: ('A' for Active; 'I' for Inactive)
REMARK    1  A    between atoms: C_1  and  C_2
REMARK    2  A    between atoms: C_5  and  O_6
REMARK    3  A    between atoms: O_6  and  P_7
REMARK    4  A    between atoms: P_7  and  C_10
REMARK    5  A    between atoms: C_10  and  O_12
REMARK    6  A    between atoms: O_12  and  C_13
REMARK                            x       y       z     vdW  Elec       q    Type
REMARK                         _______ _______ _______ _____ _____    ______ ____
ROOT
ATOM      1  P   UNL     1       6.777   6.510  17.072  0.00  0.00    +0.000 P 
ATOM      2  O   UNL     1       7.742   7.681  17.299  0.00  0.00    +0.000 OA
ATOM      3  O   UNL     1       5.549   6.938  16.287  0.00  0.00    +0.000 OA
ENDROOT
BRANCH   1   4
ATOM      4  C   UNL     1       6.343   5.616  18.657  0.00  0.00    +0.000 C 
ATOM      5  O   UNL     1       7.235   5.093  19.323  0.00  0.00    +0.000 OA
BRANCH   4   6
ATOM      6  O   UNL     1       4.985   5.604  18.995  0.00  0.00    +0.000 OA
BRANCH   6   7
ATOM      7  C   UNL     1       4.288   4.481  18.544  0.00  0.00    +0.000 A 
ATOM      8  C   UNL     1       4.513   3.244  19.144  0.00  0.00    +0.000 A 
ATOM      9  C   UNL     1       3.728   2.154  18.787  0.00  0.00    +0.000 A 
ATOM     10  C   UNL     1       2.706   2.298  17.836  0.00  0.00    +0.000 A 
ATOM     11  C   UNL     1       2.479   3.540  17.247  0.00  0.00    +0.000 A 
ATOM     12  C   UNL     1       3.261   4.635  17.604  0.00  0.00    +0.000 A 
ENDBRANCH   6   7
ENDBRANCH   4   6
ENDBRANCH   1   4
BRANCH   1  13
ATOM     13  O   UNL     1       7.566   5.448  16.117  0.00  0.00    +0.000 OA
BRANCH  13  18
ATOM     14  C   UNL     1       5.260   2.861  11.638  0.00  0.00    +0.000 C 
ATOM     15  C   UNL     1       5.866   3.573  12.808  0.00  0.00    +0.000 A 
ATOM     16  C   UNL     1       6.952   4.429  12.629  0.00  0.00    +0.000 A 
ATOM     17  C   UNL     1       7.536   5.073  13.724  0.00  0.00    +0.000 A 
ATOM     18  C   UNL     1       7.042   4.865  14.997  0.00  0.00    +0.000 A 
ATOM     19  C   UNL     1       5.939   4.029  15.189  0.00  0.00    +0.000 A 
ATOM     20  C   UNL     1       5.347   3.389  14.095  0.00  0.00    +0.000 A 
ENDBRANCH  13  18
ENDBRANCH   1  13
TORSDOF 5
ENDMDL
MODEL 2
REMARK VINA RESULT:      -7.5      1.197      1.509
REMARK  Name = 
REMARK  6 active torsions:
REMARK  status: ('A' for Active; 'I' for Inactive)
REMARK    1  A    between atoms: C_1  and  C_2
REMARK    2  A    between atoms: C_5  and  O_6
REMARK    3  A    between atoms: O_6  and  P_7
REMARK    4  A    between atoms: P_7  and  C_10
REMARK    5  A    between atoms: C_10  and  O_12
REMARK    6  A    between atoms: O_12  and  C_13
REMARK                            x       y       z     vdW  Elec       q    Type
REMARK                         _______ _______ _______ _____ _____    ______ ____
ROOT
ATOM      1  P   UNL     1       6.896   6.210  17.719  0.00  0.00    +0.000 P 
ATOM      2  O   UNL     1       8.055   6.899  18.453  0.00  0.00    +0.000 OA
ATOM      3  O   UNL     1       6.138   7.181  16.830  0.00  0.00    +0.000 OA
ENDROOT
BRANCH   1   4
ATOM      4  C   UNL     1       5.771   5.266  18.877  0.00  0.00    +0.000 C 
ATOM      5  O   UNL     1       6.076   4.125  19.224  0.00  0.00    +0.000 OA
BRANCH   4   6
ATOM      6  O   UNL     1       4.619   5.944  19.292  0.00  0.00    +0.000 OA
BRANCH   6   7
ATOM      7  C   UNL     1       3.432   5.230  19.108  0.00  0.00    +0.000 A 
ATOM      8  C   UNL     1       3.020   4.899  17.819  0.00  0.00    +0.000 A 
ATOM      9  C   UNL     1       1.912   4.080  17.641  0.00  0.00    +0.000 A 
ATOM     10  C   UNL     1       1.217   3.576  18.752  0.00  0.00    +0.000 A 
ATOM     11  C   UNL     1       1.642   3.901  20.039  0.00  0.00    +0.000 A 
ATOM     12  C   UNL     1       2.752   4.720  20.222  0.00  0.00    +0.000 A 
ENDBRANCH   6   7
ENDBRANCH   4   6
ENDBRANCH   1   4
BRANCH   1  13
ATOM     13  O   UNL     1       7.577   5.124  16.711  0.00  0.00    +0.000 OA
BRANCH  13  18
ATOM     14  C   UNL     1       5.207   3.264  11.916  0.00  0.00    +0.000 C 
ATOM     15  C   UNL     1       5.832   3.785  13.173  0.00  0.00    +0.000 A 
ATOM     16  C   UNL     1       6.973   4.586  13.115  0.00  0.00    +0.000 A 
ATOM     17  C   UNL     1       7.573   5.051  14.290  0.00  0.00    +0.000 A 
ATOM     18  C   UNL     1       7.041   4.719  15.521  0.00  0.00    +0.000 A 
ATOM     19  C   UNL     1       5.885   3.937  15.593  0.00  0.00    +0.000 A 
ATOM     20  C   UNL     1       5.277   3.477  14.420  0.00  0.00    +0.000 A 
ENDBRANCH  13  18
ENDBRANCH   1  13
TORSDOF 5
ENDMDL
MODEL 3
REMARK VINA RESULT:      -7.3      1.603      2.179
REMARK  Name = 
REMARK  6 active torsions:
REMARK  status: ('A' for Active; 'I' for Inactive)
REMARK    1  A    between atoms: C_1  and  C_2
REMARK    2  A    between atoms: C_5  and  O_6
REMARK    3  A    between atoms: O_6  and  P_7
REMARK    4  A    between atoms: P_7  and  C_10
REMARK    5  A    between atoms: C_10  and  O_12
REMARK    6  A    between atoms: O_12  and  C_13
REMARK                            x       y       z     vdW  Elec       q    Type
REMARK                         _______ _______ _______ _____ _____    ______ ____
ROOT
ATOM      1  P   UNL     1       7.193   5.302  18.051  0.00  0.00    +0.000 P 
ATOM      2  O   UNL     1       8.198   4.187  17.727  0.00  0.00    +0.000 OA
ATOM      3  O   UNL     1       7.849   6.448  18.801  0.00  0.00    +0.000 OA
ENDROOT
BRANCH   1   4
ATOM      4  C   UNL     1       5.660   4.662  18.910  0.00  0.00    +0.000 C 
ATOM      5  O   UNL     1       5.703   3.588  19.509  0.00  0.00    +0.000 OA
BRANCH   4   6
ATOM      6  O   UNL     1       4.527   5.478  18.816  0.00  0.00    +0.000 OA
BRANCH   6   7
ATOM      7  C   UNL     1       3.325   4.833  19.117  0.00  0.00    +0.000 A 
ATOM      8  C   UNL     1       2.730   5.030  20.362  0.00  0.00    +0.000 A 
ATOM      9  C   UNL     1       1.473   4.495  20.615  0.00  0.00    +0.000 A 
ATOM     10  C   UNL     1       0.798   3.770  19.621  0.00  0.00    +0.000 A 
ATOM     11  C   UNL     1       1.393   3.586  18.374  0.00  0.00    +0.000 A 
ATOM     12  C   UNL     1       2.652   4.122  18.116  0.00  0.00    +0.000 A 
ENDBRANCH   6   7
ENDBRANCH   4   6
ENDBRANCH   1   4
BRANCH   1  13
ATOM     13  O   UNL     1       6.723   5.921  16.617  0.00  0.00    +0.000 OA
BRANCH  13  18
ATOM     14  C   UNL     1       5.744   2.996  11.868  0.00  0.00    +0.000 C 
ATOM     15  C   UNL     1       5.999   3.743  13.140  0.00  0.00    +0.000 A 
ATOM     16  C   UNL     1       5.070   3.704  14.181  0.00  0.00    +0.000 A 
ATOM     17  C   UNL     1       5.295   4.423  15.359  0.00  0.00    +0.000 A 
ATOM     18  C   UNL     1       6.440   5.182  15.502  0.00  0.00    +0.000 A 
ATOM     19  C   UNL     1       7.390   5.212  14.478  0.00  0.00    +0.000 A 
ATOM     20  C   UNL     1       7.172   4.487  13.301  0.00  0.00    +0.000 A 
ENDBRANCH  13  18
ENDBRANCH   1  13
TORSDOF 5
ENDMDL
MODEL 4
REMARK VINA RESULT:      -7.3      1.201      1.910
REMARK  Name = 
REMARK  6 active torsions:
REMARK  status: ('A' for Active; 'I' for Inactive)
REMARK    1  A    between atoms: C_1  and  C_2
REMARK    2  A    between atoms: C_5  and  O_6
REMARK    3  A    between atoms: O_6  and  P_7
REMARK    4  A    between atoms: P_7  and  C_10
REMARK    5  A    between atoms: C_10  and  O_12
REMARK    6  A    between atoms: O_12  and  C_13
REMARK                            x       y       z     vdW  Elec       q    Type
REMARK                         _______ _______ _______ _____ _____    ______ ____
ROOT
ATOM      1  P   UNL     1       7.194   5.392  17.677  0.00  0.00    +0.000 P 
ATOM      2  O   UNL     1       8.130   4.216  17.366  0.00  0.00    +0.000 OA
ATOM      3  O   UNL     1       7.931   6.529  18.363  0.00  0.00    +0.000 OA
ENDROOT
BRANCH   1   4
ATOM      4  C   UNL     1       5.658   4.864  18.606  0.00  0.00    +0.000 C 
ATOM      5  O   UNL     1       5.203   5.590  19.489  0.00  0.00    +0.000 OA
BRANCH   4   6
ATOM      6  O   UNL     1       5.106   3.638  18.218  0.00  0.00    +0.000 OA
BRANCH   6   7
ATOM      7  C   UNL     1       3.749   3.496  18.516  0.00  0.00    +0.000 A 
ATOM      8  C   UNL     1       2.799   4.132  17.720  0.00  0.00    +0.000 A 
ATOM      9  C   UNL     1       1.448   3.887  17.935  0.00  0.00    +0.000 A 
ATOM     10  C   UNL     1       1.040   2.996  18.939  0.00  0.00    +0.000 A 
ATOM     11  C   UNL     1       1.996   2.355  19.725  0.00  0.00    +0.000 A 
ATOM     12  C   UNL     1       3.350   2.595  19.512  0.00  0.00    +0.000 A 
ENDBRANCH   6   7
ENDBRANCH   4   6
ENDBRANCH   1   4
BRANCH   1  13
ATOM     13  O   UNL     1       6.710   5.982  16.235  0.00  0.00    +0.000 OA
BRANCH  13  18
ATOM     14  C   UNL     1       5.770   2.752  11.679  0.00  0.00    +0.000 C 
ATOM     15  C   UNL     1       6.023   3.631  12.865  0.00  0.00    +0.000 A 
ATOM     16  C   UNL     1       7.205   4.367  12.959  0.00  0.00    +0.000 A 
ATOM     17  C   UNL     1       7.454   5.167  14.079  0.00  0.00    +0.000 A 
ATOM     18  C   UNL     1       6.532   5.233  15.105  0.00  0.00    +0.000 A 
ATOM     19  C   UNL     1       5.334   4.520  15.013  0.00  0.00    +0.000 A 
ATOM     20  C   UNL     1       5.077   3.726  13.891  0.00  0.00    +0.000 A 
ENDBRANCH  13  18
ENDBRANCH   1  13
TORSDOF 5
ENDMDL
MODEL 5
REMARK VINA RESULT:      -7.3      1.282      1.855
REMARK  Name = 
REMARK  6 active torsions:
REMARK  status: ('A' for Active; 'I' for Inactive)
REMARK    1  A    between atoms: C_1  and  C_2
REMARK    2  A    between atoms: C_5  and  O_6
REMARK    3  A    between atoms: O_6  and  P_7
REMARK    4  A    between atoms: P_7  and  C_10
REMARK    5  A    between atoms: C_10  and  O_12
REMARK    6  A    between atoms: O_12  and  C_13
REMARK                            x       y       z     vdW  Elec       q    Type
REMARK                         _______ _______ _______ _____ _____    ______ ____
ROOT
ATOM      1  P   UNL     1       6.928   6.281  17.702  0.00  0.00    +0.000 P 
ATOM      2  O   UNL     1       8.076   6.821  18.566  0.00  0.00    +0.000 OA
ATOM      3  O   UNL     1       6.370   7.349  16.779  0.00  0.00    +0.000 OA
ENDROOT
BRANCH   1   4
ATOM      4  C   UNL     1       5.602   5.436  18.714  0.00  0.00    +0.000 C 
ATOM      5  O   UNL     1       5.851   4.370  19.275  0.00  0.00    +0.000 OA
BRANCH   4   6
ATOM      6  O   UNL     1       4.369   6.097  18.772  0.00  0.00    +0.000 OA
BRANCH   6   7
ATOM      7  C   UNL     1       3.263   5.249  18.860  0.00  0.00    +0.000 A 
ATOM      8  C   UNL     1       2.882   4.495  17.752  0.00  0.00    +0.000 A 
ATOM      9  C   UNL     1       1.866   3.556  17.875  0.00  0.00    +0.000 A 
ATOM     10  C   UNL     1       1.232   3.357  19.111  0.00  0.00    +0.000 A 
ATOM     11  C   UNL     1       1.624   4.106  20.219  0.00  0.00    +0.000 A 
ATOM     12  C   UNL     1       2.644   5.046  20.100  0.00  0.00    +0.000 A 
ENDBRANCH   6   7
ENDBRANCH   4   6
ENDBRANCH   1   4
BRANCH   1  13
ATOM     13  O   UNL     1       7.587   5.152  16.726  0.00  0.00    +0.000 OA
BRANCH  13  18
ATOM     14  C   UNL     1       5.285   3.294  11.897  0.00  0.00    +0.000 C 
ATOM     15  C   UNL     1       5.897   3.755  13.184  0.00  0.00    +0.000 A 
ATOM     16  C   UNL     1       5.363   3.348  14.406  0.00  0.00    +0.000 A 
ATOM     17  C   UNL     1       5.917   3.799  15.608  0.00  0.00    +0.000 A 
ATOM     18  C   UNL     1       7.000   4.658  15.595  0.00  0.00    +0.000 A 
ATOM     19  C   UNL     1       7.560   5.055  14.378  0.00  0.00    +0.000 A 
ATOM     20  C   UNL     1       7.013   4.599  13.174  0.00  0.00    +0.000 A 
ENDBRANCH  13  18
ENDBRANCH   1  13
TORSDOF 5
ENDMDL
MODEL 6
REMARK VINA RESULT:      -7.3      0.955      1.074
REMARK  Name = 
REMARK  6 active torsions:
REMARK  status: ('A' for Active; 'I' for Inactive)
REMARK    1  A    between atoms: C_1  and  C_2
REMARK    2  A    between atoms: C_5  and  O_6
REMARK    3  A    between atoms: O_6  and  P_7
REMARK    4  A    between atoms: P_7  and  C_10
REMARK    5  A    between atoms: C_10  and  O_12
REMARK    6  A    between atoms: O_12  and  C_13
REMARK                            x       y       z     vdW  Elec       q    Type
REMARK                         _______ _______ _______ _____ _____    ______ ____
ROOT
ATOM      1  P   UNL     1       6.582   6.474  16.823  0.00  0.00    +0.000 P 
ATOM      2  O   UNL     1       7.470   7.648  17.257  0.00  0.00    +0.000 OA
ATOM      3  O   UNL     1       5.386   6.944  16.013  0.00  0.00    +0.000 OA
ENDROOT
BRANCH   1   4
ATOM      4  C   UNL     1       6.095   5.372  18.254  0.00  0.00    +0.000 C 
ATOM      5  O   UNL     1       6.720   4.332  18.460  0.00  0.00    +0.000 OA
BRANCH   4   6
ATOM      6  O   UNL     1       5.018   5.821  19.026  0.00  0.00    +0.000 OA
BRANCH   6   7
ATOM      7  C   UNL     1       3.865   5.038  18.919  0.00  0.00    +0.000 A 
ATOM      8  C   UNL     1       3.016   4.910  20.016  0.00  0.00    +0.000 A 
ATOM      9  C   UNL     1       1.806   4.241  19.873  0.00  0.00    +0.000 A 
ATOM     10  C   UNL     1       1.434   3.708  18.630  0.00  0.00    +0.000 A 
ATOM     11  C   UNL     1       2.283   3.849  17.534  0.00  0.00    +0.000 A 
ATOM     12  C   UNL     1       3.495   4.520  17.672  0.00  0.00    +0.000 A 
ENDBRANCH   6   7
ENDBRANCH   4   6
ENDBRANCH   1   4
BRANCH   1  13
ATOM     13  O   UNL     1       7.483   5.574  15.803  0.00  0.00    +0.000 OA
BRANCH  13  18
ATOM     14  C   UNL     1       5.328   2.688  11.433  0.00  0.00    +0.000 C 
ATOM     15  C   UNL     1       5.896   3.477  12.572  0.00  0.00    +0.000 A 
ATOM     16  C   UNL     1       7.029   4.270  12.386  0.00  0.00    +0.000 A 
ATOM     17  C   UNL     1       7.576   4.987  13.455  0.00  0.00    +0.000 A 
ATOM     18  C   UNL     1       6.999   4.914  14.708  0.00  0.00    +0.000 A 
ATOM     19  C   UNL     1       5.850   4.143  14.903  0.00  0.00    +0.000 A 
ATOM     20  C   UNL     1       5.296   3.431  13.835  0.00  0.00    +0.000 A 
ENDBRANCH  13  18
ENDBRANCH   1  13
TORSDOF 5
ENDMDL
MODEL 7
REMARK VINA RESULT:      -7.3      1.297      5.353
REMARK  Name = 
REMARK  6 active torsions:
REMARK  status: ('A' for Active; 'I' for Inactive)
REMARK    1  A    between atoms: C_1  and  C_2
REMARK    2  A    between atoms: C_5  and  O_6
REMARK    3  A    between atoms: O_6  and  P_7
REMARK    4  A    between atoms: P_7  and  C_10
REMARK    5  A    between atoms: C_10  and  O_12
REMARK    6  A    between atoms: O_12  and  C_13
REMARK                            x       y       z     vdW  Elec       q    Type
REMARK                         _______ _______ _______ _____ _____    ______ ____
ROOT
ATOM      1  P   UNL     1       6.885   5.995  18.100  0.00  0.00    +0.000 P 
ATOM      2  O   UNL     1       7.675   7.288  18.342  0.00  0.00    +0.000 OA
ATOM      3  O   UNL     1       6.960   5.059  19.294  0.00  0.00    +0.000 OA
ENDROOT
BRANCH   1   4
ATOM      4  C   UNL     1       7.353   5.154  16.496  0.00  0.00    +0.000 C 
ATOM      5  O   UNL     1       7.998   4.107  16.524  0.00  0.00    +0.000 OA
BRANCH   4   6
ATOM      6  O   UNL     1       6.919   5.792  15.328  0.00  0.00    +0.000 OA
BRANCH   6   7
ATOM      7  C   UNL     1       6.726   4.936  14.241  0.00  0.00    +0.000 A 
ATOM      8  C   UNL     1       5.587   4.136  14.188  0.00  0.00    +0.000 A 
ATOM      9  C   UNL     1       5.329   3.383  13.049  0.00  0.00    +0.000 A 
ATOM     10  C   UNL     1       6.202   3.434  11.952  0.00  0.00    +0.000 A 
ATOM     11  C   UNL     1       7.334   4.245  12.007  0.00  0.00    +0.000 A 
ATOM     12  C   UNL     1       7.596   5.003  13.145  0.00  0.00    +0.000 A 
ENDBRANCH   6   7
ENDBRANCH   4   6
ENDBRANCH   1   4
BRANCH   1  13
ATOM     13  O   UNL     1       5.319   6.435  17.978  0.00  0.00    +0.000 OA
BRANCH  13  18
ATOM     14  C   UNL     1       0.906   3.018  18.942  0.00  0.00    +0.000 C 
ATOM     15  C   UNL     1       2.085   3.912  18.714  0.00  0.00    +0.000 A 
ATOM     16  C   UNL     1       2.445   4.863  19.669  0.00  0.00    +0.000 A 
ATOM     17  C   UNL     1       3.530   5.717  19.446  0.00  0.00    +0.000 A 
ATOM     18  C   UNL     1       4.255   5.628  18.274  0.00  0.00    +0.000 A 
ATOM     19  C   UNL     1       3.920   4.664  17.318  0.00  0.00    +0.000 A 
ATOM     20  C   UNL     1       2.841   3.803  17.542  0.00  0.00    +0.000 A 
ENDBRANCH  13  18
ENDBRANCH   1  13
TORSDOF 5
ENDMDL
MODEL 8
REMARK VINA RESULT:      -7.2      0.943      1.964
REMARK  Name = 
REMARK  6 active torsions:
REMARK  status: ('A' for Active; 'I' for Inactive)
REMARK    1  A    between atoms: C_1  and  C_2
REMARK    2  A    between atoms: C_5  and  O_6
REMARK    3  A    between atoms: O_6  and  P_7
REMARK    4  A    between atoms: P_7  and  C_10
REMARK    5  A    between atoms: C_10  and  O_12
REMARK    6  A    between atoms: O_12  and  C_13
REMARK                            x       y       z     vdW  Elec       q    Type
REMARK                         _______ _______ _______ _____ _____    ______ ____
ROOT
ATOM      1  P   UNL     1       6.991   5.850  18.545  0.00  0.00    +0.000 P 
ATOM      2  O   UNL     1       7.245   5.386  19.986  0.00  0.00    +0.000 OA
ATOM      3  O   UNL     1       7.917   6.988  18.151  0.00  0.00    +0.000 OA
ENDROOT
BRANCH   1   4
ATOM      4  C   UNL     1       5.191   6.241  18.221  0.00  0.00    +0.000 C 
ATOM      5  O   UNL     1       4.881   6.898  17.228  0.00  0.00    +0.000 OA
BRANCH   4   6
ATOM      6  O   UNL     1       4.283   5.738  19.160  0.00  0.00    +0.000 OA
BRANCH   6   7
ATOM      7  C   UNL     1       3.718   4.507  18.814  0.00  0.00    +0.000 A 
ATOM      8  C   UNL     1       2.760   4.448  17.804  0.00  0.00    +0.000 A 
ATOM      9  C   UNL     1       2.295   3.213  17.370  0.00  0.00    +0.000 A 
ATOM     10  C   UNL     1       2.792   2.030  17.936  0.00  0.00    +0.000 A 
ATOM     11  C   UNL     1       3.758   2.095  18.938  0.00  0.00    +0.000 A 
ATOM     12  C   UNL     1       4.230   3.330  19.374  0.00  0.00    +0.000 A 
ENDBRANCH   6   7
ENDBRANCH   4   6
ENDBRANCH   1   4
BRANCH   1  13
ATOM     13  O   UNL     1       7.396   4.595  17.585  0.00  0.00    +0.000 OA
BRANCH  13  18
ATOM     14  C   UNL     1       5.477   3.674  12.337  0.00  0.00    +0.000 C 
ATOM     15  C   UNL     1       5.980   3.949  13.720  0.00  0.00    +0.000 A 
ATOM     16  C   UNL     1       7.045   4.827  13.923  0.00  0.00    +0.000 A 
ATOM     17  C   UNL     1       7.534   5.063  15.212  0.00  0.00    +0.000 A 
ATOM     18  C   UNL     1       6.966   4.425  16.298  0.00  0.00    +0.000 A 
ATOM     19  C   UNL     1       5.884   3.561  16.112  0.00  0.00    +0.000 A 
ATOM     20  C   UNL     1       5.387   3.329  14.826  0.00  0.00    +0.000 A 
ENDBRANCH  13  18
ENDBRANCH   1  13
TORSDOF 5
ENDMDL
MODEL 9
REMARK VINA RESULT:      -7.2      1.556      5.895
REMARK  Name = 
REMARK  6 active torsions:
REMARK  status: ('A' for Active; 'I' for Inactive)
REMARK    1  A    between atoms: C_1  and  C_2
REMARK    2  A    between atoms: C_5  and  O_6
REMARK    3  A    between atoms: O_6  and  P_7
REMARK    4  A    between atoms: P_7  and  C_10
REMARK    5  A    between atoms: C_10  and  O_12
REMARK    6  A    between atoms: O_12  and  C_13
REMARK                            x       y       z     vdW  Elec       q    Type
REMARK                         _______ _______ _______ _____ _____    ______ ____
ROOT
ATOM      1  P   UNL     1       5.467   5.752  17.147  0.00  0.00    +0.000 P 
ATOM      2  O   UNL     1       4.804   6.836  16.286  0.00  0.00    +0.000 OA
ATOM      3  O   UNL     1       5.588   6.183  18.598  0.00  0.00    +0.000 OA
ENDROOT
BRANCH   1   4
ATOM      4  C   UNL     1       7.090   5.158  16.434  0.00  0.00    +0.000 C 
ATOM      5  O   UNL     1       7.767   4.342  17.059  0.00  0.00    +0.000 OA
BRANCH   4   6
ATOM      6  O   UNL     1       7.439   5.696  15.190  0.00  0.00    +0.000 OA
BRANCH   6   7
ATOM      7  C   UNL     1       7.099   4.893  14.098  0.00  0.00    +0.000 A 
ATOM      8  C   UNL     1       5.981   4.065  14.174  0.00  0.00    +0.000 A 
ATOM      9  C   UNL     1       5.567   3.366  13.047  0.00  0.00    +0.000 A 
ATOM     10  C   UNL     1       6.260   3.500  11.835  0.00  0.00    +0.000 A 
ATOM     11  C   UNL     1       7.371   4.338  11.762  0.00  0.00    +0.000 A 
ATOM     12  C   UNL     1       7.789   5.043  12.888  0.00  0.00    +0.000 A 
ENDBRANCH   6   7
ENDBRANCH   4   6
ENDBRANCH   1   4
BRANCH   1  13
ATOM     13  O   UNL     1       4.443   4.482  17.146  0.00  0.00    +0.000 OA
BRANCH  13  18
ATOM     14  C   UNL     1       1.420   2.675  21.581  0.00  0.00    +0.000 C 
ATOM     15  C   UNL     1       2.216   3.182  20.418  0.00  0.00    +0.000 A 
ATOM     16  C   UNL     1       1.688   4.158  19.573  0.00  0.00    +0.000 A 
ATOM     17  C   UNL     1       2.419   4.614  18.471  0.00  0.00    +0.000 A 
ATOM     18  C   UNL     1       3.674   4.097  18.208  0.00  0.00    +0.000 A 
ATOM     19  C   UNL     1       4.224   3.136  19.060  0.00  0.00    +0.000 A 
ATOM     20  C   UNL     1       3.499   2.684  20.167  0.00  0.00    +0.000 A 
ENDBRANCH  13  18
ENDBRANCH   1  13
TORSDOF 5
ENDMDL
