MODEL 1
REMARK VINA RESULT:      -7.3      0.000      0.000
REMARK  Name = 
REMARK  7 active torsions:
REMARK  status: ('A' for Active; 'I' for Inactive)
REMARK    1  A    between atoms: C_1  and  C_2
REMARK    2  A    between atoms: C_2  and  O_3
REMARK    3  A    between atoms: O_3  and  C_4
REMARK    4  A    between atoms: C_4  and  C_6
REMARK    5  A    between atoms: C_6  and  C_7
REMARK    6  A    between atoms: N_9  and  C_10
REMARK    7  A    between atoms: C_15  and  C_16
REMARK                            x       y       z     vdW  Elec       q    Type
REMARK                         _______ _______ _______ _____ _____    ______ ____
ROOT
ATOM      1  C   UNL     1       4.086   4.655  19.079  0.00  0.00    +0.000 A 
ATOM      2  C   UNL     1       3.427   5.882  19.235  0.00  0.00    +0.000 A 
ATOM      3  C   UNL     1       2.261   5.970  19.997  0.00  0.00    +0.000 A 
ATOM      4  C   UNL     1       1.744   4.836  20.616  0.00  0.00    +0.000 A 
ATOM      5  C   UNL     1       2.395   3.608  20.474  0.00  0.00    +0.000 A 
ATOM      6  C   UNL     1       3.569   3.509  19.712  0.00  0.00    +0.000 A 
ENDROOT
BRANCH   6   7
ATOM      7  C   UNL     1       4.236   2.183  19.676  0.00  0.00    +0.000 C 
ATOM      8  N   UNL     1       3.947   1.348  18.627  0.00  0.00    +0.000 N 
ATOM      9  O   UNL     1       5.047   1.845  20.529  0.00  0.00    +0.000 OA
ATOM     10  H   UNL     1       3.588   1.703  17.745  0.00  0.00    +0.000 HD
ATOM     11  H   UNL     1       4.545   0.531  18.539  0.00  0.00    +0.000 HD
ENDBRANCH   6   7
BRANCH   1  14
ATOM     12  C   UNL     1       6.498   4.869  18.689  0.00  0.00    +0.000 C 
ATOM     13  O   UNL     1       6.776   5.249  19.823  0.00  0.00    +0.000 OA
ATOM     14  N   UNL     1       5.221   4.566  18.240  0.00  0.00    +0.000 N 
ATOM     15  H   UNL     1       5.159   3.872  17.499  0.00  0.00    +0.000 HD
BRANCH  12  16
ATOM     16  C   UNL     1       7.563   4.636  17.659  0.00  0.00    +0.000 C 
BRANCH  16  17
ATOM     17  C   UNL     1       7.131   5.035  16.280  0.00  0.00    +0.000 C 
ATOM     18  O   UNL     1       7.387   6.102  15.741  0.00  0.00    +0.000 OA
BRANCH  17  19
ATOM     19  O   UNL     1       6.398   4.023  15.736  0.00  0.00    +0.000 OA
BRANCH  19  21
ATOM     20  C   UNL     1       6.202   3.761  13.376  0.00  0.00    +0.000 C 
ATOM     21  C   UNL     1       5.579   4.380  14.614  0.00  0.00    +0.000 C 
ENDBRANCH  19  21
ENDBRANCH  17  19
ENDBRANCH  16  17
ENDBRANCH  12  16
ENDBRANCH   1  14
TORSDOF 6
ENDMDL
MODEL 2
REMARK VINA RESULT:      -7.1      2.102      2.948
REMARK  Name = 
REMARK  7 active torsions:
REMARK  status: ('A' for Active; 'I' for Inactive)
REMARK    1  A    between atoms: C_1  and  C_2
REMARK    2  A    between atoms: C_2  and  O_3
REMARK    3  A    between atoms: O_3  and  C_4
REMARK    4  A    between atoms: C_4  and  C_6
REMARK    5  A    between atoms: C_6  and  C_7
REMARK    6  A    between atoms: N_9  and  C_10
REMARK    7  A    between atoms: C_15  and  C_16
REMARK                            x       y       z     vdW  Elec       q    Type
REMARK                         _______ _______ _______ _____ _____    ______ ____
ROOT
ATOM      1  C   UNL     1       3.184   4.319  18.202  0.00  0.00    +0.000 A 
ATOM      2  C   UNL     1       3.031   3.028  17.678  0.00  0.00    +0.000 A 
ATOM      3  C   UNL     1       1.974   2.215  18.092  0.00  0.00    +0.000 A 
ATOM      4  C   UNL     1       1.056   2.685  19.026  0.00  0.00    +0.000 A 
ATOM      5  C   UNL     1       1.193   3.973  19.550  0.00  0.00    +0.000 A 
ATOM      6  C   UNL     1       2.251   4.799  19.140  0.00  0.00    +0.000 A 
ENDROOT
BRANCH   6   7
ATOM      7  C   UNL     1       2.279   6.176  19.691  0.00  0.00    +0.000 C 
ATOM      8  N   UNL     1       1.940   6.349  21.008  0.00  0.00    +0.000 N 
ATOM      9  O   UNL     1       2.626   7.136  19.013  0.00  0.00    +0.000 OA
ATOM     10  H   UNL     1       2.001   5.587  21.678  0.00  0.00    +0.000 HD
ATOM     11  H   UNL     1       2.136   7.267  21.396  0.00  0.00    +0.000 HD
ENDBRANCH   6   7
BRANCH   1  14
ATOM     12  C   UNL     1       5.518   5.013  18.497  0.00  0.00    +0.000 C 
ATOM     13  O   UNL     1       5.747   4.283  19.457  0.00  0.00    +0.000 OA
ATOM     14  N   UNL     1       4.304   5.101  17.833  0.00  0.00    +0.000 N 
ATOM     15  H   UNL     1       4.347   5.358  16.849  0.00  0.00    +0.000 HD
BRANCH  12  16
ATOM     16  C   UNL     1       6.589   5.873  17.896  0.00  0.00    +0.000 C 
BRANCH  16  17
ATOM     17  C   UNL     1       7.420   5.142  16.886  0.00  0.00    +0.000 C 
ATOM     18  O   UNL     1       8.145   4.186  17.125  0.00  0.00    +0.000 OA
BRANCH  17  19
ATOM     19  O   UNL     1       7.248   5.724  15.665  0.00  0.00    +0.000 OA
BRANCH  19  21
ATOM     20  C   UNL     1       5.596   4.407  14.566  0.00  0.00    +0.000 C 
ATOM     21  C   UNL     1       7.055   4.824  14.567  0.00  0.00    +0.000 C 
ENDBRANCH  19  21
ENDBRANCH  17  19
ENDBRANCH  16  17
ENDBRANCH  12  16
ENDBRANCH   1  14
TORSDOF 6
ENDMDL
MODEL 3
REMARK VINA RESULT:      -7.0      1.289      1.594
REMARK  Name = 
REMARK  7 active torsions:
REMARK  status: ('A' for Active; 'I' for Inactive)
REMARK    1  A    between atoms: C_1  and  C_2
REMARK    2  A    between atoms: C_2  and  O_3
REMARK    3  A    between atoms: O_3  and  C_4
REMARK    4  A    between atoms: C_4  and  C_6
REMARK    5  A    between atoms: C_6  and  C_7
REMARK    6  A    between atoms: N_9  and  C_10
REMARK    7  A    between atoms: C_15  and  C_16
REMARK                            x       y       z     vdW  Elec       q    Type
REMARK                         _______ _______ _______ _____ _____    ______ ____
ROOT
ATOM      1  C   UNL     1       3.476   4.614  19.791  0.00  0.00    +0.000 A 
ATOM      2  C   UNL     1       2.450   5.513  20.114  0.00  0.00    +0.000 A 
ATOM      3  C   UNL     1       1.172   5.048  20.426  0.00  0.00    +0.000 A 
ATOM      4  C   UNL     1       0.906   3.682  20.426  0.00  0.00    +0.000 A 
ATOM      5  C   UNL     1       1.921   2.776  20.113  0.00  0.00    +0.000 A 
ATOM      6  C   UNL     1       3.210   3.232  19.800  0.00  0.00    +0.000 A 
ENDROOT
BRANCH   6   7
ATOM      7  C   UNL     1       4.246   2.198  19.552  0.00  0.00    +0.000 C 
ATOM      8  N   UNL     1       4.134   1.435  18.419  0.00  0.00    +0.000 N 
ATOM      9  O   UNL     1       5.197   2.042  20.309  0.00  0.00    +0.000 OA
ATOM     10  H   UNL     1       3.604   1.753  17.612  0.00  0.00    +0.000 HD
ATOM     11  H   UNL     1       4.944   0.864  18.192  0.00  0.00    +0.000 HD
ENDBRANCH   6   7
BRANCH   1  14
ATOM     12  C   UNL     1       4.985   5.599  18.129  0.00  0.00    +0.000 C 
ATOM     13  O   UNL     1       4.158   5.656  17.224  0.00  0.00    +0.000 OA
ATOM     14  N   UNL     1       4.744   5.103  19.400  0.00  0.00    +0.000 N 
ATOM     15  H   UNL     1       5.306   5.498  20.151  0.00  0.00    +0.000 HD
BRANCH  12  16
ATOM     16  C   UNL     1       6.376   6.134  17.951  0.00  0.00    +0.000 C 
BRANCH  16  17
ATOM     17  C   UNL     1       7.205   5.293  17.028  0.00  0.00    +0.000 C 
ATOM     18  O   UNL     1       7.877   4.328  17.362  0.00  0.00    +0.000 OA
BRANCH  17  19
ATOM     19  O   UNL     1       7.100   5.789  15.763  0.00  0.00    +0.000 OA
BRANCH  19  21
ATOM     20  C   UNL     1       5.714   4.305  14.518  0.00  0.00    +0.000 C 
ATOM     21  C   UNL     1       7.130   4.819  14.708  0.00  0.00    +0.000 C 
ENDBRANCH  19  21
ENDBRANCH  17  19
ENDBRANCH  16  17
ENDBRANCH  12  16
ENDBRANCH   1  14
TORSDOF 6
ENDMDL
MODEL 4
REMARK VINA RESULT:      -7.0      1.254      1.304
REMARK  Name = 
REMARK  7 active torsions:
REMARK  status: ('A' for Active; 'I' for Inactive)
REMARK    1  A    between atoms: C_1  and  C_2
REMARK    2  A    between atoms: C_2  and  O_3
REMARK    3  A    between atoms: O_3  and  C_4
REMARK    4  A    between atoms: C_4  and  C_6
REMARK    5  A    between atoms: C_6  and  C_7
REMARK    6  A    between atoms: N_9  and  C_10
REMARK    7  A    between atoms: C_15  and  C_16
REMARK                            x       y       z     vdW  Elec       q    Type
REMARK                         _______ _______ _______ _____ _____    ______ ____
ROOT
ATOM      1  C   UNL     1       3.459   4.569  18.979  0.00  0.00    +0.000 A 
ATOM      2  C   UNL     1       2.778   5.679  19.498  0.00  0.00    +0.000 A 
ATOM      3  C   UNL     1       1.855   5.524  20.534  0.00  0.00    +0.000 A 
ATOM      4  C   UNL     1       1.608   4.263  21.066  0.00  0.00    +0.000 A 
ATOM      5  C   UNL     1       2.285   3.150  20.562  0.00  0.00    +0.000 A 
ATOM      6  C   UNL     1       3.216   3.294  19.522  0.00  0.00    +0.000 A 
ENDROOT
BRANCH   6   7
ATOM      7  C   UNL     1       3.944   2.072  19.099  0.00  0.00    +0.000 C 
ATOM      8  N   UNL     1       5.040   1.692  19.830  0.00  0.00    +0.000 N 
ATOM      9  O   UNL     1       3.570   1.394  18.149  0.00  0.00    +0.000 OA
ATOM     10  H   UNL     1       5.168   1.989  20.793  0.00  0.00    +0.000 HD
ATOM     11  H   UNL     1       5.407   0.766  19.623  0.00  0.00    +0.000 HD
ENDBRANCH   6   7
BRANCH   1  14
ATOM     12  C   UNL     1       5.710   4.760  18.024  0.00  0.00    +0.000 C 
ATOM     13  O   UNL     1       6.309   4.666  19.091  0.00  0.00    +0.000 OA
ATOM     14  N   UNL     1       4.332   4.731  17.877  0.00  0.00    +0.000 N 
ATOM     15  H   UNL     1       3.981   4.373  16.991  0.00  0.00    +0.000 HD
BRANCH  12  16
ATOM     16  C   UNL     1       6.446   4.864  16.721  0.00  0.00    +0.000 C 
BRANCH  16  17
ATOM     17  C   UNL     1       5.647   5.557  15.659  0.00  0.00    +0.000 C 
ATOM     18  O   UNL     1       5.373   6.748  15.644  0.00  0.00    +0.000 OA
BRANCH  17  19
ATOM     19  O   UNL     1       5.264   4.641  14.724  0.00  0.00    +0.000 OA
BRANCH  19  21
ATOM     20  C   UNL     1       6.118   3.621  12.748  0.00  0.00    +0.000 C 
ATOM     21  C   UNL     1       6.297   3.768  14.249  0.00  0.00    +0.000 C 
ENDBRANCH  19  21
ENDBRANCH  17  19
ENDBRANCH  16  17
ENDBRANCH  12  16
ENDBRANCH   1  14
TORSDOF 6
ENDMDL
MODEL 5
REMARK VINA RESULT:      -7.0      1.425      2.321
REMARK  Name = 
REMARK  7 active torsions:
REMARK  status: ('A' for Active; 'I' for Inactive)
REMARK    1  A    between atoms: C_1  and  C_2
REMARK    2  A    between atoms: C_2  and  O_3
REMARK    3  A    between atoms: O_3  and  C_4
REMARK    4  A    between atoms: C_4  and  C_6
REMARK    5  A    between atoms: C_6  and  C_7
REMARK    6  A    between atoms: N_9  and  C_10
REMARK    7  A    between atoms: C_15  and  C_16
REMARK                            x       y       z     vdW  Elec       q    Type
REMARK                         _______ _______ _______ _____ _____    ______ ____
ROOT
ATOM      1  C   UNL     1       3.879   4.606  19.216  0.00  0.00    +0.000 A 
ATOM      2  C   UNL     1       3.134   5.768  19.460  0.00  0.00    +0.000 A 
ATOM      3  C   UNL     1       1.987   5.721  20.254  0.00  0.00    +0.000 A 
ATOM      4  C   UNL     1       1.577   4.517  20.818  0.00  0.00    +0.000 A 
ATOM      5  C   UNL     1       2.314   3.354  20.588  0.00  0.00    +0.000 A 
ATOM      6  C   UNL     1       3.470   3.390  19.792  0.00  0.00    +0.000 A 
ENDROOT
BRANCH   6   7
ATOM      7  C   UNL     1       4.234   2.124  19.661  0.00  0.00    +0.000 C 
ATOM      8  N   UNL     1       3.974   1.326  18.576  0.00  0.00    +0.000 N 
ATOM      9  O   UNL     1       5.098   1.804  20.469  0.00  0.00    +0.000 OA
ATOM     10  H   UNL     1       3.559   1.700  17.727  0.00  0.00    +0.000 HD
ATOM     11  H   UNL     1       4.629   0.564  18.424  0.00  0.00    +0.000 HD
ENDBRANCH   6   7
BRANCH   1  14
ATOM     12  C   UNL     1       6.279   4.896  18.804  0.00  0.00    +0.000 C 
ATOM     13  O   UNL     1       6.585   5.103  19.974  0.00  0.00    +0.000 OA
ATOM     14  N   UNL     1       4.994   4.654  18.346  0.00  0.00    +0.000 N 
ATOM     15  H   UNL     1       4.915   4.079  17.510  0.00  0.00    +0.000 HD
BRANCH  12  16
ATOM     16  C   UNL     1       7.319   4.829  17.724  0.00  0.00    +0.000 C 
BRANCH  16  17
ATOM     17  C   UNL     1       7.212   5.961  16.747  0.00  0.00    +0.000 C 
ATOM     18  O   UNL     1       7.345   5.864  15.536  0.00  0.00    +0.000 OA
BRANCH  17  19
ATOM     19  O   UNL     1       6.958   7.113  17.430  0.00  0.00    +0.000 OA
BRANCH  19  21
ATOM     20  C   UNL     1       8.065   9.188  17.810  0.00  0.00    +0.000 C 
ATOM     21  C   UNL     1       8.081   7.698  18.103  0.00  0.00    +0.000 C 
ENDBRANCH  19  21
ENDBRANCH  17  19
ENDBRANCH  16  17
ENDBRANCH  12  16
ENDBRANCH   1  14
TORSDOF 6
ENDMDL
MODEL 6
REMARK VINA RESULT:      -7.0      1.392      2.386
REMARK  Name = 
REMARK  7 active torsions:
REMARK  status: ('A' for Active; 'I' for Inactive)
REMARK    1  A    between atoms: C_1  and  C_2
REMARK    2  A    between atoms: C_2  and  O_3
REMARK    3  A    between atoms: O_3  and  C_4
REMARK    4  A    between atoms: C_4  and  C_6
REMARK    5  A    between atoms: C_6  and  C_7
REMARK    6  A    between atoms: N_9  and  C_10
REMARK    7  A    between atoms: C_15  and  C_16
REMARK                            x       y       z     vdW  Elec       q    Type
REMARK                         _______ _______ _______ _____ _____    ______ ____
ROOT
ATOM      1  C   UNL     1       4.112   4.529  19.098  0.00  0.00    +0.000 A 
ATOM      2  C   UNL     1       3.455   5.757  19.258  0.00  0.00    +0.000 A 
ATOM      3  C   UNL     1       2.360   5.868  20.116  0.00  0.00    +0.000 A 
ATOM      4  C   UNL     1       1.914   4.758  20.828  0.00  0.00    +0.000 A 
ATOM      5  C   UNL     1       2.564   3.531  20.681  0.00  0.00    +0.000 A 
ATOM      6  C   UNL     1       3.667   3.408  19.822  0.00  0.00    +0.000 A 
ENDROOT
BRANCH   6   7
ATOM      7  C   UNL     1       4.344   2.088  19.784  0.00  0.00    +0.000 C 
ATOM      8  N   UNL     1       4.065   1.254  18.731  0.00  0.00    +0.000 N 
ATOM      9  O   UNL     1       5.155   1.752  20.638  0.00  0.00    +0.000 OA
ATOM     10  H   UNL     1       3.705   1.610  17.850  0.00  0.00    +0.000 HD
ATOM     11  H   UNL     1       4.669   0.441  18.642  0.00  0.00    +0.000 HD
ENDBRANCH   6   7
BRANCH   1  14
ATOM     12  C   UNL     1       4.949   4.109  16.831  0.00  0.00    +0.000 C 
ATOM     13  O   UNL     1       3.849   3.899  16.326  0.00  0.00    +0.000 OA
ATOM     14  N   UNL     1       5.169   4.413  18.165  0.00  0.00    +0.000 N 
ATOM     15  H   UNL     1       5.989   4.982  18.367  0.00  0.00    +0.000 HD
BRANCH  12  16
ATOM     16  C   UNL     1       6.201   4.109  16.005  0.00  0.00    +0.000 C 
BRANCH  16  17
ATOM     17  C   UNL     1       7.348   4.784  16.693  0.00  0.00    +0.000 C 
ATOM     18  O   UNL     1       8.108   4.251  17.488  0.00  0.00    +0.000 OA
BRANCH  17  19
ATOM     19  O   UNL     1       7.395   6.088  16.300  0.00  0.00    +0.000 OA
BRANCH  19  21
ATOM     20  C   UNL     1       8.033   7.533  18.084  0.00  0.00    +0.000 C 
ATOM     21  C   UNL     1       6.874   7.041  17.236  0.00  0.00    +0.000 C 
ENDBRANCH  19  21
ENDBRANCH  17  19
ENDBRANCH  16  17
ENDBRANCH  12  16
ENDBRANCH   1  14
TORSDOF 6
ENDMDL
MODEL 7
REMARK VINA RESULT:      -6.9      1.869      2.131
REMARK  Name = 
REMARK  7 active torsions:
REMARK  status: ('A' for Active; 'I' for Inactive)
REMARK    1  A    between atoms: C_1  and  C_2
REMARK    2  A    between atoms: C_2  and  O_3
REMARK    3  A    between atoms: O_3  and  C_4
REMARK    4  A    between atoms: C_4  and  C_6
REMARK    5  A    between atoms: C_6  and  C_7
REMARK    6  A    between atoms: N_9  and  C_10
REMARK    7  A    between atoms: C_15  and  C_16
REMARK                            x       y       z     vdW  Elec       q    Type
REMARK                         _______ _______ _______ _____ _____    ______ ____
ROOT
ATOM      1  C   UNL     1       3.151   3.790  17.873  0.00  0.00    +0.000 A 
ATOM      2  C   UNL     1       1.810   3.966  17.505  0.00  0.00    +0.000 A 
ATOM      3  C   UNL     1       0.782   3.487  18.319  0.00  0.00    +0.000 A 
ATOM      4  C   UNL     1       1.083   2.834  19.511  0.00  0.00    +0.000 A 
ATOM      5  C   UNL     1       2.415   2.658  19.892  0.00  0.00    +0.000 A 
ATOM      6  C   UNL     1       3.455   3.137  19.082  0.00  0.00    +0.000 A 
ENDROOT
BRANCH   6   7
ATOM      7  C   UNL     1       4.837   2.974  19.598  0.00  0.00    +0.000 C 
ATOM      8  N   UNL     1       5.152   1.799  20.231  0.00  0.00    +0.000 N 
ATOM      9  O   UNL     1       5.692   3.838  19.441  0.00  0.00    +0.000 OA
ATOM     10  H   UNL     1       4.620   0.948  20.070  0.00  0.00    +0.000 HD
ATOM     11  H   UNL     1       6.140   1.650  20.414  0.00  0.00    +0.000 HD
ENDBRANCH   6   7
BRANCH   1  14
ATOM     12  C   UNL     1       4.551   5.542  16.880  0.00  0.00    +0.000 C 
ATOM     13  O   UNL     1       4.034   6.476  17.486  0.00  0.00    +0.000 OA
ATOM     14  N   UNL     1       4.181   4.211  17.000  0.00  0.00    +0.000 N 
ATOM     15  H   UNL     1       4.913   3.524  16.831  0.00  0.00    +0.000 HD
BRANCH  12  16
ATOM     16  C   UNL     1       5.713   5.757  15.956  0.00  0.00    +0.000 C 
BRANCH  16  17
ATOM     17  C   UNL     1       6.669   4.602  15.950  0.00  0.00    +0.000 C 
ATOM     18  O   UNL     1       7.571   4.426  16.755  0.00  0.00    +0.000 OA
BRANCH  17  19
ATOM     19  O   UNL     1       6.377   3.792  14.893  0.00  0.00    +0.000 OA
BRANCH  19  21
ATOM     20  C   UNL     1       6.133   3.341  12.567  0.00  0.00    +0.000 C 
ATOM     21  C   UNL     1       6.396   4.418  13.603  0.00  0.00    +0.000 C 
ENDBRANCH  19  21
ENDBRANCH  17  19
ENDBRANCH  16  17
ENDBRANCH  12  16
ENDBRANCH   1  14
TORSDOF 6
ENDMDL
MODEL 8
REMARK VINA RESULT:      -6.9      1.267      1.592
REMARK  Name = 
REMARK  7 active torsions:
REMARK  status: ('A' for Active; 'I' for Inactive)
REMARK    1  A    between atoms: C_1  and  C_2
REMARK    2  A    between atoms: C_2  and  O_3
REMARK    3  A    between atoms: O_3  and  C_4
REMARK    4  A    between atoms: C_4  and  C_6
REMARK    5  A    between atoms: C_6  and  C_7
REMARK    6  A    between atoms: N_9  and  C_10
REMARK    7  A    between atoms: C_15  and  C_16
REMARK                            x       y       z     vdW  Elec       q    Type
REMARK                         _______ _______ _______ _____ _____    ______ ____
ROOT
ATOM      1  C   UNL     1       3.350   4.858  19.125  0.00  0.00    +0.000 A 
ATOM      2  C   UNL     1       2.586   5.558  20.068  0.00  0.00    +0.000 A 
ATOM      3  C   UNL     1       1.517   4.936  20.717  0.00  0.00    +0.000 A 
ATOM      4  C   UNL     1       1.206   3.609  20.435  0.00  0.00    +0.000 A 
ATOM      5  C   UNL     1       1.965   2.899  19.502  0.00  0.00    +0.000 A 
ATOM      6  C   UNL     1       3.042   3.514  18.846  0.00  0.00    +0.000 A 
ENDROOT
BRANCH   6   7
ATOM      7  C   UNL     1       3.841   2.666  17.927  0.00  0.00    +0.000 C 
ATOM      8  N   UNL     1       3.987   1.339  18.241  0.00  0.00    +0.000 N 
ATOM      9  O   UNL     1       4.331   3.113  16.897  0.00  0.00    +0.000 OA
ATOM     10  H   UNL     1       3.329   0.860  18.851  0.00  0.00    +0.000 HD
ATOM     11  H   UNL     1       4.385   0.755  17.511  0.00  0.00    +0.000 HD
ENDBRANCH   6   7
BRANCH   1  14
ATOM     12  C   UNL     1       5.704   5.481  18.827  0.00  0.00    +0.000 C 
ATOM     13  O   UNL     1       6.118   4.891  19.820  0.00  0.00    +0.000 OA
ATOM     14  N   UNL     1       4.380   5.525  18.419  0.00  0.00    +0.000 N 
ATOM     15  H   UNL     1       4.220   5.632  17.420  0.00  0.00    +0.000 HD
BRANCH  12  16
ATOM     16  C   UNL     1       6.638   6.193  17.894  0.00  0.00    +0.000 C 
BRANCH  16  17
ATOM     17  C   UNL     1       7.199   5.291  16.837  0.00  0.00    +0.000 C 
ATOM     18  O   UNL     1       7.981   4.372  17.032  0.00  0.00    +0.000 OA
BRANCH  17  19
ATOM     19  O   UNL     1       6.708   5.673  15.623  0.00  0.00    +0.000 OA
BRANCH  19  21
ATOM     20  C   UNL     1       5.792   4.135  14.053  0.00  0.00    +0.000 C 
ATOM     21  C   UNL     1       7.058   4.832  14.516  0.00  0.00    +0.000 C 
ENDBRANCH  19  21
ENDBRANCH  17  19
ENDBRANCH  16  17
ENDBRANCH  12  16
ENDBRANCH   1  14
TORSDOF 6
ENDMDL
MODEL 9
REMARK VINA RESULT:      -6.9      2.240      3.529
REMARK  Name = 
REMARK  7 active torsions:
REMARK  status: ('A' for Active; 'I' for Inactive)
REMARK    1  A    between atoms: C_1  and  C_2
REMARK    2  A    between atoms: C_2  and  O_3
REMARK    3  A    between atoms: O_3  and  C_4
REMARK    4  A    between atoms: C_4  and  C_6
REMARK    5  A    between atoms: C_6  and  C_7
REMARK    6  A    between atoms: N_9  and  C_10
REMARK    7  A    between atoms: C_15  and  C_16
REMARK                            x       y       z     vdW  Elec       q    Type
REMARK                         _______ _______ _______ _____ _____    ______ ____
ROOT
ATOM      1  C   UNL     1       2.790   3.799  18.011  0.00  0.00    +0.000 A 
ATOM      2  C   UNL     1       2.329   2.476  18.057  0.00  0.00    +0.000 A 
ATOM      3  C   UNL     1       1.367   2.092  18.993  0.00  0.00    +0.000 A 
ATOM      4  C   UNL     1       0.852   3.025  19.888  0.00  0.00    +0.000 A 
ATOM      5  C   UNL     1       1.298   4.348  19.848  0.00  0.00    +0.000 A 
ATOM      6  C   UNL     1       2.263   4.745  18.909  0.00  0.00    +0.000 A 
ENDROOT
BRANCH   6   7
ATOM      7  C   UNL     1       2.625   6.184  18.887  0.00  0.00    +0.000 C 
ATOM      8  N   UNL     1       2.632   6.863  20.079  0.00  0.00    +0.000 N 
ATOM      9  O   UNL     1       2.945   6.754  17.851  0.00  0.00    +0.000 OA
ATOM     10  H   UNL     1       2.733   6.380  20.967  0.00  0.00    +0.000 HD
ATOM     11  H   UNL     1       3.050   7.790  20.054  0.00  0.00    +0.000 HD
ENDBRANCH   6   7
BRANCH   1  14
ATOM     12  C   UNL     1       5.160   4.120  17.467  0.00  0.00    +0.000 C 
ATOM     13  O   UNL     1       5.588   3.802  18.573  0.00  0.00    +0.000 OA
ATOM     14  N   UNL     1       3.821   4.154  17.110  0.00  0.00    +0.000 N 
ATOM     15  H   UNL     1       3.613   3.988  16.128  0.00  0.00    +0.000 HD
BRANCH  12  16
ATOM     16  C   UNL     1       6.087   4.463  16.339  0.00  0.00    +0.000 C 
BRANCH  16  17
ATOM     17  C   UNL     1       6.186   5.939  16.100  0.00  0.00    +0.000 C 
ATOM     18  O   UNL     1       5.293   6.645  15.655  0.00  0.00    +0.000 OA
BRANCH  17  19
ATOM     19  O   UNL     1       7.436   6.360  16.446  0.00  0.00    +0.000 OA
BRANCH  19  21
ATOM     20  C   UNL     1       7.934   6.463  18.773  0.00  0.00    +0.000 C 
ATOM     21  C   UNL     1       7.504   7.264  17.557  0.00  0.00    +0.000 C 
ENDBRANCH  19  21
ENDBRANCH  17  19
ENDBRANCH  16  17
ENDBRANCH  12  16
ENDBRANCH   1  14
TORSDOF 6
ENDMDL
