MODEL 1
REMARK VINA RESULT:      -7.5      0.000      0.000
REMARK  Name = 
REMARK  9 active torsions:
REMARK  status: ('A' for Active; 'I' for Inactive)
REMARK    1  A    between atoms: C_1  and  C_2
REMARK    2  A    between atoms: C_6  and  C_7
REMARK    3  A    between atoms: N_14  and  C_15
REMARK    4  A    between atoms: N_18  and  C_19
REMARK    5  A    between atoms: C_19  and  C_20
REMARK    6  A    between atoms: N_22  and  C_23
REMARK    7  A    between atoms: C_23  and  C_24
REMARK    8  A    between atoms: C_23  and  C_25
REMARK    9  A    between atoms: C_23  and  C_26
REMARK                            x       y       z     vdW  Elec       q    Type
REMARK                         _______ _______ _______ _____ _____    ______ ____
ROOT
ATOM      1  C   UNL     1       0.984   9.825  19.173  0.00  0.00    +0.000 C 
ATOM      2  C   UNL     1       0.743   8.643  20.114  0.00  0.00    +0.000 C 
ATOM      3  C   UNL     1       2.001   7.779  20.131  0.00  0.00    +0.000 C 
ATOM      4  N   UNL     1       2.377   7.327  18.787  0.00  0.00    +0.000 NA
ATOM      5  C   UNL     1       2.496   8.418  17.801  0.00  0.00    +0.000 C 
ATOM      6  C   UNL     1       1.241   9.296  17.761  0.00  0.00    +0.000 C 
ENDROOT
BRANCH   1  16
ATOM      7  C   UNL     1       1.384  12.428  20.726  0.00  0.00    +0.000 C 
ATOM      8  C   UNL     1       0.132  12.033  20.021  0.00  0.00    +0.000 A 
ATOM      9  N   UNL     1      -0.984  12.727  20.039  0.00  0.00    +0.000 NA
ATOM     10  C   UNL     1      -1.882  12.010  19.301  0.00  0.00    +0.000 A 
ATOM     11  C   UNL     1      -3.227  12.298  19.036  0.00  0.00    +0.000 A 
ATOM     12  C   UNL     1      -3.981  11.406  18.253  0.00  0.00    +0.000 A 
ATOM     13  C   UNL     1      -3.368  10.252  17.740  0.00  0.00    +0.000 A 
ATOM     14  C   UNL     1      -2.025   9.948  18.000  0.00  0.00    +0.000 A 
ATOM     15  C   UNL     1      -1.306  10.847  18.794  0.00  0.00    +0.000 A 
ATOM     16  N   UNL     1      -0.020  10.869  19.286  0.00  0.00    +0.000 N 
BRANCH  12  17
ATOM     17  C   UNL     1      -5.436  11.672  17.976  0.00  0.00    +0.000 C 
ATOM     18  F   UNL     1      -5.685  12.130  16.719  0.00  0.00    +0.000 F 
ATOM     19  F   UNL     1      -6.205  10.559  18.128  0.00  0.00    +0.000 F 
ATOM     20  F   UNL     1      -5.961  12.603  18.822  0.00  0.00    +0.000 F 
ENDBRANCH  12  17
ENDBRANCH   1  16
BRANCH   4  21
ATOM     21  C   UNL     1       3.600   6.484  18.806  0.00  0.00    +0.000 C 
BRANCH  21  22
ATOM     22  C   UNL     1       3.301   4.978  18.742  0.00  0.00    +0.000 C 
ATOM     23  O   UNL     1       3.441   4.339  17.702  0.00  0.00    +0.000 OA
ATOM     24  N   UNL     1       2.931   4.409  19.947  0.00  0.00    +0.000 N 
ATOM     25  H   UNL     1       2.853   5.018  20.752  0.00  0.00    +0.000 HD
BRANCH  24  26
ATOM     26  C   UNL     1       2.739   2.964  20.154  0.00  0.00    +0.000 C 
ATOM     27  C   UNL     1       1.706   2.401  19.160  0.00  0.00    +0.000 C 
ATOM     28  C   UNL     1       4.078   2.245  19.901  0.00  0.00    +0.000 C 
ATOM     29  C   UNL     1       2.303   2.675  21.599  0.00  0.00    +0.000 C 
ENDBRANCH  24  26
ENDBRANCH  21  22
ENDBRANCH   4  21
TORSDOF 5
ENDMDL
MODEL 2
REMARK VINA RESULT:      -7.5      4.385      6.209
REMARK  Name = 
REMARK  9 active torsions:
REMARK  status: ('A' for Active; 'I' for Inactive)
REMARK    1  A    between atoms: C_1  and  C_2
REMARK    2  A    between atoms: C_6  and  C_7
REMARK    3  A    between atoms: N_14  and  C_15
REMARK    4  A    between atoms: N_18  and  C_19
REMARK    5  A    between atoms: C_19  and  C_20
REMARK    6  A    between atoms: N_22  and  C_23
REMARK    7  A    between atoms: C_23  and  C_24
REMARK    8  A    between atoms: C_23  and  C_25
REMARK    9  A    between atoms: C_23  and  C_26
REMARK                            x       y       z     vdW  Elec       q    Type
REMARK                         _______ _______ _______ _____ _____    ______ ____
ROOT
ATOM      1  C   UNL     1       3.626   5.811  18.504  0.00  0.00    +0.000 C 
ATOM      2  C   UNL     1       2.922   4.829  17.564  0.00  0.00    +0.000 C 
ATOM      3  C   UNL     1       3.976   3.898  16.969  0.00  0.00    +0.000 C 
ATOM      4  N   UNL     1       5.037   4.638  16.276  0.00  0.00    +0.000 NA
ATOM      5  C   UNL     1       5.663   5.692  17.096  0.00  0.00    +0.000 C 
ATOM      6  C   UNL     1       4.626   6.644  17.700  0.00  0.00    +0.000 C 
ENDROOT
BRANCH   1  16
ATOM      7  C   UNL     1       2.405   4.731  21.091  0.00  0.00    +0.000 C 
ATOM      8  C   UNL     1       2.117   6.067  20.499  0.00  0.00    +0.000 A 
ATOM      9  N   UNL     1       1.246   6.924  20.981  0.00  0.00    +0.000 NA
ATOM     10  C   UNL     1       1.269   7.998  20.137  0.00  0.00    +0.000 A 
ATOM     11  C   UNL     1       0.503   9.169  20.188  0.00  0.00    +0.000 A 
ATOM     12  C   UNL     1       0.681  10.152  19.198  0.00  0.00    +0.000 A 
ATOM     13  C   UNL     1       1.634   9.947  18.187  0.00  0.00    +0.000 A 
ATOM     14  C   UNL     1       2.404   8.779  18.121  0.00  0.00    +0.000 A 
ATOM     15  C   UNL     1       2.193   7.814  19.111  0.00  0.00    +0.000 A 
ATOM     16  N   UNL     1       2.711   6.560  19.348  0.00  0.00    +0.000 N 
BRANCH  12  17
ATOM     17  C   UNL     1      -0.148  11.408  19.207  0.00  0.00    +0.000 C 
ATOM     18  F   UNL     1      -0.253  11.992  20.433  0.00  0.00    +0.000 F 
ATOM     19  F   UNL     1       0.351  12.366  18.379  0.00  0.00    +0.000 F 
ATOM     20  F   UNL     1      -1.426  11.185  18.790  0.00  0.00    +0.000 F 
ENDBRANCH  12  17
ENDBRANCH   1  16
BRANCH   4  21
ATOM     21  C   UNL     1       6.059   3.730  15.695  0.00  0.00    +0.000 C 
BRANCH  21  22
ATOM     22  C   UNL     1       6.265   3.935  14.185  0.00  0.00    +0.000 C 
ATOM     23  O   UNL     1       6.991   4.826  13.751  0.00  0.00    +0.000 OA
ATOM     24  N   UNL     1       5.625   3.007  13.382  0.00  0.00    +0.000 N 
ATOM     25  H   UNL     1       5.056   2.303  13.836  0.00  0.00    +0.000 HD
BRANCH  24  26
ATOM     26  C   UNL     1       5.797   2.920  11.923  0.00  0.00    +0.000 C 
ATOM     27  C   UNL     1       6.047   1.463  11.488  0.00  0.00    +0.000 C 
ATOM     28  C   UNL     1       4.502   3.401  11.242  0.00  0.00    +0.000 C 
ATOM     29  C   UNL     1       6.950   3.822  11.457  0.00  0.00    +0.000 C 
ENDBRANCH  24  26
ENDBRANCH  21  22
ENDBRANCH   4  21
TORSDOF 5
ENDMDL
MODEL 3
REMARK VINA RESULT:      -7.5      0.266      1.131
REMARK  Name = 
REMARK  9 active torsions:
REMARK  status: ('A' for Active; 'I' for Inactive)
REMARK    1  A    between atoms: C_1  and  C_2
REMARK    2  A    between atoms: C_6  and  C_7
REMARK    3  A    between atoms: N_14  and  C_15
REMARK    4  A    between atoms: N_18  and  C_19
REMARK    5  A    between atoms: C_19  and  C_20
REMARK    6  A    between atoms: N_22  and  C_23
REMARK    7  A    between atoms: C_23  and  C_24
REMARK    8  A    between atoms: C_23  and  C_25
REMARK    9  A    between atoms: C_23  and  C_26
REMARK                            x       y       z     vdW  Elec       q    Type
REMARK                         _______ _______ _______ _____ _____    ______ ____
ROOT
ATOM      1  C   UNL     1       0.881   9.884  19.237  0.00  0.00    +0.000 C 
ATOM      2  C   UNL     1       0.651   8.721  20.204  0.00  0.00    +0.000 C 
ATOM      3  C   UNL     1       1.909   7.856  20.221  0.00  0.00    +0.000 C 
ATOM      4  N   UNL     1       2.268   7.378  18.881  0.00  0.00    +0.000 NA
ATOM      5  C   UNL     1       2.374   8.450  17.873  0.00  0.00    +0.000 C 
ATOM      6  C   UNL     1       1.119   9.328  17.832  0.00  0.00    +0.000 C 
ENDROOT
BRANCH   1  16
ATOM      7  C   UNL     1       1.275  12.484  20.797  0.00  0.00    +0.000 C 
ATOM      8  C   UNL     1       0.028  12.093  20.081  0.00  0.00    +0.000 A 
ATOM      9  N   UNL     1      -1.086  12.790  20.089  0.00  0.00    +0.000 NA
ATOM     10  C   UNL     1      -1.980  12.077  19.343  0.00  0.00    +0.000 A 
ATOM     11  C   UNL     1      -3.321  12.370  19.066  0.00  0.00    +0.000 A 
ATOM     12  C   UNL     1      -4.072  11.481  18.276  0.00  0.00    +0.000 A 
ATOM     13  C   UNL     1      -3.457  10.325  17.766  0.00  0.00    +0.000 A 
ATOM     14  C   UNL     1      -2.118  10.017  18.038  0.00  0.00    +0.000 A 
ATOM     15  C   UNL     1      -1.403  10.913  18.839  0.00  0.00    +0.000 A 
ATOM     16  N   UNL     1      -0.121  10.931  19.342  0.00  0.00    +0.000 N 
BRANCH  12  17
ATOM     17  C   UNL     1      -5.524  11.751  17.987  0.00  0.00    +0.000 C 
ATOM     18  F   UNL     1      -6.087  12.679  18.808  0.00  0.00    +0.000 F 
ATOM     19  F   UNL     1      -5.725  12.202  16.718  0.00  0.00    +0.000 F 
ATOM     20  F   UNL     1      -6.291  10.632  18.109  0.00  0.00    +0.000 F 
ENDBRANCH  12  17
ENDBRANCH   1  16
BRANCH   4  21
ATOM     21  C   UNL     1       3.491   6.535  18.901  0.00  0.00    +0.000 C 
BRANCH  21  22
ATOM     22  C   UNL     1       3.197   5.035  18.732  0.00  0.00    +0.000 C 
ATOM     23  O   UNL     1       3.589   4.411  17.749  0.00  0.00    +0.000 OA
ATOM     24  N   UNL     1       2.524   4.454  19.791  0.00  0.00    +0.000 N 
ATOM     25  H   UNL     1       2.252   5.051  20.562  0.00  0.00    +0.000 HD
BRANCH  24  26
ATOM     26  C   UNL     1       2.266   3.009  19.913  0.00  0.00    +0.000 C 
ATOM     27  C   UNL     1       3.577   2.209  19.806  0.00  0.00    +0.000 C 
ATOM     28  C   UNL     1       1.654   2.731  21.299  0.00  0.00    +0.000 C 
ATOM     29  C   UNL     1       1.266   2.544  18.843  0.00  0.00    +0.000 C 
ENDBRANCH  24  26
ENDBRANCH  21  22
ENDBRANCH   4  21
TORSDOF 5
ENDMDL
MODEL 4
REMARK VINA RESULT:      -7.3      0.642      1.449
REMARK  Name = 
REMARK  9 active torsions:
REMARK  status: ('A' for Active; 'I' for Inactive)
REMARK    1  A    between atoms: C_1  and  C_2
REMARK    2  A    between atoms: C_6  and  C_7
REMARK    3  A    between atoms: N_14  and  C_15
REMARK    4  A    between atoms: N_18  and  C_19
REMARK    5  A    between atoms: C_19  and  C_20
REMARK    6  A    between atoms: N_22  and  C_23
REMARK    7  A    between atoms: C_23  and  C_24
REMARK    8  A    between atoms: C_23  and  C_25
REMARK    9  A    between atoms: C_23  and  C_26
REMARK                            x       y       z     vdW  Elec       q    Type
REMARK                         _______ _______ _______ _____ _____    ______ ____
ROOT
ATOM      1  C   UNL     1       0.587   9.384  18.989  0.00  0.00    +0.000 C 
ATOM      2  C   UNL     1       1.684   9.659  17.960  0.00  0.00    +0.000 C 
ATOM      3  C   UNL     1       2.367   8.336  17.623  0.00  0.00    +0.000 C 
ATOM      4  N   UNL     1       2.905   7.674  18.817  0.00  0.00    +0.000 NA
ATOM      5  C   UNL     1       1.918   7.501  19.900  0.00  0.00    +0.000 C 
ATOM      6  C   UNL     1       1.223   8.818  20.260  0.00  0.00    +0.000 C 
ENDROOT
BRANCH   1  16
ATOM      7  C   UNL     1       1.209  11.824  20.724  0.00  0.00    +0.000 C 
ATOM      8  C   UNL     1      -0.070  11.592  19.997  0.00  0.00    +0.000 A 
ATOM      9  N   UNL     1      -1.121  12.378  20.067  0.00  0.00    +0.000 NA
ATOM     10  C   UNL     1      -2.076  11.798  19.282  0.00  0.00    +0.000 A 
ATOM     11  C   UNL     1      -3.390  12.222  19.043  0.00  0.00    +0.000 A 
ATOM     12  C   UNL     1      -4.217  11.458  18.200  0.00  0.00    +0.000 A 
ATOM     13  C   UNL     1      -3.706  10.294  17.604  0.00  0.00    +0.000 A 
ATOM     14  C   UNL     1      -2.397   9.855  17.838  0.00  0.00    +0.000 A 
ATOM     15  C   UNL     1      -1.604  10.628  18.692  0.00  0.00    +0.000 A 
ATOM     16  N   UNL     1      -0.322  10.502  19.180  0.00  0.00    +0.000 N 
BRANCH  12  17
ATOM     17  C   UNL     1      -5.642  11.870  17.948  0.00  0.00    +0.000 C 
ATOM     18  F   UNL     1      -6.154  12.699  18.898  0.00  0.00    +0.000 F 
ATOM     19  F   UNL     1      -5.792  12.522  16.763  0.00  0.00    +0.000 F 
ATOM     20  F   UNL     1      -6.486  10.801  17.893  0.00  0.00    +0.000 F 
ENDBRANCH  12  17
ENDBRANCH   1  16
BRANCH   4  21
ATOM     21  C   UNL     1       3.572   6.388  18.487  0.00  0.00    +0.000 C 
BRANCH  21  22
ATOM     22  C   UNL     1       2.650   5.168  18.639  0.00  0.00    +0.000 C 
ATOM     23  O   UNL     1       1.817   4.882  17.782  0.00  0.00    +0.000 OA
ATOM     24  N   UNL     1       2.882   4.403  19.768  0.00  0.00    +0.000 N 
ATOM     25  H   UNL     1       3.599   4.716  20.411  0.00  0.00    +0.000 HD
BRANCH  24  26
ATOM     26  C   UNL     1       2.222   3.116  20.044  0.00  0.00    +0.000 C 
ATOM     27  C   UNL     1       2.697   2.035  19.055  0.00  0.00    +0.000 C 
ATOM     28  C   UNL     1       2.605   2.659  21.465  0.00  0.00    +0.000 C 
ATOM     29  C   UNL     1       0.694   3.265  19.981  0.00  0.00    +0.000 C 
ENDBRANCH  24  26
ENDBRANCH  21  22
ENDBRANCH   4  21
TORSDOF 5
ENDMDL
MODEL 5
REMARK VINA RESULT:      -7.3      3.518      4.950
REMARK  Name = 
REMARK  9 active torsions:
REMARK  status: ('A' for Active; 'I' for Inactive)
REMARK    1  A    between atoms: C_1  and  C_2
REMARK    2  A    between atoms: C_6  and  C_7
REMARK    3  A    between atoms: N_14  and  C_15
REMARK    4  A    between atoms: N_18  and  C_19
REMARK    5  A    between atoms: C_19  and  C_20
REMARK    6  A    between atoms: N_22  and  C_23
REMARK    7  A    between atoms: C_23  and  C_24
REMARK    8  A    between atoms: C_23  and  C_25
REMARK    9  A    between atoms: C_23  and  C_26
REMARK                            x       y       z     vdW  Elec       q    Type
REMARK                         _______ _______ _______ _____ _____    ______ ____
ROOT
ATOM      1  C   UNL     1       0.674   9.610  18.932  0.00  0.00    +0.000 C 
ATOM      2  C   UNL     1       1.805   9.341  17.937  0.00  0.00    +0.000 C 
ATOM      3  C   UNL     1       2.166   7.859  18.011  0.00  0.00    +0.000 C 
ATOM      4  N   UNL     1       2.537   7.450  19.370  0.00  0.00    +0.000 NA
ATOM      5  C   UNL     1       1.538   7.804  20.395  0.00  0.00    +0.000 C 
ATOM      6  C   UNL     1       1.164   9.290  20.345  0.00  0.00    +0.000 C 
ENDROOT
BRANCH   1  16
ATOM      7  C   UNL     1      -2.194  10.012  17.951  0.00  0.00    +0.000 C 
ATOM      8  C   UNL     1      -1.235  11.107  18.273  0.00  0.00    +0.000 A 
ATOM      9  N   UNL     1      -1.483  12.387  18.109  0.00  0.00    +0.000 NA
ATOM     10  C   UNL     1      -0.348  13.041  18.493  0.00  0.00    +0.000 A 
ATOM     11  C   UNL     1      -0.081  14.415  18.482  0.00  0.00    +0.000 A 
ATOM     12  C   UNL     1       1.174  14.878  18.915  0.00  0.00    +0.000 A 
ATOM     13  C   UNL     1       2.131  13.953  19.365  0.00  0.00    +0.000 A 
ATOM     14  C   UNL     1       1.881  12.575  19.378  0.00  0.00    +0.000 A 
ATOM     15  C   UNL     1       0.629  12.146  18.927  0.00  0.00    +0.000 A 
ATOM     16  N   UNL     1       0.047  10.909  18.758  0.00  0.00    +0.000 N 
BRANCH  12  17
ATOM     17  C   UNL     1       1.502  16.346  18.885  0.00  0.00    +0.000 C 
ATOM     18  F   UNL     1       2.802  16.616  18.585  0.00  0.00    +0.000 F 
ATOM     19  F   UNL     1       0.758  17.025  17.969  0.00  0.00    +0.000 F 
ATOM     20  F   UNL     1       1.263  16.953  20.081  0.00  0.00    +0.000 F 
ENDBRANCH  12  17
ENDBRANCH   1  16
BRANCH   4  21
ATOM     21  C   UNL     1       2.891   6.009  19.440  0.00  0.00    +0.000 C 
BRANCH  21  22
ATOM     22  C   UNL     1       3.775   5.543  18.271  0.00  0.00    +0.000 C 
ATOM     23  O   UNL     1       3.356   4.759  17.423  0.00  0.00    +0.000 OA
ATOM     24  N   UNL     1       5.030   6.122  18.228  0.00  0.00    +0.000 N 
ATOM     25  H   UNL     1       5.279   6.766  18.969  0.00  0.00    +0.000 HD
BRANCH  24  26
ATOM     26  C   UNL     1       5.987   5.939  17.124  0.00  0.00    +0.000 C 
ATOM     27  C   UNL     1       5.333   6.279  15.771  0.00  0.00    +0.000 C 
ATOM     28  C   UNL     1       7.173   6.900  17.331  0.00  0.00    +0.000 C 
ATOM     29  C   UNL     1       6.529   4.501  17.108  0.00  0.00    +0.000 C 
ENDBRANCH  24  26
ENDBRANCH  21  22
ENDBRANCH   4  21
TORSDOF 5
ENDMDL
MODEL 6
REMARK VINA RESULT:      -7.3      0.641      1.439
REMARK  Name = 
REMARK  9 active torsions:
REMARK  status: ('A' for Active; 'I' for Inactive)
REMARK    1  A    between atoms: C_1  and  C_2
REMARK    2  A    between atoms: C_6  and  C_7
REMARK    3  A    between atoms: N_14  and  C_15
REMARK    4  A    between atoms: N_18  and  C_19
REMARK    5  A    between atoms: C_19  and  C_20
REMARK    6  A    between atoms: N_22  and  C_23
REMARK    7  A    between atoms: C_23  and  C_24
REMARK    8  A    between atoms: C_23  and  C_25
REMARK    9  A    between atoms: C_23  and  C_26
REMARK                            x       y       z     vdW  Elec       q    Type
REMARK                         _______ _______ _______ _____ _____    ______ ____
ROOT
ATOM      1  C   UNL     1       0.593   9.370  18.976  0.00  0.00    +0.000 C 
ATOM      2  C   UNL     1       1.687   9.640  17.941  0.00  0.00    +0.000 C 
ATOM      3  C   UNL     1       2.368   8.315  17.607  0.00  0.00    +0.000 C 
ATOM      4  N   UNL     1       2.910   7.658  18.802  0.00  0.00    +0.000 NA
ATOM      5  C   UNL     1       1.928   7.490  19.889  0.00  0.00    +0.000 C 
ATOM      6  C   UNL     1       1.234   8.809  20.247  0.00  0.00    +0.000 C 
ENDROOT
BRANCH   1  16
ATOM      7  C   UNL     1       1.219  11.811  20.708  0.00  0.00    +0.000 C 
ATOM      8  C   UNL     1      -0.061  11.579  19.981  0.00  0.00    +0.000 A 
ATOM      9  N   UNL     1      -1.111  12.367  20.051  0.00  0.00    +0.000 NA
ATOM     10  C   UNL     1      -2.067  11.787  19.267  0.00  0.00    +0.000 A 
ATOM     11  C   UNL     1      -3.380  12.211  19.028  0.00  0.00    +0.000 A 
ATOM     12  C   UNL     1      -4.209  11.447  18.187  0.00  0.00    +0.000 A 
ATOM     13  C   UNL     1      -3.699  10.281  17.591  0.00  0.00    +0.000 A 
ATOM     14  C   UNL     1      -2.390   9.842  17.825  0.00  0.00    +0.000 A 
ATOM     15  C   UNL     1      -1.596  10.615  18.678  0.00  0.00    +0.000 A 
ATOM     16  N   UNL     1      -0.314  10.488  19.166  0.00  0.00    +0.000 N 
BRANCH  12  17
ATOM     17  C   UNL     1      -5.634  11.860  17.935  0.00  0.00    +0.000 C 
ATOM     18  F   UNL     1      -5.817  12.527  16.762  0.00  0.00    +0.000 F 
ATOM     19  F   UNL     1      -6.483  10.796  17.896  0.00  0.00    +0.000 F 
ATOM     20  F   UNL     1      -6.113  12.682  18.909  0.00  0.00    +0.000 F 
ENDBRANCH  12  17
ENDBRANCH   1  16
BRANCH   4  21
ATOM     21  C   UNL     1       3.576   6.371  18.474  0.00  0.00    +0.000 C 
BRANCH  21  22
ATOM     22  C   UNL     1       2.656   5.151  18.644  0.00  0.00    +0.000 C 
ATOM     23  O   UNL     1       1.829   4.847  17.788  0.00  0.00    +0.000 OA
ATOM     24  N   UNL     1       2.884   4.408  19.789  0.00  0.00    +0.000 N 
ATOM     25  H   UNL     1       3.597   4.735  20.429  0.00  0.00    +0.000 HD
BRANCH  24  26
ATOM     26  C   UNL     1       2.227   3.124  20.085  0.00  0.00    +0.000 C 
ATOM     27  C   UNL     1       2.582   2.644  21.504  0.00  0.00    +0.000 C 
ATOM     28  C   UNL     1       0.701   3.323  20.021  0.00  0.00    +0.000 C 
ATOM     29  C   UNL     1       2.619   2.061  19.047  0.00  0.00    +0.000 C 
ENDBRANCH  24  26
ENDBRANCH  21  22
ENDBRANCH   4  21
TORSDOF 5
ENDMDL
MODEL 7
REMARK VINA RESULT:      -7.3      0.629      1.331
REMARK  Name = 
REMARK  9 active torsions:
REMARK  status: ('A' for Active; 'I' for Inactive)
REMARK    1  A    between atoms: C_1  and  C_2
REMARK    2  A    between atoms: C_6  and  C_7
REMARK    3  A    between atoms: N_14  and  C_15
REMARK    4  A    between atoms: N_18  and  C_19
REMARK    5  A    between atoms: C_19  and  C_20
REMARK    6  A    between atoms: N_22  and  C_23
REMARK    7  A    between atoms: C_23  and  C_24
REMARK    8  A    between atoms: C_23  and  C_25
REMARK    9  A    between atoms: C_23  and  C_26
REMARK                            x       y       z     vdW  Elec       q    Type
REMARK                         _______ _______ _______ _____ _____    ______ ____
ROOT
ATOM      1  C   UNL     1       0.616   9.364  18.963  0.00  0.00    +0.000 C 
ATOM      2  C   UNL     1       1.716   9.629  17.933  0.00  0.00    +0.000 C 
ATOM      3  C   UNL     1       2.398   8.303  17.607  0.00  0.00    +0.000 C 
ATOM      4  N   UNL     1       2.932   7.649  18.808  0.00  0.00    +0.000 NA
ATOM      5  C   UNL     1       1.943   7.486  19.890  0.00  0.00    +0.000 C 
ATOM      6  C   UNL     1       1.250   8.807  20.239  0.00  0.00    +0.000 C 
ENDROOT
BRANCH   1  16
ATOM      7  C   UNL     1       1.256  11.835  20.647  0.00  0.00    +0.000 C 
ATOM      8  C   UNL     1      -0.031  11.589  19.938  0.00  0.00    +0.000 A 
ATOM      9  N   UNL     1      -1.081  12.377  20.006  0.00  0.00    +0.000 NA
ATOM     10  C   UNL     1      -2.045  11.782  19.242  0.00  0.00    +0.000 A 
ATOM     11  C   UNL     1      -3.361  12.201  19.009  0.00  0.00    +0.000 A 
ATOM     12  C   UNL     1      -4.197  11.422  18.189  0.00  0.00    +0.000 A 
ATOM     13  C   UNL     1      -3.691  10.248  17.608  0.00  0.00    +0.000 A 
ATOM     14  C   UNL     1      -2.379   9.814  17.835  0.00  0.00    +0.000 A 
ATOM     15  C   UNL     1      -1.578  10.602  18.667  0.00  0.00    +0.000 A 
ATOM     16  N   UNL     1      -0.291  10.485  19.143  0.00  0.00    +0.000 N 
BRANCH  12  17
ATOM     17  C   UNL     1      -5.625  11.829  17.945  0.00  0.00    +0.000 C 
ATOM     18  F   UNL     1      -6.496  10.784  17.898  0.00  0.00    +0.000 F 
ATOM     19  F   UNL     1      -6.098  12.667  18.908  0.00  0.00    +0.000 F 
ATOM     20  F   UNL     1      -5.777  12.494  16.766  0.00  0.00    +0.000 F 
ENDBRANCH  12  17
ENDBRANCH   1  16
BRANCH   4  21
ATOM     21  C   UNL     1       3.598   6.360  18.488  0.00  0.00    +0.000 C 
BRANCH  21  22
ATOM     22  C   UNL     1       2.673   5.143  18.647  0.00  0.00    +0.000 C 
ATOM     23  O   UNL     1       1.861   4.836  17.777  0.00  0.00    +0.000 OA
ATOM     24  N   UNL     1       2.878   4.405  19.799  0.00  0.00    +0.000 N 
ATOM     25  H   UNL     1       3.580   4.734  20.451  0.00  0.00    +0.000 HD
BRANCH  24  26
ATOM     26  C   UNL     1       2.213   3.124  20.089  0.00  0.00    +0.000 C 
ATOM     27  C   UNL     1       0.687   3.250  19.922  0.00  0.00    +0.000 C 
ATOM     28  C   UNL     1       2.713   2.068  19.086  0.00  0.00    +0.000 C 
ATOM     29  C   UNL     1       2.557   2.642  21.507  0.00  0.00    +0.000 C 
ENDBRANCH  24  26
ENDBRANCH  21  22
ENDBRANCH   4  21
TORSDOF 5
ENDMDL
MODEL 8
REMARK VINA RESULT:      -7.3      4.513      6.790
REMARK  Name = 
REMARK  9 active torsions:
REMARK  status: ('A' for Active; 'I' for Inactive)
REMARK    1  A    between atoms: C_1  and  C_2
REMARK    2  A    between atoms: C_6  and  C_7
REMARK    3  A    between atoms: N_14  and  C_15
REMARK    4  A    between atoms: N_18  and  C_19
REMARK    5  A    between atoms: C_19  and  C_20
REMARK    6  A    between atoms: N_22  and  C_23
REMARK    7  A    between atoms: C_23  and  C_24
REMARK    8  A    between atoms: C_23  and  C_25
REMARK    9  A    between atoms: C_23  and  C_26
REMARK                            x       y       z     vdW  Elec       q    Type
REMARK                         _______ _______ _______ _____ _____    ______ ____
ROOT
ATOM      1  C   UNL     1       4.062   4.987  18.702  0.00  0.00    +0.000 C 
ATOM      2  C   UNL     1       3.692   5.255  17.242  0.00  0.00    +0.000 C 
ATOM      3  C   UNL     1       4.636   4.451  16.353  0.00  0.00    +0.000 C 
ATOM      4  N   UNL     1       6.045   4.767  16.617  0.00  0.00    +0.000 NA
ATOM      5  C   UNL     1       6.426   4.652  18.037  0.00  0.00    +0.000 C 
ATOM      6  C   UNL     1       5.496   5.457  18.950  0.00  0.00    +0.000 C 
ENDROOT
BRANCH   1  16
ATOM      7  C   UNL     1       2.848   3.268  20.921  0.00  0.00    +0.000 C 
ATOM      8  C   UNL     1       2.477   4.682  20.630  0.00  0.00    +0.000 A 
ATOM      9  N   UNL     1       1.528   5.347  21.250  0.00  0.00    +0.000 NA
ATOM     10  C   UNL     1       1.495   6.582  20.670  0.00  0.00    +0.000 A 
ATOM     11  C   UNL     1       0.641   7.658  20.945  0.00  0.00    +0.000 A 
ATOM     12  C   UNL     1       0.774   8.849  20.210  0.00  0.00    +0.000 A 
ATOM     13  C   UNL     1       1.771   8.943  19.225  0.00  0.00    +0.000 A 
ATOM     14  C   UNL     1       2.629   7.875  18.935  0.00  0.00    +0.000 A 
ATOM     15  C   UNL     1       2.462   6.699  19.673  0.00  0.00    +0.000 A 
ATOM     16  N   UNL     1       3.067   5.462  19.648  0.00  0.00    +0.000 N 
BRANCH  12  17
ATOM     17  C   UNL     1      -0.149  10.011  20.460  0.00  0.00    +0.000 C 
ATOM     18  F   UNL     1      -0.745   9.990  21.684  0.00  0.00    +0.000 F 
ATOM     19  F   UNL     1       0.492  11.210  20.377  0.00  0.00    +0.000 F 
ATOM     20  F   UNL     1      -1.164  10.069  19.553  0.00  0.00    +0.000 F 
ENDBRANCH  12  17
ENDBRANCH   1  16
BRANCH   4  21
ATOM     21  C   UNL     1       6.962   3.986  15.748  0.00  0.00    +0.000 C 
BRANCH  21  22
ATOM     22  C   UNL     1       6.736   4.233  14.248  0.00  0.00    +0.000 C 
ATOM     23  O   UNL     1       7.060   5.291  13.715  0.00  0.00    +0.000 OA
ATOM     24  N   UNL     1       6.205   3.158  13.558  0.00  0.00    +0.000 N 
ATOM     25  H   UNL     1       5.979   2.323  14.085  0.00  0.00    +0.000 HD
BRANCH  24  26
ATOM     26  C   UNL     1       6.040   3.115  12.095  0.00  0.00    +0.000 C 
ATOM     27  C   UNL     1       4.645   3.624  11.687  0.00  0.00    +0.000 C 
ATOM     28  C   UNL     1       7.088   4.043  11.452  0.00  0.00    +0.000 C 
ATOM     29  C   UNL     1       6.267   1.692  11.564  0.00  0.00    +0.000 C 
ENDBRANCH  24  26
ENDBRANCH  21  22
ENDBRANCH   4  21
TORSDOF 5
ENDMDL
MODEL 9
REMARK VINA RESULT:      -7.2      5.777      9.653
REMARK  Name = 
REMARK  9 active torsions:
REMARK  status: ('A' for Active; 'I' for Inactive)
REMARK    1  A    between atoms: C_1  and  C_2
REMARK    2  A    between atoms: C_6  and  C_7
REMARK    3  A    between atoms: N_14  and  C_15
REMARK    4  A    between atoms: N_18  and  C_19
REMARK    5  A    between atoms: C_19  and  C_20
REMARK    6  A    between atoms: N_22  and  C_23
REMARK    7  A    between atoms: C_23  and  C_24
REMARK    8  A    between atoms: C_23  and  C_25
REMARK    9  A    between atoms: C_23  and  C_26
REMARK                            x       y       z     vdW  Elec       q    Type
REMARK                         _______ _______ _______ _____ _____    ______ ____
ROOT
ATOM      1  C   UNL     1       1.722   7.390  19.127  0.00  0.00    +0.000 C 
ATOM      2  C   UNL     1       1.943   7.840  20.573  0.00  0.00    +0.000 C 
ATOM      3  C   UNL     1       0.935   8.941  20.891  0.00  0.00    +0.000 C 
ATOM      4  N   UNL     1       1.036  10.067  19.957  0.00  0.00    +0.000 NA
ATOM      5  C   UNL     1       0.961   9.675  18.537  0.00  0.00    +0.000 C 
ATOM      6  C   UNL     1       1.970   8.574  18.191  0.00  0.00    +0.000 C 
ENDROOT
BRANCH   1  16
ATOM      7  C   UNL     1       1.146   4.682  20.426  0.00  0.00    +0.000 C 
ATOM      8  C   UNL     1       2.198   4.937  19.401  0.00  0.00    +0.000 A 
ATOM      9  N   UNL     1       3.058   4.038  18.978  0.00  0.00    +0.000 NA
ATOM     10  C   UNL     1       3.855   4.680  18.073  0.00  0.00    +0.000 A 
ATOM     11  C   UNL     1       4.947   4.177  17.355  0.00  0.00    +0.000 A 
ATOM     12  C   UNL     1       5.642   5.025  16.474  0.00  0.00    +0.000 A 
ATOM     13  C   UNL     1       5.218   6.355  16.320  0.00  0.00    +0.000 A 
ATOM     14  C   UNL     1       4.131   6.873  17.034  0.00  0.00    +0.000 A 
ATOM     15  C   UNL     1       3.470   6.009  17.913  0.00  0.00    +0.000 A 
ATOM     16  N   UNL     1       2.418   6.160  18.790  0.00  0.00    +0.000 N 
BRANCH  12  17
ATOM     17  C   UNL     1       6.839   4.523  15.712  0.00  0.00    +0.000 C 
ATOM     18  F   UNL     1       7.379   5.441  14.864  0.00  0.00    +0.000 F 
ATOM     19  F   UNL     1       7.851   4.132  16.534  0.00  0.00    +0.000 F 
ATOM     20  F   UNL     1       6.544   3.436  14.945  0.00  0.00    +0.000 F 
ENDBRANCH  12  17
ENDBRANCH   1  16
BRANCH   4  21
ATOM     21  C   UNL     1       0.056  11.139  20.271  0.00  0.00    +0.000 C 
BRANCH  21  22
ATOM     22  C   UNL     1       0.716  12.490  20.592  0.00  0.00    +0.000 C 
ATOM     23  O   UNL     1       0.706  12.955  21.729  0.00  0.00    +0.000 OA
ATOM     24  N   UNL     1       1.360  13.089  19.524  0.00  0.00    +0.000 N 
ATOM     25  H   UNL     1       1.319  12.621  18.626  0.00  0.00    +0.000 HD
BRANCH  24  26
ATOM     26  C   UNL     1       2.179  14.307  19.631  0.00  0.00    +0.000 C 
ATOM     27  C   UNL     1       3.293  14.126  20.679  0.00  0.00    +0.000 C 
ATOM     28  C   UNL     1       2.849  14.574  18.270  0.00  0.00    +0.000 C 
ATOM     29  C   UNL     1       1.305  15.520  19.984  0.00  0.00    +0.000 C 
ENDBRANCH  24  26
ENDBRANCH  21  22
ENDBRANCH   4  21
TORSDOF 5
ENDMDL
