MODEL 1
REMARK VINA RESULT:      -7.0      0.000      0.000
REMARK  Name = 
REMARK  5 active torsions:
REMARK  status: ('A' for Active; 'I' for Inactive)
REMARK    1  A    between atoms: C_2  and  C_4
REMARK    2  A    between atoms: C_4  and  C_5
REMARK    3  A    between atoms: C_5  and  C_6
REMARK    4  A    between atoms: C_6  and  C_7
REMARK    5  A    between atoms: C_9  and  C_10
REMARK                            x       y       z     vdW  Elec       q    Type
REMARK                         _______ _______ _______ _____ _____    ______ ____
ROOT
ATOM      1  C   UNL     1       4.061   4.583  17.797  0.00  0.00    +0.000 A 
ATOM      2  N   UNL     1       3.307   5.633  17.561  0.00  0.00    +0.000 NA
ATOM      3  C   UNL     1       3.083   6.126  18.824  0.00  0.00    +0.000 A 
ATOM      4  N   UNL     1       3.598   5.369  19.806  0.00  0.00    +0.000 NA
ATOM      5  O   UNL     1       4.262   4.351  19.123  0.00  0.00    +0.000 OA
ENDROOT
BRANCH   3   6
ATOM      6  C   UNL     1       2.358   7.373  19.047  0.00  0.00    +0.000 A 
ATOM      7  C   UNL     1       2.166   8.291  18.005  0.00  0.00    +0.000 A 
ATOM      8  C   UNL     1       1.464   9.479  18.225  0.00  0.00    +0.000 A 
ATOM      9  C   UNL     1       0.944   9.764  19.489  0.00  0.00    +0.000 A 
ATOM     10 CL   UNL     1       0.097  11.256  19.693  0.00  0.00    +0.000 Cl
ATOM     11  C   UNL     1       1.124   8.853  20.535  0.00  0.00    +0.000 A 
ATOM     12 CL   UNL     1       0.508   9.139  22.125  0.00  0.00    +0.000 Cl
ATOM     13  C   UNL     1       1.826   7.664  20.313  0.00  0.00    +0.000 A 
ENDBRANCH   3   6
BRANCH   1  14
ATOM     14  C   UNL     1       4.733   3.667  16.845  0.00  0.00    +0.000 C 
BRANCH  14  15
ATOM     15  C   UNL     1       5.122   4.370  15.541  0.00  0.00    +0.000 C 
BRANCH  15  16
ATOM     16  C   UNL     1       6.618   4.293  15.216  0.00  0.00    +0.000 C 
BRANCH  16  18
ATOM     17  O   UNL     1       7.412   6.217  16.329  0.00  0.00    +0.000 OA
ATOM     18  C   UNL     1       7.450   4.943  16.301  0.00  0.00    +0.000 C 
ATOM     19  O   UNL     1       8.091   4.214  17.085  0.00  0.00    +0.000 OA
ENDBRANCH  16  18
ENDBRANCH  15  16
ENDBRANCH  14  15
ENDBRANCH   1  14
TORSDOF 5
ENDMDL
MODEL 2
REMARK VINA RESULT:      -6.8      3.437      4.988
REMARK  Name = 
REMARK  5 active torsions:
REMARK  status: ('A' for Active; 'I' for Inactive)
REMARK    1  A    between atoms: C_2  and  C_4
REMARK    2  A    between atoms: C_4  and  C_5
REMARK    3  A    between atoms: C_5  and  C_6
REMARK    4  A    between atoms: C_6  and  C_7
REMARK    5  A    between atoms: C_9  and  C_10
REMARK                            x       y       z     vdW  Elec       q    Type
REMARK                         _______ _______ _______ _____ _____    ______ ____
ROOT
ATOM      1  C   UNL     1       6.318   5.023  15.520  0.00  0.00    +0.000 A 
ATOM      2  N   UNL     1       5.641   4.190  16.276  0.00  0.00    +0.000 NA
ATOM      3  C   UNL     1       5.266   4.987  17.333  0.00  0.00    +0.000 A 
ATOM      4  N   UNL     1       5.762   6.234  17.280  0.00  0.00    +0.000 NA
ATOM      5  O   UNL     1       6.449   6.263  16.067  0.00  0.00    +0.000 OA
ENDROOT
BRANCH   3   6
ATOM      6  C   UNL     1       4.394   4.498  18.395  0.00  0.00    +0.000 A 
ATOM      7  C   UNL     1       4.452   3.163  18.818  0.00  0.00    +0.000 A 
ATOM      8  C   UNL     1       3.619   2.704  19.842  0.00  0.00    +0.000 A 
ATOM      9  C   UNL     1       2.716   3.575  20.456  0.00  0.00    +0.000 A 
ATOM     10 CL   UNL     1       1.709   2.939  21.707  0.00  0.00    +0.000 Cl
ATOM     11  C   UNL     1       2.653   4.911  20.046  0.00  0.00    +0.000 A 
ATOM     12 CL   UNL     1       1.562   6.046  20.762  0.00  0.00    +0.000 Cl
ATOM     13  C   UNL     1       3.490   5.368  19.023  0.00  0.00    +0.000 A 
ENDBRANCH   3   6
BRANCH   1  14
ATOM     14  C   UNL     1       6.909   4.816  14.177  0.00  0.00    +0.000 C 
BRANCH  14  15
ATOM     15  C   UNL     1       6.291   3.616  13.451  0.00  0.00    +0.000 C 
BRANCH  15  16
ATOM     16  C   UNL     1       5.038   3.961  12.638  0.00  0.00    +0.000 C 
BRANCH  16  18
ATOM     17  O   UNL     1       3.729   3.119  10.863  0.00  0.00    +0.000 OA
ATOM     18  C   UNL     1       4.764   2.914  11.580  0.00  0.00    +0.000 C 
ATOM     19  O   UNL     1       5.550   1.951  11.469  0.00  0.00    +0.000 OA
ENDBRANCH  16  18
ENDBRANCH  15  16
ENDBRANCH  14  15
ENDBRANCH   1  14
TORSDOF 5
ENDMDL
MODEL 3
REMARK VINA RESULT:      -6.7      1.555      2.457
REMARK  Name = 
REMARK  5 active torsions:
REMARK  status: ('A' for Active; 'I' for Inactive)
REMARK    1  A    between atoms: C_2  and  C_4
REMARK    2  A    between atoms: C_4  and  C_5
REMARK    3  A    between atoms: C_5  and  C_6
REMARK    4  A    between atoms: C_6  and  C_7
REMARK    5  A    between atoms: C_9  and  C_10
REMARK                            x       y       z     vdW  Elec       q    Type
REMARK                         _______ _______ _______ _____ _____    ______ ____
ROOT
ATOM      1  C   UNL     1       4.810   5.011  16.590  0.00  0.00    +0.000 A 
ATOM      2  N   UNL     1       4.421   6.161  17.090  0.00  0.00    +0.000 NA
ATOM      3  C   UNL     1       3.326   5.803  17.841  0.00  0.00    +0.000 A 
ATOM      4  N   UNL     1       2.997   4.505  17.743  0.00  0.00    +0.000 NA
ATOM      5  O   UNL     1       3.991   3.974  16.923  0.00  0.00    +0.000 OA
ENDROOT
BRANCH   3   6
ATOM      6  C   UNL     1       2.615   6.767  18.674  0.00  0.00    +0.000 A 
ATOM      7  C   UNL     1       2.219   6.438  19.978  0.00  0.00    +0.000 A 
ATOM      8  C   UNL     1       1.545   7.370  20.773  0.00  0.00    +0.000 A 
ATOM      9  C   UNL     1       1.259   8.643  20.273  0.00  0.00    +0.000 A 
ATOM     10 CL   UNL     1       0.413   9.740  21.306  0.00  0.00    +0.000 Cl
ATOM     11  C   UNL     1       1.654   8.984  18.976  0.00  0.00    +0.000 A 
ATOM     12 CL   UNL     1       1.334  10.540  18.292  0.00  0.00    +0.000 Cl
ATOM     13  C   UNL     1       2.330   8.050  18.183  0.00  0.00    +0.000 A 
ENDBRANCH   3   6
BRANCH   1  14
ATOM     14  C   UNL     1       6.001   4.689  15.770  0.00  0.00    +0.000 C 
BRANCH  14  15
ATOM     15  C   UNL     1       7.296   5.214  16.399  0.00  0.00    +0.000 C 
BRANCH  15  16
ATOM     16  C   UNL     1       7.571   4.663  17.803  0.00  0.00    +0.000 C 
BRANCH  16  18
ATOM     17  O   UNL     1       7.465   5.431  20.033  0.00  0.00    +0.000 OA
ATOM     18  C   UNL     1       7.663   5.780  18.822  0.00  0.00    +0.000 C 
ATOM     19  O   UNL     1       7.930   6.933  18.428  0.00  0.00    +0.000 OA
ENDBRANCH  16  18
ENDBRANCH  15  16
ENDBRANCH  14  15
ENDBRANCH   1  14
TORSDOF 5
ENDMDL
MODEL 4
REMARK VINA RESULT:      -6.7      3.906      5.184
REMARK  Name = 
REMARK  5 active torsions:
REMARK  status: ('A' for Active; 'I' for Inactive)
REMARK    1  A    between atoms: C_2  and  C_4
REMARK    2  A    between atoms: C_4  and  C_5
REMARK    3  A    between atoms: C_5  and  C_6
REMARK    4  A    between atoms: C_6  and  C_7
REMARK    5  A    between atoms: C_9  and  C_10
REMARK                            x       y       z     vdW  Elec       q    Type
REMARK                         _______ _______ _______ _____ _____    ______ ____
ROOT
ATOM      1  C   UNL     1       5.808   4.960  15.254  0.00  0.00    +0.000 A 
ATOM      2  N   UNL     1       5.347   4.181  16.205  0.00  0.00    +0.000 NA
ATOM      3  C   UNL     1       4.567   5.042  16.941  0.00  0.00    +0.000 A 
ATOM      4  N   UNL     1       4.612   6.317  16.519  0.00  0.00    +0.000 NA
ATOM      5  O   UNL     1       5.426   6.260  15.388  0.00  0.00    +0.000 OA
ENDROOT
BRANCH   3   6
ATOM      6  C   UNL     1       3.761   4.582  18.066  0.00  0.00    +0.000 A 
ATOM      7  C   UNL     1       4.034   5.011  19.372  0.00  0.00    +0.000 A 
ATOM      8  C   UNL     1       3.252   4.571  20.444  0.00  0.00    +0.000 A 
ATOM      9  C   UNL     1       2.186   3.697  20.223  0.00  0.00    +0.000 A 
ATOM     10 CL   UNL     1       1.268   3.185  21.594  0.00  0.00    +0.000 Cl
ATOM     11  C   UNL     1       1.900   3.266  18.923  0.00  0.00    +0.000 A 
ATOM     12 CL   UNL     1       0.596   2.186  18.574  0.00  0.00    +0.000 Cl
ATOM     13  C   UNL     1       2.683   3.709  17.852  0.00  0.00    +0.000 A 
ENDBRANCH   3   6
BRANCH   1  14
ATOM     14  C   UNL     1       6.633   4.621  14.069  0.00  0.00    +0.000 C 
BRANCH  14  15
ATOM     15  C   UNL     1       5.814   3.933  12.972  0.00  0.00    +0.000 C 
BRANCH  15  16
ATOM     16  C   UNL     1       6.624   2.952  12.117  0.00  0.00    +0.000 C 
BRANCH  16  18
ATOM     17  O   UNL     1       4.525   2.427  11.173  0.00  0.00    +0.000 OA
ATOM     18  C   UNL     1       5.716   2.009  11.355  0.00  0.00    +0.000 C 
ATOM     19  O   UNL     1       6.178   0.922  10.953  0.00  0.00    +0.000 OA
ENDBRANCH  16  18
ENDBRANCH  15  16
ENDBRANCH  14  15
ENDBRANCH   1  14
TORSDOF 5
ENDMDL
MODEL 5
REMARK VINA RESULT:      -6.7      3.619      5.006
REMARK  Name = 
REMARK  5 active torsions:
REMARK  status: ('A' for Active; 'I' for Inactive)
REMARK    1  A    between atoms: C_2  and  C_4
REMARK    2  A    between atoms: C_4  and  C_5
REMARK    3  A    between atoms: C_5  and  C_6
REMARK    4  A    between atoms: C_6  and  C_7
REMARK    5  A    between atoms: C_9  and  C_10
REMARK                            x       y       z     vdW  Elec       q    Type
REMARK                         _______ _______ _______ _____ _____    ______ ____
ROOT
ATOM      1  C   UNL     1       6.916   4.523  15.619  0.00  0.00    +0.000 A 
ATOM      2  N   UNL     1       5.663   4.366  15.981  0.00  0.00    +0.000 NA
ATOM      3  C   UNL     1       5.743   4.412  17.353  0.00  0.00    +0.000 A 
ATOM      4  N   UNL     1       6.997   4.504  17.824  0.00  0.00    +0.000 NA
ATOM      5  O   UNL     1       7.777   4.593  16.672  0.00  0.00    +0.000 OA
ENDROOT
BRANCH   3   6
ATOM      6  C   UNL     1       4.553   4.377  18.196  0.00  0.00    +0.000 A 
ATOM      7  C   UNL     1       4.350   5.339  19.196  0.00  0.00    +0.000 A 
ATOM      8  C   UNL     1       3.203   5.303  19.994  0.00  0.00    +0.000 A 
ATOM      9  C   UNL     1       2.244   4.306  19.802  0.00  0.00    +0.000 A 
ATOM     10 CL   UNL     1       0.857   4.316  20.831  0.00  0.00    +0.000 Cl
ATOM     11  C   UNL     1       2.433   3.345  18.803  0.00  0.00    +0.000 A 
ATOM     12 CL   UNL     1       1.288   2.084  18.507  0.00  0.00    +0.000 Cl
ATOM     13  C   UNL     1       3.581   3.384  18.004  0.00  0.00    +0.000 A 
ENDBRANCH   3   6
BRANCH   1  14
ATOM     14  C   UNL     1       7.499   4.667  14.264  0.00  0.00    +0.000 C 
BRANCH  14  15
ATOM     15  C   UNL     1       6.442   4.537  13.162  0.00  0.00    +0.000 C 
BRANCH  15  16
ATOM     16  C   UNL     1       6.780   3.486  12.098  0.00  0.00    +0.000 C 
BRANCH  16  18
ATOM     17  O   UNL     1       4.455   3.331  11.726  0.00  0.00    +0.000 OA
ATOM     18  C   UNL     1       5.555   2.687  11.706  0.00  0.00    +0.000 C 
ATOM     19  O   UNL     1       5.695   1.490  11.385  0.00  0.00    +0.000 OA
ENDBRANCH  16  18
ENDBRANCH  15  16
ENDBRANCH  14  15
ENDBRANCH   1  14
TORSDOF 5
ENDMDL
MODEL 6
REMARK VINA RESULT:      -6.6      3.782      5.214
REMARK  Name = 
REMARK  5 active torsions:
REMARK  status: ('A' for Active; 'I' for Inactive)
REMARK    1  A    between atoms: C_2  and  C_4
REMARK    2  A    between atoms: C_4  and  C_5
REMARK    3  A    between atoms: C_5  and  C_6
REMARK    4  A    between atoms: C_6  and  C_7
REMARK    5  A    between atoms: C_9  and  C_10
REMARK                            x       y       z     vdW  Elec       q    Type
REMARK                         _______ _______ _______ _____ _____    ______ ____
ROOT
ATOM      1  C   UNL     1       6.461   5.011  15.197  0.00  0.00    +0.000 A 
ATOM      2  N   UNL     1       5.546   4.325  15.843  0.00  0.00    +0.000 NA
ATOM      3  C   UNL     1       5.357   5.079  16.978  0.00  0.00    +0.000 A 
ATOM      4  N   UNL     1       6.180   6.136  17.075  0.00  0.00    +0.000 NA
ATOM      5  O   UNL     1       6.904   6.101  15.884  0.00  0.00    +0.000 OA
ENDROOT
BRANCH   3   6
ATOM      6  C   UNL     1       4.336   4.744  17.964  0.00  0.00    +0.000 A 
ATOM      7  C   UNL     1       4.144   5.541  19.102  0.00  0.00    +0.000 A 
ATOM      8  C   UNL     1       3.158   5.217  20.038  0.00  0.00    +0.000 A 
ATOM      9  C   UNL     1       2.351   4.093  19.848  0.00  0.00    +0.000 A 
ATOM     10 CL   UNL     1       1.159   3.747  21.050  0.00  0.00    +0.000 Cl
ATOM     11  C   UNL     1       2.529   3.294  18.714  0.00  0.00    +0.000 A 
ATOM     12 CL   UNL     1       1.566   1.890  18.413  0.00  0.00    +0.000 Cl
ATOM     13  C   UNL     1       3.515   3.621  17.777  0.00  0.00    +0.000 A 
ENDBRANCH   3   6
BRANCH   1  14
ATOM     14  C   UNL     1       7.033   4.790  13.848  0.00  0.00    +0.000 C 
BRANCH  14  15
ATOM     15  C   UNL     1       6.387   3.598  13.134  0.00  0.00    +0.000 C 
BRANCH  15  16
ATOM     16  C   UNL     1       5.037   3.921  12.485  0.00  0.00    +0.000 C 
BRANCH  16  18
ATOM     17  O   UNL     1       5.454   1.883  11.369  0.00  0.00    +0.000 OA
ATOM     18  C   UNL     1       4.654   2.872  11.462  0.00  0.00    +0.000 C 
ATOM     19  O   UNL     1       3.607   3.029  10.802  0.00  0.00    +0.000 OA
ENDBRANCH  16  18
ENDBRANCH  15  16
ENDBRANCH  14  15
ENDBRANCH   1  14
TORSDOF 5
ENDMDL
MODEL 7
REMARK VINA RESULT:      -6.6      3.025      3.847
REMARK  Name = 
REMARK  5 active torsions:
REMARK  status: ('A' for Active; 'I' for Inactive)
REMARK    1  A    between atoms: C_2  and  C_4
REMARK    2  A    between atoms: C_4  and  C_5
REMARK    3  A    between atoms: C_5  and  C_6
REMARK    4  A    between atoms: C_6  and  C_7
REMARK    5  A    between atoms: C_9  and  C_10
REMARK                            x       y       z     vdW  Elec       q    Type
REMARK                         _______ _______ _______ _____ _____    ______ ____
ROOT
ATOM      1  C   UNL     1       5.819   4.740  15.374  0.00  0.00    +0.000 A 
ATOM      2  N   UNL     1       4.839   4.707  16.247  0.00  0.00    +0.000 NA
ATOM      3  C   UNL     1       4.918   5.950  16.830  0.00  0.00    +0.000 A 
ATOM      4  N   UNL     1       5.955   6.689  16.402  0.00  0.00    +0.000 NA
ATOM      5  O   UNL     1       6.546   5.891  15.424  0.00  0.00    +0.000 OA
ENDROOT
BRANCH   3   6
ATOM      6  C   UNL     1       3.940   6.404  17.812  0.00  0.00    +0.000 A 
ATOM      7  C   UNL     1       3.328   7.660  17.692  0.00  0.00    +0.000 A 
ATOM      8  C   UNL     1       2.386   8.085  18.633  0.00  0.00    +0.000 A 
ATOM      9  C   UNL     1       2.043   7.259  19.706  0.00  0.00    +0.000 A 
ATOM     10 CL   UNL     1       0.880   7.852  20.837  0.00  0.00    +0.000 Cl
ATOM     11  C   UNL     1       2.642   6.001  19.833  0.00  0.00    +0.000 A 
ATOM     12 CL   UNL     1       2.266   4.926  21.134  0.00  0.00    +0.000 Cl
ATOM     13  C   UNL     1       3.584   5.578  18.889  0.00  0.00    +0.000 A 
ENDBRANCH   3   6
BRANCH   1  14
ATOM     14  C   UNL     1       6.209   3.743  14.349  0.00  0.00    +0.000 C 
BRANCH  14  15
ATOM     15  C   UNL     1       6.545   4.396  13.005  0.00  0.00    +0.000 C 
BRANCH  15  16
ATOM     16  C   UNL     1       6.783   3.394  11.870  0.00  0.00    +0.000 C 
BRANCH  16  18
ATOM     17  O   UNL     1       4.451   3.201  11.560  0.00  0.00    +0.000 OA
ATOM     18  C   UNL     1       5.550   2.555  11.610  0.00  0.00    +0.000 C 
ATOM     19  O   UNL     1       5.682   1.324  11.454  0.00  0.00    +0.000 OA
ENDBRANCH  16  18
ENDBRANCH  15  16
ENDBRANCH  14  15
ENDBRANCH   1  14
TORSDOF 5
ENDMDL
MODEL 8
REMARK VINA RESULT:      -6.6      2.128      3.457
REMARK  Name = 
REMARK  5 active torsions:
REMARK  status: ('A' for Active; 'I' for Inactive)
REMARK    1  A    between atoms: C_2  and  C_4
REMARK    2  A    between atoms: C_4  and  C_5
REMARK    3  A    between atoms: C_5  and  C_6
REMARK    4  A    between atoms: C_6  and  C_7
REMARK    5  A    between atoms: C_9  and  C_10
REMARK                            x       y       z     vdW  Elec       q    Type
REMARK                         _______ _______ _______ _____ _____    ______ ____
ROOT
ATOM      1  C   UNL     1       4.244   4.798  18.893  0.00  0.00    +0.000 A 
ATOM      2  N   UNL     1       3.473   5.625  19.560  0.00  0.00    +0.000 NA
ATOM      3  C   UNL     1       3.231   6.615  18.636  0.00  0.00    +0.000 A 
ATOM      4  N   UNL     1       3.894   6.455  17.479  0.00  0.00    +0.000 NA
ATOM      5  O   UNL     1       4.556   5.239  17.643  0.00  0.00    +0.000 OA
ENDROOT
BRANCH   3   6
ATOM      6  C   UNL     1       2.320   7.720  18.912  0.00  0.00    +0.000 A 
ATOM      7  C   UNL     1       1.925   8.599  17.894  0.00  0.00    +0.000 A 
ATOM      8  C   UNL     1       1.045   9.651  18.164  0.00  0.00    +0.000 A 
ATOM      9  C   UNL     1       0.548   9.837  19.456  0.00  0.00    +0.000 A 
ATOM     10 CL   UNL     1      -0.526  11.163  19.722  0.00  0.00    +0.000 Cl
ATOM     11  C   UNL     1       0.930   8.962  20.479  0.00  0.00    +0.000 A 
ATOM     12 CL   UNL     1       0.354   9.130  22.101  0.00  0.00    +0.000 Cl
ATOM     13  C   UNL     1       1.810   7.909  20.206  0.00  0.00    +0.000 A 
ENDBRANCH   3   6
BRANCH   1  14
ATOM     14  C   UNL     1       4.776   3.472  19.289  0.00  0.00    +0.000 C 
BRANCH  14  15
ATOM     15  C   UNL     1       3.664   2.435  19.480  0.00  0.00    +0.000 C 
BRANCH  15  16
ATOM     16  C   UNL     1       2.895   2.107  18.195  0.00  0.00    +0.000 C 
BRANCH  16  18
ATOM     17  O   UNL     1       0.688   2.351  18.993  0.00  0.00    +0.000 OA
ATOM     18  C   UNL     1       1.549   2.800  18.167  0.00  0.00    +0.000 C 
ATOM     19  O   UNL     1       1.376   3.745  17.372  0.00  0.00    +0.000 OA
ENDBRANCH  16  18
ENDBRANCH  15  16
ENDBRANCH  14  15
ENDBRANCH   1  14
TORSDOF 5
ENDMDL
MODEL 9
REMARK VINA RESULT:      -6.6      1.029      1.213
REMARK  Name = 
REMARK  5 active torsions:
REMARK  status: ('A' for Active; 'I' for Inactive)
REMARK    1  A    between atoms: C_2  and  C_4
REMARK    2  A    between atoms: C_4  and  C_5
REMARK    3  A    between atoms: C_5  and  C_6
REMARK    4  A    between atoms: C_6  and  C_7
REMARK    5  A    between atoms: C_9  and  C_10
REMARK                            x       y       z     vdW  Elec       q    Type
REMARK                         _______ _______ _______ _____ _____    ______ ____
ROOT
ATOM      1  C   UNL     1       3.719   5.205  17.994  0.00  0.00    +0.000 A 
ATOM      2  N   UNL     1       3.042   6.322  17.863  0.00  0.00    +0.000 NA
ATOM      3  C   UNL     1       2.664   6.594  19.157  0.00  0.00    +0.000 A 
ATOM      4  N   UNL     1       3.014   5.644  20.039  0.00  0.00    +0.000 NA
ATOM      5  O   UNL     1       3.728   4.726  19.269  0.00  0.00    +0.000 OA
ENDROOT
BRANCH   3   6
ATOM      6  C   UNL     1       1.961   7.821  19.513  0.00  0.00    +0.000 A 
ATOM      7  C   UNL     1       1.735   8.825  18.560  0.00  0.00    +0.000 A 
ATOM      8  C   UNL     1       1.053   9.994  18.907  0.00  0.00    +0.000 A 
ATOM      9  C   UNL     1       0.588  10.175  20.211  0.00  0.00    +0.000 A 
ATOM     10 CL   UNL     1      -0.237  11.649  20.573  0.00  0.00    +0.000 Cl
ATOM     11  C   UNL     1       0.801   9.178  21.169  0.00  0.00    +0.000 A 
ATOM     12 CL   UNL     1       0.252   9.333  22.801  0.00  0.00    +0.000 Cl
ATOM     13  C   UNL     1       1.483   8.008  20.819  0.00  0.00    +0.000 A 
ENDBRANCH   3   6
BRANCH   1  14
ATOM     14  C   UNL     1       4.482   4.435  16.983  0.00  0.00    +0.000 C 
BRANCH  14  15
ATOM     15  C   UNL     1       5.418   5.328  16.162  0.00  0.00    +0.000 C 
BRANCH  15  16
ATOM     16  C   UNL     1       6.538   5.974  16.984  0.00  0.00    +0.000 C 
BRANCH  16  18
ATOM     17  O   UNL     1       8.095   4.200  16.976  0.00  0.00    +0.000 OA
ATOM     18  C   UNL     1       7.356   4.931  17.715  0.00  0.00    +0.000 C 
ATOM     19  O   UNL     1       7.269   4.860  18.958  0.00  0.00    +0.000 OA
ENDBRANCH  16  18
ENDBRANCH  15  16
ENDBRANCH  14  15
ENDBRANCH   1  14
TORSDOF 5
ENDMDL
