MODEL 1
REMARK VINA RESULT:      -8.2      0.000      0.000
REMARK  Name = 
REMARK  4 active torsions:
REMARK  status: ('A' for Active; 'I' for Inactive)
REMARK    1  A    between atoms: C_1  and  C_2
REMARK    2  A    between atoms: C_7  and  C_8
REMARK    3  A    between atoms: C_8  and  N_9
REMARK    4  A    between atoms: C_14  and  C_16
REMARK                            x       y       z     vdW  Elec       q    Type
REMARK                         _______ _______ _______ _____ _____    ______ ____
ROOT
ATOM      1  N   UNL     1       3.525   4.036  19.517  0.00  0.00    +0.000 N 
ATOM      2  C   UNL     1       2.954   3.353  20.553  0.00  0.00    +0.000 A 
ATOM      3  C   UNL     1       2.113   4.247  21.176  0.00  0.00    +0.000 A 
ATOM      4  C   UNL     1       2.268   5.473  20.473  0.00  0.00    +0.000 A 
ATOM      5  N   UNL     1       1.587   6.627  20.802  0.00  0.00    +0.000 N 
ATOM      6  C   UNL     1       1.683   7.835  20.135  0.00  0.00    +0.000 C 
ATOM      7  O   UNL     1       2.431   8.094  19.197  0.00  0.00    +0.000 OA
ATOM      8  N   UNL     1       3.151   5.334  19.483  0.00  0.00    +0.000 NA
ATOM      9  H   UNL     1       0.923   6.582  21.566  0.00  0.00    +0.000 HD
ENDROOT
BRANCH   6  10
ATOM     10  C   UNL     1       0.722   8.846  20.662  0.00  0.00    +0.000 A 
ATOM     11  N   UNL     1       0.227   9.891  19.896  0.00  0.00    +0.000 NA
ATOM     12  C   UNL     1      -0.512  10.582  20.742  0.00  0.00    +0.000 A 
ATOM     13  N   UNL     1      -1.242  11.720  20.539  0.00  0.00    +0.000 NA
ATOM     14  C   UNL     1      -1.774  12.253  21.600  0.00  0.00    +0.000 A 
ATOM     15  C   UNL     1      -1.654  11.748  22.997  0.00  0.00    +0.000 A 
ATOM     16  C   UNL     1      -0.988  10.592  23.127  0.00  0.00    +0.000 A 
ATOM     17  N   UNL     1      -0.423   9.991  22.007  0.00  0.00    +0.000 N 
ATOM     18  N   UNL     1       0.302   8.861  21.939  0.00  0.00    +0.000 NA
ENDBRANCH   6  10
BRANCH   1  19
ATOM     19  C   UNL     1       4.536   3.522  18.589  0.00  0.00    +0.000 C 
BRANCH  19  26
ATOM     20  C   UNL     1       5.083   4.374  15.679  0.00  0.00    +0.000 C 
ATOM     21  C   UNL     1       5.829   4.943  16.856  0.00  0.00    +0.000 A 
ATOM     22  C   UNL     1       6.868   5.858  16.588  0.00  0.00    +0.000 A 
ATOM     23  C   UNL     1       7.638   6.397  17.616  0.00  0.00    +0.000 A 
ATOM     24  C   UNL     1       7.389   6.025  18.929  0.00  0.00    +0.000 A 
ATOM     25  C   UNL     1       6.373   5.112  19.214  0.00  0.00    +0.000 A 
ATOM     26  C   UNL     1       5.572   4.560  18.195  0.00  0.00    +0.000 A 
ENDBRANCH  19  26
ENDBRANCH   1  19
TORSDOF 3
ENDMDL
MODEL 2
REMARK VINA RESULT:      -8.2      0.611      1.230
REMARK  Name = 
REMARK  4 active torsions:
REMARK  status: ('A' for Active; 'I' for Inactive)
REMARK    1  A    between atoms: C_1  and  C_2
REMARK    2  A    between atoms: C_7  and  C_8
REMARK    3  A    between atoms: C_8  and  N_9
REMARK    4  A    between atoms: C_14  and  C_16
REMARK                            x       y       z     vdW  Elec       q    Type
REMARK                         _______ _______ _______ _____ _____    ______ ____
ROOT
ATOM      1  N   UNL     1       3.203   4.231  19.338  0.00  0.00    +0.000 N 
ATOM      2  C   UNL     1       2.729   3.580  20.441  0.00  0.00    +0.000 A 
ATOM      3  C   UNL     1       2.011   4.515  21.151  0.00  0.00    +0.000 A 
ATOM      4  C   UNL     1       2.137   5.729  20.424  0.00  0.00    +0.000 A 
ATOM      5  N   UNL     1       1.554   6.915  20.820  0.00  0.00    +0.000 N 
ATOM      6  C   UNL     1       1.624   8.115  20.135  0.00  0.00    +0.000 C 
ATOM      7  O   UNL     1       2.267   8.335  19.113  0.00  0.00    +0.000 OA
ATOM      8  N   UNL     1       2.888   5.546  19.337  0.00  0.00    +0.000 NA
ATOM      9  H   UNL     1       0.984   6.905  21.659  0.00  0.00    +0.000 HD
ENDROOT
BRANCH   6  10
ATOM     10  C   UNL     1       0.781   9.171  20.763  0.00  0.00    +0.000 A 
ATOM     11  N   UNL     1       0.428   9.161  22.105  0.00  0.00    +0.000 NA
ATOM     12  C   UNL     1      -0.368  10.205  22.232  0.00  0.00    +0.000 A 
ATOM     13  N   UNL     1      -1.015  10.683  23.338  0.00  0.00    +0.000 NA
ATOM     14  C   UNL     1      -1.841  11.666  23.134  0.00  0.00    +0.000 A 
ATOM     15  C   UNL     1      -2.149  12.305  21.823  0.00  0.00    +0.000 A 
ATOM     16  C   UNL     1      -1.434  11.844  20.787  0.00  0.00    +0.000 A 
ATOM     17  N   UNL     1      -0.531  10.804  20.978  0.00  0.00    +0.000 N 
ATOM     18  N   UNL     1       0.245  10.190  20.068  0.00  0.00    +0.000 NA
ENDBRANCH   6  10
BRANCH   1  19
ATOM     19  C   UNL     1       4.072   3.668  18.301  0.00  0.00    +0.000 C 
BRANCH  19  26
ATOM     20  C   UNL     1       5.183   4.221  15.481  0.00  0.00    +0.000 C 
ATOM     21  C   UNL     1       5.823   4.751  16.735  0.00  0.00    +0.000 A 
ATOM     22  C   UNL     1       7.024   5.477  16.596  0.00  0.00    +0.000 A 
ATOM     23  C   UNL     1       7.706   5.965  17.708  0.00  0.00    +0.000 A 
ATOM     24  C   UNL     1       7.205   5.728  18.980  0.00  0.00    +0.000 A 
ATOM     25  C   UNL     1       6.024   5.002  19.140  0.00  0.00    +0.000 A 
ATOM     26  C   UNL     1       5.309   4.507  18.032  0.00  0.00    +0.000 A 
ENDBRANCH  19  26
ENDBRANCH   1  19
TORSDOF 3
ENDMDL
MODEL 3
REMARK VINA RESULT:      -8.1      2.201      4.027
REMARK  Name = 
REMARK  4 active torsions:
REMARK  status: ('A' for Active; 'I' for Inactive)
REMARK    1  A    between atoms: C_1  and  C_2
REMARK    2  A    between atoms: C_7  and  C_8
REMARK    3  A    between atoms: C_8  and  N_9
REMARK    4  A    between atoms: C_14  and  C_16
REMARK                            x       y       z     vdW  Elec       q    Type
REMARK                         _______ _______ _______ _____ _____    ______ ____
ROOT
ATOM      1  N   UNL     1       2.885   6.909  19.104  0.00  0.00    +0.000 N 
ATOM      2  C   UNL     1       2.824   7.475  17.862  0.00  0.00    +0.000 A 
ATOM      3  C   UNL     1       2.041   8.598  17.998  0.00  0.00    +0.000 A 
ATOM      4  C   UNL     1       1.629   8.617  19.358  0.00  0.00    +0.000 A 
ATOM      5  N   UNL     1       0.819   9.597  19.893  0.00  0.00    +0.000 N 
ATOM      6  C   UNL     1       0.413   9.675  21.212  0.00  0.00    +0.000 C 
ATOM      7  O   UNL     1       0.645   8.857  22.097  0.00  0.00    +0.000 OA
ATOM      8  N   UNL     1       2.130   7.567  20.011  0.00  0.00    +0.000 NA
ATOM      9  H   UNL     1       0.530  10.356  19.285  0.00  0.00    +0.000 HD
ENDROOT
BRANCH   6  10
ATOM     10  C   UNL     1      -0.351  10.924  21.494  0.00  0.00    +0.000 A 
ATOM     11  N   UNL     1      -0.383  11.528  22.742  0.00  0.00    +0.000 NA
ATOM     12  C   UNL     1      -1.215  12.538  22.585  0.00  0.00    +0.000 A 
ATOM     13  N   UNL     1      -1.628  13.480  23.487  0.00  0.00    +0.000 NA
ATOM     14  C   UNL     1      -2.561  14.289  23.079  0.00  0.00    +0.000 A 
ATOM     15  C   UNL     1      -3.218  14.277  21.741  0.00  0.00    +0.000 A 
ATOM     16  C   UNL     1      -2.725  13.380  20.875  0.00  0.00    +0.000 A 
ATOM     17  N   UNL     1      -1.715  12.514  21.279  0.00  0.00    +0.000 N 
ATOM     18  N   UNL     1      -1.120  11.535  20.575  0.00  0.00    +0.000 NA
ENDBRANCH   6  10
BRANCH   1  19
ATOM     19  C   UNL     1       3.563   5.659  19.458  0.00  0.00    +0.000 C 
BRANCH  19  26
ATOM     20  C   UNL     1       3.943   3.823  17.014  0.00  0.00    +0.000 C 
ATOM     21  C   UNL     1       2.892   3.586  18.064  0.00  0.00    +0.000 A 
ATOM     22  C   UNL     1       2.007   2.506  17.866  0.00  0.00    +0.000 A 
ATOM     23  C   UNL     1       0.977   2.243  18.766  0.00  0.00    +0.000 A 
ATOM     24  C   UNL     1       0.807   3.061  19.875  0.00  0.00    +0.000 A 
ATOM     25  C   UNL     1       1.665   4.141  20.082  0.00  0.00    +0.000 A 
ATOM     26  C   UNL     1       2.722   4.423  19.194  0.00  0.00    +0.000 A 
ENDBRANCH  19  26
ENDBRANCH   1  19
TORSDOF 3
ENDMDL
MODEL 4
REMARK VINA RESULT:      -8.1      2.235      3.956
REMARK  Name = 
REMARK  4 active torsions:
REMARK  status: ('A' for Active; 'I' for Inactive)
REMARK    1  A    between atoms: C_1  and  C_2
REMARK    2  A    between atoms: C_7  and  C_8
REMARK    3  A    between atoms: C_8  and  N_9
REMARK    4  A    between atoms: C_14  and  C_16
REMARK                            x       y       z     vdW  Elec       q    Type
REMARK                         _______ _______ _______ _____ _____    ______ ____
ROOT
ATOM      1  N   UNL     1       2.764   6.989  19.251  0.00  0.00    +0.000 N 
ATOM      2  C   UNL     1       2.635   7.511  17.995  0.00  0.00    +0.000 A 
ATOM      3  C   UNL     1       1.854   8.636  18.134  0.00  0.00    +0.000 A 
ATOM      4  C   UNL     1       1.514   8.700  19.512  0.00  0.00    +0.000 A 
ATOM      5  N   UNL     1       0.728   9.696  20.054  0.00  0.00    +0.000 N 
ATOM      6  C   UNL     1       0.391   9.818  21.390  0.00  0.00    +0.000 C 
ATOM      7  O   UNL     1       0.674   9.031  22.289  0.00  0.00    +0.000 OA
ATOM      8  N   UNL     1       2.054   7.675  20.174  0.00  0.00    +0.000 NA
ATOM      9  H   UNL     1       0.405  10.432  19.436  0.00  0.00    +0.000 HD
ENDROOT
BRANCH   6  10
ATOM     10  C   UNL     1      -0.363  11.073  21.668  0.00  0.00    +0.000 A 
ATOM     11  N   UNL     1      -0.904  11.869  20.668  0.00  0.00    +0.000 NA
ATOM     12  C   UNL     1      -1.408  12.898  21.320  0.00  0.00    +0.000 A 
ATOM     13  N   UNL     1      -2.065  14.000  20.844  0.00  0.00    +0.000 NA
ATOM     14  C   UNL     1      -2.339  14.922  21.719  0.00  0.00    +0.000 A 
ATOM     15  C   UNL     1      -2.000  14.893  23.170  0.00  0.00    +0.000 A 
ATOM     16  C   UNL     1      -1.422  13.760  23.594  0.00  0.00    +0.000 A 
ATOM     17  N   UNL     1      -1.132  12.750  22.684  0.00  0.00    +0.000 N 
ATOM     18  N   UNL     1      -0.531  11.568  22.907  0.00  0.00    +0.000 NA
ENDBRANCH   6  10
BRANCH   1  19
ATOM     19  C   UNL     1       3.465   5.754  19.612  0.00  0.00    +0.000 C 
BRANCH  19  26
ATOM     20  C   UNL     1       3.933   4.011  17.115  0.00  0.00    +0.000 C 
ATOM     21  C   UNL     1       2.881   3.704  18.146  0.00  0.00    +0.000 A 
ATOM     22  C   UNL     1       2.037   2.600  17.906  0.00  0.00    +0.000 A 
ATOM     23  C   UNL     1       1.008   2.272  18.787  0.00  0.00    +0.000 A 
ATOM     24  C   UNL     1       0.800   3.048  19.919  0.00  0.00    +0.000 A 
ATOM     25  C   UNL     1       1.617   4.151  20.168  0.00  0.00    +0.000 A 
ATOM     26  C   UNL     1       2.671   4.498  19.300  0.00  0.00    +0.000 A 
ENDBRANCH  19  26
ENDBRANCH   1  19
TORSDOF 3
ENDMDL
MODEL 5
REMARK VINA RESULT:      -8.0      2.407      4.036
REMARK  Name = 
REMARK  4 active torsions:
REMARK  status: ('A' for Active; 'I' for Inactive)
REMARK    1  A    between atoms: C_1  and  C_2
REMARK    2  A    between atoms: C_7  and  C_8
REMARK    3  A    between atoms: C_8  and  N_9
REMARK    4  A    between atoms: C_14  and  C_16
REMARK                            x       y       z     vdW  Elec       q    Type
REMARK                         _______ _______ _______ _____ _____    ______ ____
ROOT
ATOM      1  N   UNL     1       2.930   7.021  18.886  0.00  0.00    +0.000 N 
ATOM      2  C   UNL     1       2.863   7.665  17.683  0.00  0.00    +0.000 A 
ATOM      3  C   UNL     1       2.053   8.758  17.885  0.00  0.00    +0.000 A 
ATOM      4  C   UNL     1       1.632   8.679  19.240  0.00  0.00    +0.000 A 
ATOM      5  N   UNL     1       0.795   9.603  19.830  0.00  0.00    +0.000 N 
ATOM      6  C   UNL     1       0.378   9.586  21.148  0.00  0.00    +0.000 C 
ATOM      7  O   UNL     1       0.625   8.718  21.980  0.00  0.00    +0.000 OA
ATOM      8  N   UNL     1       2.153   7.601  19.828  0.00  0.00    +0.000 NA
ATOM      9  H   UNL     1       0.492  10.393  19.269  0.00  0.00    +0.000 HD
ENDROOT
BRANCH   6  10
ATOM     10  C   UNL     1      -0.417  10.795  21.503  0.00  0.00    +0.000 A 
ATOM     11  N   UNL     1      -1.236  11.456  20.599  0.00  0.00    +0.000 NA
ATOM     12  C   UNL     1      -1.686  12.494  21.277  0.00  0.00    +0.000 A 
ATOM     13  N   UNL     1      -2.533  13.494  20.887  0.00  0.00    +0.000 NA
ATOM     14  C   UNL     1      -2.701  14.463  21.738  0.00  0.00    +0.000 A 
ATOM     15  C   UNL     1      -2.057  14.585  23.077  0.00  0.00    +0.000 A 
ATOM     16  C   UNL     1      -1.293  13.544  23.435  0.00  0.00    +0.000 A 
ATOM     17  N   UNL     1      -1.109  12.486  22.552  0.00  0.00    +0.000 N 
ATOM     18  N   UNL     1      -0.362  11.379  22.713  0.00  0.00    +0.000 NA
ENDBRANCH   6  10
BRANCH   1  19
ATOM     19  C   UNL     1       3.636   5.767  19.164  0.00  0.00    +0.000 C 
BRANCH  19  26
ATOM     20  C   UNL     1       1.485   4.300  17.516  0.00  0.00    +0.000 C 
ATOM     21  C   UNL     1       1.740   4.017  18.972  0.00  0.00    +0.000 A 
ATOM     22  C   UNL     1       0.900   3.081  19.609  0.00  0.00    +0.000 A 
ATOM     23  C   UNL     1       1.038   2.793  20.966  0.00  0.00    +0.000 A 
ATOM     24  C   UNL     1       2.012   3.444  21.711  0.00  0.00    +0.000 A 
ATOM     25  C   UNL     1       2.845   4.382  21.101  0.00  0.00    +0.000 A 
ATOM     26  C   UNL     1       2.735   4.683  19.729  0.00  0.00    +0.000 A 
ENDBRANCH  19  26
ENDBRANCH   1  19
TORSDOF 3
ENDMDL
MODEL 6
REMARK VINA RESULT:      -8.0      5.230      7.973
REMARK  Name = 
REMARK  4 active torsions:
REMARK  status: ('A' for Active; 'I' for Inactive)
REMARK    1  A    between atoms: C_1  and  C_2
REMARK    2  A    between atoms: C_7  and  C_8
REMARK    3  A    between atoms: C_8  and  N_9
REMARK    4  A    between atoms: C_14  and  C_16
REMARK                            x       y       z     vdW  Elec       q    Type
REMARK                         _______ _______ _______ _____ _____    ______ ____
ROOT
ATOM      1  N   UNL     1       5.911   5.274  17.414  0.00  0.00    +0.000 N 
ATOM      2  C   UNL     1       6.720   4.484  18.181  0.00  0.00    +0.000 A 
ATOM      3  C   UNL     1       7.703   5.313  18.670  0.00  0.00    +0.000 A 
ATOM      4  C   UNL     1       7.438   6.594  18.113  0.00  0.00    +0.000 A 
ATOM      5  N   UNL     1       8.213   7.706  18.365  0.00  0.00    +0.000 N 
ATOM      6  C   UNL     1       7.983   8.977  17.869  0.00  0.00    +0.000 C 
ATOM      7  O   UNL     1       7.104   9.303  17.078  0.00  0.00    +0.000 OA
ATOM      8  N   UNL     1       6.360   6.547  17.329  0.00  0.00    +0.000 NA
ATOM      9  H   UNL     1       8.994   7.604  19.005  0.00  0.00    +0.000 HD
ENDROOT
BRANCH   6  10
ATOM     10  C   UNL     1       8.930   9.981  18.432  0.00  0.00    +0.000 A 
ATOM     11  N   UNL     1       9.035  10.245  19.790  0.00  0.00    +0.000 NA
ATOM     12  C   UNL     1       9.910  11.229  19.856  0.00  0.00    +0.000 A 
ATOM     13  N   UNL     1      10.399  11.895  20.946  0.00  0.00    +0.000 NA
ATOM     14  C   UNL     1      11.164  12.916  20.695  0.00  0.00    +0.000 A 
ATOM     15  C   UNL     1      11.544  13.425  19.346  0.00  0.00    +0.000 A 
ATOM     16  C   UNL     1      11.095  12.693  18.317  0.00  0.00    +0.000 A 
ATOM     17  N   UNL     1      10.288  11.585  18.557  0.00  0.00    +0.000 N 
ATOM     18  N   UNL     1       9.720  10.754  17.666  0.00  0.00    +0.000 NA
ENDBRANCH   6  10
BRANCH   1  19
ATOM     19  C   UNL     1       4.750   4.836  16.636  0.00  0.00    +0.000 C 
BRANCH  19  26
ATOM     20  C   UNL     1       2.731   6.560  18.199  0.00  0.00    +0.000 C 
ATOM     21  C   UNL     1       2.714   5.056  18.217  0.00  0.00    +0.000 A 
ATOM     22  C   UNL     1       1.764   4.426  19.047  0.00  0.00    +0.000 A 
ATOM     23  C   UNL     1       1.709   3.038  19.157  0.00  0.00    +0.000 A 
ATOM     24  C   UNL     1       2.609   2.256  18.447  0.00  0.00    +0.000 A 
ATOM     25  C   UNL     1       3.565   2.861  17.630  0.00  0.00    +0.000 A 
ATOM     26  C   UNL     1       3.635   4.261  17.491  0.00  0.00    +0.000 A 
ENDBRANCH  19  26
ENDBRANCH   1  19
TORSDOF 3
ENDMDL
MODEL 7
REMARK VINA RESULT:      -7.9      0.784      1.930
REMARK  Name = 
REMARK  4 active torsions:
REMARK  status: ('A' for Active; 'I' for Inactive)
REMARK    1  A    between atoms: C_1  and  C_2
REMARK    2  A    between atoms: C_7  and  C_8
REMARK    3  A    between atoms: C_8  and  N_9
REMARK    4  A    between atoms: C_14  and  C_16
REMARK                            x       y       z     vdW  Elec       q    Type
REMARK                         _______ _______ _______ _____ _____    ______ ____
ROOT
ATOM      1  N   UNL     1       3.323   3.766  19.313  0.00  0.00    +0.000 N 
ATOM      2  C   UNL     1       2.902   3.186  20.475  0.00  0.00    +0.000 A 
ATOM      3  C   UNL     1       2.251   4.175  21.176  0.00  0.00    +0.000 A 
ATOM      4  C   UNL     1       2.361   5.346  20.378  0.00  0.00    +0.000 A 
ATOM      5  N   UNL     1       1.831   6.567  20.745  0.00  0.00    +0.000 N 
ATOM      6  C   UNL     1       1.888   7.727  19.994  0.00  0.00    +0.000 C 
ATOM      7  O   UNL     1       2.472   7.877  18.925  0.00  0.00    +0.000 OA
ATOM      8  N   UNL     1       3.039   5.087  19.260  0.00  0.00    +0.000 NA
ATOM      9  H   UNL     1       1.314   6.615  21.616  0.00  0.00    +0.000 HD
ENDROOT
BRANCH   6  10
ATOM     10  C   UNL     1       1.110   8.837  20.614  0.00  0.00    +0.000 A 
ATOM     11  N   UNL     1       0.898   8.942  21.981  0.00  0.00    +0.000 NA
ATOM     12  C   UNL     1       0.115   9.997  22.101  0.00  0.00    +0.000 A 
ATOM     13  N   UNL     1      -0.416  10.570  23.224  0.00  0.00    +0.000 NA
ATOM     14  C   UNL     1      -1.263  11.536  23.024  0.00  0.00    +0.000 A 
ATOM     15  C   UNL     1      -1.708  12.063  21.702  0.00  0.00    +0.000 A 
ATOM     16  C   UNL     1      -1.102  11.512  20.640  0.00  0.00    +0.000 A 
ATOM     17  N   UNL     1      -0.180  10.488  20.825  0.00  0.00    +0.000 N 
ATOM     18  N   UNL     1       0.501   9.796  19.895  0.00  0.00    +0.000 NA
ENDBRANCH   6  10
BRANCH   1  19
ATOM     19  C   UNL     1       4.113   3.127  18.257  0.00  0.00    +0.000 C 
BRANCH  19  26
ATOM     20  C   UNL     1       6.359   4.861  19.457  0.00  0.00    +0.000 C 
ATOM     21  C   UNL     1       5.968   4.912  18.005  0.00  0.00    +0.000 A 
ATOM     22  C   UNL     1       6.628   5.852  17.187  0.00  0.00    +0.000 A 
ATOM     23  C   UNL     1       6.296   5.996  15.841  0.00  0.00    +0.000 A 
ATOM     24  C   UNL     1       5.293   5.210  15.292  0.00  0.00    +0.000 A 
ATOM     25  C   UNL     1       4.620   4.283  16.089  0.00  0.00    +0.000 A 
ATOM     26  C   UNL     1       4.943   4.109  17.449  0.00  0.00    +0.000 A 
ENDBRANCH  19  26
ENDBRANCH   1  19
TORSDOF 3
ENDMDL
MODEL 8
REMARK VINA RESULT:      -7.9      0.562      1.526
REMARK  Name = 
REMARK  4 active torsions:
REMARK  status: ('A' for Active; 'I' for Inactive)
REMARK    1  A    between atoms: C_1  and  C_2
REMARK    2  A    between atoms: C_7  and  C_8
REMARK    3  A    between atoms: C_8  and  N_9
REMARK    4  A    between atoms: C_14  and  C_16
REMARK                            x       y       z     vdW  Elec       q    Type
REMARK                         _______ _______ _______ _____ _____    ______ ____
ROOT
ATOM      1  N   UNL     1       3.562   3.745  19.662  0.00  0.00    +0.000 N 
ATOM      2  C   UNL     1       2.965   3.112  20.716  0.00  0.00    +0.000 A 
ATOM      3  C   UNL     1       2.146   4.049  21.303  0.00  0.00    +0.000 A 
ATOM      4  C   UNL     1       2.338   5.246  20.562  0.00  0.00    +0.000 A 
ATOM      5  N   UNL     1       1.687   6.429  20.848  0.00  0.00    +0.000 N 
ATOM      6  C   UNL     1       1.820   7.611  20.143  0.00  0.00    +0.000 C 
ATOM      7  O   UNL     1       2.582   7.819  19.203  0.00  0.00    +0.000 OA
ATOM      8  N   UNL     1       3.224   5.052  19.584  0.00  0.00    +0.000 NA
ATOM      9  H   UNL     1       1.017   6.427  21.609  0.00  0.00    +0.000 HD
ENDROOT
BRANCH   6  10
ATOM     10  C   UNL     1       0.884   8.664  20.629  0.00  0.00    +0.000 A 
ATOM     11  N   UNL     1       0.469   9.731  19.845  0.00  0.00    +0.000 NA
ATOM     12  C   UNL     1      -0.273  10.454  20.659  0.00  0.00    +0.000 A 
ATOM     13  N   UNL     1      -0.942  11.624  20.426  0.00  0.00    +0.000 NA
ATOM     14  C   UNL     1      -1.494  12.181  21.464  0.00  0.00    +0.000 A 
ATOM     15  C   UNL     1      -1.457  11.672  22.865  0.00  0.00    +0.000 A 
ATOM     16  C   UNL     1      -0.850  10.488  23.021  0.00  0.00    +0.000 A 
ATOM     17  N   UNL     1      -0.265   9.861  21.926  0.00  0.00    +0.000 N 
ATOM     18  N   UNL     1       0.411   8.700  21.888  0.00  0.00    +0.000 NA
ENDBRANCH   6  10
BRANCH   1  19
ATOM     19  C   UNL     1       4.564   3.175  18.759  0.00  0.00    +0.000 C 
BRANCH  19  26
ATOM     20  C   UNL     1       6.663   5.319  19.459  0.00  0.00    +0.000 C 
ATOM     21  C   UNL     1       6.069   5.168  18.085  0.00  0.00    +0.000 A 
ATOM     22  C   UNL     1       6.455   6.104  17.104  0.00  0.00    +0.000 A 
ATOM     23  C   UNL     1       5.919   6.065  15.818  0.00  0.00    +0.000 A 
ATOM     24  C   UNL     1       4.981   5.095  15.494  0.00  0.00    +0.000 A 
ATOM     25  C   UNL     1       4.577   4.167  16.455  0.00  0.00    +0.000 A 
ATOM     26  C   UNL     1       5.111   4.177  17.758  0.00  0.00    +0.000 A 
ENDBRANCH  19  26
ENDBRANCH   1  19
TORSDOF 3
ENDMDL
MODEL 9
REMARK VINA RESULT:      -7.9      1.235      1.812
REMARK  Name = 
REMARK  4 active torsions:
REMARK  status: ('A' for Active; 'I' for Inactive)
REMARK    1  A    between atoms: C_1  and  C_2
REMARK    2  A    between atoms: C_7  and  C_8
REMARK    3  A    between atoms: C_8  and  N_9
REMARK    4  A    between atoms: C_14  and  C_16
REMARK                            x       y       z     vdW  Elec       q    Type
REMARK                         _______ _______ _______ _____ _____    ______ ____
ROOT
ATOM      1  N   UNL     1       2.945   5.469  19.118  0.00  0.00    +0.000 N 
ATOM      2  C   UNL     1       2.490   4.783  20.208  0.00  0.00    +0.000 A 
ATOM      3  C   UNL     1       1.727   5.676  20.924  0.00  0.00    +0.000 A 
ATOM      4  C   UNL     1       1.807   6.905  20.215  0.00  0.00    +0.000 A 
ATOM      5  N   UNL     1       1.171   8.060  20.622  0.00  0.00    +0.000 N 
ATOM      6  C   UNL     1       1.197   9.271  19.955  0.00  0.00    +0.000 C 
ATOM      7  O   UNL     1       1.838   9.532  18.941  0.00  0.00    +0.000 OA
ATOM      8  N   UNL     1       2.575   6.769  19.132  0.00  0.00    +0.000 NA
ATOM      9  H   UNL     1       0.596   8.013  21.455  0.00  0.00    +0.000 HD
ENDROOT
BRANCH   6  10
ATOM     10  C   UNL     1       0.305  10.282  20.589  0.00  0.00    +0.000 A 
ATOM     11  N   UNL     1       0.327  10.567  21.947  0.00  0.00    +0.000 NA
ATOM     12  C   UNL     1      -0.648  11.440  22.105  0.00  0.00    +0.000 A 
ATOM     13  N   UNL     1      -1.085  12.069  23.238  0.00  0.00    +0.000 NA
ATOM     14  C   UNL     1      -2.159  12.791  23.111  0.00  0.00    +0.000 A 
ATOM     15  C   UNL     1      -2.951  12.986  21.863  0.00  0.00    +0.000 A 
ATOM     16  C   UNL     1      -2.437  12.405  20.770  0.00  0.00    +0.000 A 
ATOM     17  N   UNL     1      -1.280  11.640  20.873  0.00  0.00    +0.000 N 
ATOM     18  N   UNL     1      -0.636  10.959  19.908  0.00  0.00    +0.000 NA
ENDBRANCH   6  10
BRANCH   1  19
ATOM     19  C   UNL     1       3.846   4.958  18.081  0.00  0.00    +0.000 C 
BRANCH  19  26
ATOM     20  C   UNL     1       5.073   6.682  15.843  0.00  0.00    +0.000 C 
ATOM     21  C   UNL     1       5.805   6.341  17.112  0.00  0.00    +0.000 A 
ATOM     22  C   UNL     1       7.138   6.784  17.234  0.00  0.00    +0.000 A 
ATOM     23  C   UNL     1       7.903   6.473  18.356  0.00  0.00    +0.000 A 
ATOM     24  C   UNL     1       7.352   5.706  19.373  0.00  0.00    +0.000 A 
ATOM     25  C   UNL     1       6.038   5.247  19.265  0.00  0.00    +0.000 A 
ATOM     26  C   UNL     1       5.240   5.556  18.147  0.00  0.00    +0.000 A 
ENDBRANCH  19  26
ENDBRANCH   1  19
TORSDOF 3
ENDMDL
