MODEL 1
REMARK VINA RESULT:      -7.7      0.000      0.000
REMARK  Name = 
REMARK  3 active torsions:
REMARK  status: ('A' for Active; 'I' for Inactive)
REMARK    1  A    between atoms: C_1  and  C_2
REMARK    2  A    between atoms: C_6  and  N_7
REMARK    3  A    between atoms: C_8  and  C_10
REMARK                            x       y       z     vdW  Elec       q    Type
REMARK                         _______ _______ _______ _____ _____    ______ ____
ROOT
ATOM      1  C   UNL     1       1.417   2.520  22.156  0.00  0.00    +0.000 C 
ATOM      2  C   UNL     1       2.103   3.080  20.976  0.00  0.00    +0.000 A 
ATOM      3  N   UNL     1       2.689   2.432  19.990  0.00  0.00    +0.000 NA
ATOM      4  C   UNL     1       3.146   3.435  19.174  0.00  0.00    +0.000 A 
ATOM      5  C   UNL     1       3.839   3.381  17.959  0.00  0.00    +0.000 A 
ATOM      6  C   UNL     1       4.187   4.580  17.316  0.00  0.00    +0.000 A 
ATOM      7  C   UNL     1       3.867   5.813  17.916  0.00  0.00    +0.000 A 
ATOM      8  C   UNL     1       3.162   5.887  19.134  0.00  0.00    +0.000 A 
ATOM      9  C   UNL     1       2.827   4.671  19.710  0.00  0.00    +0.000 A 
ATOM     10  O   UNL     1       2.148   4.450  20.877  0.00  0.00    +0.000 OA
ENDROOT
BRANCH   6  11
ATOM     11  N   UNL     1       4.857   4.597  16.072  0.00  0.00    +0.000 N 
ATOM     12  C   UNL     1       6.230   4.524  15.892  0.00  0.00    +0.000 C 
ATOM     13  O   UNL     1       7.075   4.389  16.772  0.00  0.00    +0.000 OA
ATOM     14  H   UNL     1       4.309   4.587  15.216  0.00  0.00    +0.000 HD
BRANCH  12  15
ATOM     15  C   UNL     1       6.684   4.581  14.468  0.00  0.00    +0.000 A 
ATOM     16  C   UNL     1       6.087   3.730  13.540  0.00  0.00    +0.000 A 
ATOM     17  C   UNL     1       6.513   3.786  12.219  0.00  0.00    +0.000 A 
ATOM     18  C   UNL     1       7.516   4.683  11.872  0.00  0.00    +0.000 A 
ATOM     19  C   UNL     1       8.054   5.495  12.863  0.00  0.00    +0.000 A 
ATOM     20  N   UNL     1       7.665   5.473  14.159  0.00  0.00    +0.000 NA
ENDBRANCH  12  15
ENDBRANCH   6  11
TORSDOF 2
ENDMDL
MODEL 2
REMARK VINA RESULT:      -7.0      0.760      1.170
REMARK  Name = 
REMARK  3 active torsions:
REMARK  status: ('A' for Active; 'I' for Inactive)
REMARK    1  A    between atoms: C_1  and  C_2
REMARK    2  A    between atoms: C_6  and  N_7
REMARK    3  A    between atoms: C_8  and  C_10
REMARK                            x       y       z     vdW  Elec       q    Type
REMARK                         _______ _______ _______ _____ _____    ______ ____
ROOT
ATOM      1  C   UNL     1       1.299   2.520  22.002  0.00  0.00    +0.000 C 
ATOM      2  C   UNL     1       2.087   3.018  20.857  0.00  0.00    +0.000 A 
ATOM      3  N   UNL     1       2.386   2.389  19.739  0.00  0.00    +0.000 NA
ATOM      4  C   UNL     1       3.118   3.311  19.038  0.00  0.00    +0.000 A 
ATOM      5  C   UNL     1       3.707   3.240  17.770  0.00  0.00    +0.000 A 
ATOM      6  C   UNL     1       4.409   4.352  17.277  0.00  0.00    +0.000 A 
ATOM      7  C   UNL     1       4.540   5.504  18.075  0.00  0.00    +0.000 A 
ATOM      8  C   UNL     1       3.947   5.598  19.350  0.00  0.00    +0.000 A 
ATOM      9  C   UNL     1       3.250   4.477  19.773  0.00  0.00    +0.000 A 
ATOM     10  O   UNL     1       2.580   4.296  20.952  0.00  0.00    +0.000 OA
ENDROOT
BRANCH   6  11
ATOM     11  N   UNL     1       4.998   4.358  15.993  0.00  0.00    +0.000 N 
ATOM     12  C   UNL     1       6.358   4.428  15.727  0.00  0.00    +0.000 C 
ATOM     13  O   UNL     1       7.263   4.450  16.556  0.00  0.00    +0.000 OA
ATOM     14  H   UNL     1       4.406   4.228  15.178  0.00  0.00    +0.000 HD
BRANCH  12  15
ATOM     15  C   UNL     1       6.717   4.437  14.275  0.00  0.00    +0.000 A 
ATOM     16  C   UNL     1       7.618   5.393  13.813  0.00  0.00    +0.000 A 
ATOM     17  C   UNL     1       7.948   5.397  12.464  0.00  0.00    +0.000 A 
ATOM     18  C   UNL     1       7.369   4.451  11.626  0.00  0.00    +0.000 A 
ATOM     19  C   UNL     1       6.481   3.533  12.173  0.00  0.00    +0.000 A 
ATOM     20  N   UNL     1       6.137   3.495  13.482  0.00  0.00    +0.000 NA
ENDBRANCH  12  15
ENDBRANCH   6  11
TORSDOF 2
ENDMDL
MODEL 3
REMARK VINA RESULT:      -6.7      1.862      2.591
REMARK  Name = 
REMARK  3 active torsions:
REMARK  status: ('A' for Active; 'I' for Inactive)
REMARK    1  A    between atoms: C_1  and  C_2
REMARK    2  A    between atoms: C_6  and  N_7
REMARK    3  A    between atoms: C_8  and  C_10
REMARK                            x       y       z     vdW  Elec       q    Type
REMARK                         _______ _______ _______ _____ _____    ______ ____
ROOT
ATOM      1  C   UNL     1       0.927   8.433  21.544  0.00  0.00    +0.000 C 
ATOM      2  C   UNL     1       1.688   7.697  20.516  0.00  0.00    +0.000 A 
ATOM      3  N   UNL     1       2.083   8.123  19.333  0.00  0.00    +0.000 NA
ATOM      4  C   UNL     1       2.747   7.045  18.809  0.00  0.00    +0.000 A 
ATOM      5  C   UNL     1       3.404   6.882  17.584  0.00  0.00    +0.000 A 
ATOM      6  C   UNL     1       4.020   5.653  17.295  0.00  0.00    +0.000 A 
ATOM      7  C   UNL     1       3.937   4.596  18.221  0.00  0.00    +0.000 A 
ATOM      8  C   UNL     1       3.288   4.744  19.463  0.00  0.00    +0.000 A 
ATOM      9  C   UNL     1       2.718   5.985  19.700  0.00  0.00    +0.000 A 
ATOM     10  O   UNL     1       2.036   6.401  20.811  0.00  0.00    +0.000 OA
ENDROOT
BRANCH   6  11
ATOM     11  N   UNL     1       4.728   5.433  16.093  0.00  0.00    +0.000 N 
ATOM     12  C   UNL     1       5.950   4.788  15.979  0.00  0.00    +0.000 C 
ATOM     13  O   UNL     1       6.588   4.269  16.890  0.00  0.00    +0.000 OA
ATOM     14  H   UNL     1       4.294   5.694  15.211  0.00  0.00    +0.000 HD
BRANCH  12  15
ATOM     15  C   UNL     1       6.492   4.704  14.587  0.00  0.00    +0.000 A 
ATOM     16  C   UNL     1       5.868   3.856  13.675  0.00  0.00    +0.000 A 
ATOM     17  C   UNL     1       6.376   3.781  12.385  0.00  0.00    +0.000 A 
ATOM     18  C   UNL     1       7.486   4.549  12.051  0.00  0.00    +0.000 A 
ATOM     19  C   UNL     1       8.044   5.368  13.025  0.00  0.00    +0.000 A 
ATOM     20  N   UNL     1       7.577   5.472  14.291  0.00  0.00    +0.000 NA
ENDBRANCH  12  15
ENDBRANCH   6  11
TORSDOF 2
ENDMDL
MODEL 4
REMARK VINA RESULT:      -6.5      4.075      8.090
REMARK  Name = 
REMARK  3 active torsions:
REMARK  status: ('A' for Active; 'I' for Inactive)
REMARK    1  A    between atoms: C_1  and  C_2
REMARK    2  A    between atoms: C_6  and  N_7
REMARK    3  A    between atoms: C_8  and  C_10
REMARK                            x       y       z     vdW  Elec       q    Type
REMARK                         _______ _______ _______ _____ _____    ______ ____
ROOT
ATOM      1  C   UNL     1       6.699   4.466  14.350  0.00  0.00    +0.000 C 
ATOM      2  C   UNL     1       5.748   4.986  15.352  0.00  0.00    +0.000 A 
ATOM      3  N   UNL     1       5.623   6.222  15.791  0.00  0.00    +0.000 NA
ATOM      4  C   UNL     1       4.594   6.138  16.693  0.00  0.00    +0.000 A 
ATOM      5  C   UNL     1       3.986   7.123  17.482  0.00  0.00    +0.000 A 
ATOM      6  C   UNL     1       2.928   6.762  18.331  0.00  0.00    +0.000 A 
ATOM      7  C   UNL     1       2.519   5.417  18.405  0.00  0.00    +0.000 A 
ATOM      8  C   UNL     1       3.112   4.414  17.613  0.00  0.00    +0.000 A 
ATOM      9  C   UNL     1       4.137   4.835  16.779  0.00  0.00    +0.000 A 
ATOM     10  O   UNL     1       4.878   4.082  15.909  0.00  0.00    +0.000 OA
ENDROOT
BRANCH   6  11
ATOM     11  N   UNL     1       2.250   7.711  19.129  0.00  0.00    +0.000 N 
ATOM     12  C   UNL     1       1.600   8.844  18.663  0.00  0.00    +0.000 C 
ATOM     13  O   UNL     1       1.472   9.180  17.488  0.00  0.00    +0.000 OA
ATOM     14  H   UNL     1       2.149   7.536  20.125  0.00  0.00    +0.000 HD
BRANCH  12  15
ATOM     15  C   UNL     1       0.975   9.695  19.722  0.00  0.00    +0.000 A 
ATOM     16  C   UNL     1       1.029  11.080  19.589  0.00  0.00    +0.000 A 
ATOM     17  C   UNL     1       0.448  11.865  20.576  0.00  0.00    +0.000 A 
ATOM     18  C   UNL     1      -0.165  11.243  21.657  0.00  0.00    +0.000 A 
ATOM     19  C   UNL     1      -0.174   9.854  21.708  0.00  0.00    +0.000 A 
ATOM     20  N   UNL     1       0.379   9.055  20.766  0.00  0.00    +0.000 NA
ENDBRANCH  12  15
ENDBRANCH   6  11
TORSDOF 2
ENDMDL
MODEL 5
REMARK VINA RESULT:      -6.5      1.905      7.449
REMARK  Name = 
REMARK  3 active torsions:
REMARK  status: ('A' for Active; 'I' for Inactive)
REMARK    1  A    between atoms: C_1  and  C_2
REMARK    2  A    between atoms: C_6  and  N_7
REMARK    3  A    between atoms: C_8  and  C_10
REMARK                            x       y       z     vdW  Elec       q    Type
REMARK                         _______ _______ _______ _____ _____    ______ ____
ROOT
ATOM      1  C   UNL     1       7.435   4.285  11.421  0.00  0.00    +0.000 C 
ATOM      2  C   UNL     1       6.875   4.381  12.783  0.00  0.00    +0.000 A 
ATOM      3  N   UNL     1       5.809   3.779  13.271  0.00  0.00    +0.000 NA
ATOM      4  C   UNL     1       5.761   4.216  14.569  0.00  0.00    +0.000 A 
ATOM      5  C   UNL     1       4.863   3.919  15.602  0.00  0.00    +0.000 A 
ATOM      6  C   UNL     1       5.050   4.508  16.862  0.00  0.00    +0.000 A 
ATOM      7  C   UNL     1       6.111   5.413  17.060  0.00  0.00    +0.000 A 
ATOM      8  C   UNL     1       7.029   5.718  16.036  0.00  0.00    +0.000 A 
ATOM      9  C   UNL     1       6.805   5.089  14.820  0.00  0.00    +0.000 A 
ATOM     10  O   UNL     1       7.535   5.198  13.668  0.00  0.00    +0.000 OA
ENDROOT
BRANCH   6  11
ATOM     11  N   UNL     1       4.201   4.226  17.956  0.00  0.00    +0.000 N 
ATOM     12  C   UNL     1       3.735   2.971  18.316  0.00  0.00    +0.000 C 
ATOM     13  O   UNL     1       4.018   1.905  17.776  0.00  0.00    +0.000 OA
ATOM     14  H   UNL     1       3.953   4.977  18.594  0.00  0.00    +0.000 HD
BRANCH  12  15
ATOM     15  C   UNL     1       2.832   2.950  19.508  0.00  0.00    +0.000 A 
ATOM     16  C   UNL     1       1.514   3.375  19.359  0.00  0.00    +0.000 A 
ATOM     17  C   UNL     1       0.680   3.354  20.469  0.00  0.00    +0.000 A 
ATOM     18  C   UNL     1       1.189   2.915  21.686  0.00  0.00    +0.000 A 
ATOM     19  C   UNL     1       2.517   2.508  21.743  0.00  0.00    +0.000 A 
ATOM     20  N   UNL     1       3.359   2.510  20.684  0.00  0.00    +0.000 NA
ENDBRANCH  12  15
ENDBRANCH   6  11
TORSDOF 2
ENDMDL
MODEL 6
REMARK VINA RESULT:      -6.4      3.735      4.848
REMARK  Name = 
REMARK  3 active torsions:
REMARK  status: ('A' for Active; 'I' for Inactive)
REMARK    1  A    between atoms: C_1  and  C_2
REMARK    2  A    between atoms: C_6  and  N_7
REMARK    3  A    between atoms: C_8  and  C_10
REMARK                            x       y       z     vdW  Elec       q    Type
REMARK                         _______ _______ _______ _____ _____    ______ ____
ROOT
ATOM      1  C   UNL     1      -0.569   9.947  23.172  0.00  0.00    +0.000 C 
ATOM      2  C   UNL     1       0.151   9.492  21.967  0.00  0.00    +0.000 A 
ATOM      3  N   UNL     1       0.930   8.438  21.832  0.00  0.00    +0.000 NA
ATOM      4  C   UNL     1       1.320   8.493  20.519  0.00  0.00    +0.000 A 
ATOM      5  C   UNL     1       2.142   7.640  19.772  0.00  0.00    +0.000 A 
ATOM      6  C   UNL     1       2.377   7.929  18.418  0.00  0.00    +0.000 A 
ATOM      7  C   UNL     1       1.815   9.085  17.843  0.00  0.00    +0.000 A 
ATOM      8  C   UNL     1       0.979   9.950  18.576  0.00  0.00    +0.000 A 
ATOM      9  C   UNL     1       0.767   9.601  19.902  0.00  0.00    +0.000 A 
ATOM     10  O   UNL     1       0.004  10.252  20.833  0.00  0.00    +0.000 OA
ENDROOT
BRANCH   6  11
ATOM     11  N   UNL     1       3.169   7.093  17.600  0.00  0.00    +0.000 N 
ATOM     12  C   UNL     1       4.018   6.092  18.046  0.00  0.00    +0.000 C 
ATOM     13  O   UNL     1       4.183   5.742  19.211  0.00  0.00    +0.000 OA
ATOM     14  H   UNL     1       3.074   7.159  16.590  0.00  0.00    +0.000 HD
BRANCH  12  15
ATOM     15  C   UNL     1       4.757   5.364  16.969  0.00  0.00    +0.000 A 
ATOM     16  C   UNL     1       5.247   6.088  15.884  0.00  0.00    +0.000 A 
ATOM     17  C   UNL     1       5.932   5.407  14.887  0.00  0.00    +0.000 A 
ATOM     18  C   UNL     1       6.103   4.033  15.004  0.00  0.00    +0.000 A 
ATOM     19  C   UNL     1       5.581   3.391  16.121  0.00  0.00    +0.000 A 
ATOM     20  N   UNL     1       4.911   4.019  17.115  0.00  0.00    +0.000 NA
ENDBRANCH  12  15
ENDBRANCH   6  11
TORSDOF 2
ENDMDL
MODEL 7
REMARK VINA RESULT:      -6.4      1.685      7.478
REMARK  Name = 
REMARK  3 active torsions:
REMARK  status: ('A' for Active; 'I' for Inactive)
REMARK    1  A    between atoms: C_1  and  C_2
REMARK    2  A    between atoms: C_6  and  N_7
REMARK    3  A    between atoms: C_8  and  C_10
REMARK                            x       y       z     vdW  Elec       q    Type
REMARK                         _______ _______ _______ _____ _____    ______ ____
ROOT
ATOM      1  C   UNL     1       7.736   4.741  11.660  0.00  0.00    +0.000 C 
ATOM      2  C   UNL     1       7.142   4.682  13.010  0.00  0.00    +0.000 A 
ATOM      3  N   UNL     1       6.083   4.007  13.406  0.00  0.00    +0.000 NA
ATOM      4  C   UNL     1       5.991   4.306  14.740  0.00  0.00    +0.000 A 
ATOM      5  C   UNL     1       5.079   3.881  15.713  0.00  0.00    +0.000 A 
ATOM      6  C   UNL     1       5.220   4.342  17.032  0.00  0.00    +0.000 A 
ATOM      7  C   UNL     1       6.249   5.249  17.349  0.00  0.00    +0.000 A 
ATOM      8  C   UNL     1       7.183   5.680  16.386  0.00  0.00    +0.000 A 
ATOM      9  C   UNL     1       7.005   5.174  15.107  0.00  0.00    +0.000 A 
ATOM     10  O   UNL     1       7.758   5.421  13.991  0.00  0.00    +0.000 OA
ENDROOT
BRANCH   6  11
ATOM     11  N   UNL     1       4.354   3.927  18.068  0.00  0.00    +0.000 N 
ATOM     12  C   UNL     1       3.182   4.564  18.449  0.00  0.00    +0.000 C 
ATOM     13  O   UNL     1       2.689   5.558  17.923  0.00  0.00    +0.000 OA
ATOM     14  H   UNL     1       4.540   3.049  18.545  0.00  0.00    +0.000 HD
BRANCH  12  15
ATOM     15  C   UNL     1       2.458   3.926  19.591  0.00  0.00    +0.000 A 
ATOM     16  C   UNL     1       1.275   3.237  19.334  0.00  0.00    +0.000 A 
ATOM     17  C   UNL     1       0.606   2.647  20.398  0.00  0.00    +0.000 A 
ATOM     18  C   UNL     1       1.137   2.765  21.677  0.00  0.00    +0.000 A 
ATOM     19  C   UNL     1       2.324   3.470  21.841  0.00  0.00    +0.000 A 
ATOM     20  N   UNL     1       3.006   4.056  20.830  0.00  0.00    +0.000 NA
ENDBRANCH  12  15
ENDBRANCH   6  11
TORSDOF 2
ENDMDL
MODEL 8
REMARK VINA RESULT:      -6.4      7.826      9.280
REMARK  Name = 
REMARK  3 active torsions:
REMARK  status: ('A' for Active; 'I' for Inactive)
REMARK    1  A    between atoms: C_1  and  C_2
REMARK    2  A    between atoms: C_6  and  N_7
REMARK    3  A    between atoms: C_8  and  C_10
REMARK                            x       y       z     vdW  Elec       q    Type
REMARK                         _______ _______ _______ _____ _____    ______ ____
ROOT
ATOM      1  C   UNL     1      10.028  15.558  22.671  0.00  0.00    +0.000 C 
ATOM      2  C   UNL     1       9.949  14.315  21.880  0.00  0.00    +0.000 A 
ATOM      3  N   UNL     1       9.186  13.262  22.090  0.00  0.00    +0.000 NA
ATOM      4  C   UNL     1       9.511  12.419  21.059  0.00  0.00    +0.000 A 
ATOM      5  C   UNL     1       9.026  11.148  20.729  0.00  0.00    +0.000 A 
ATOM      6  C   UNL     1       9.534  10.495  19.594  0.00  0.00    +0.000 A 
ATOM      7  C   UNL     1      10.543  11.110  18.828  0.00  0.00    +0.000 A 
ATOM      8  C   UNL     1      11.036  12.392  19.139  0.00  0.00    +0.000 A 
ATOM      9  C   UNL     1      10.482  12.995  20.258  0.00  0.00    +0.000 A 
ATOM     10  O   UNL     1      10.769  14.226  20.781  0.00  0.00    +0.000 OA
ENDROOT
BRANCH   6  11
ATOM     11  N   UNL     1       9.066   9.226  19.187  0.00  0.00    +0.000 N 
ATOM     12  C   UNL     1       8.211   8.982  18.122  0.00  0.00    +0.000 C 
ATOM     13  O   UNL     1       7.762   9.816  17.341  0.00  0.00    +0.000 OA
ATOM     14  H   UNL     1       9.427   8.396  19.648  0.00  0.00    +0.000 HD
BRANCH  12  15
ATOM     15  C   UNL     1       7.855   7.544  17.915  0.00  0.00    +0.000 A 
ATOM     16  C   UNL     1       8.148   6.628  18.923  0.00  0.00    +0.000 A 
ATOM     17  C   UNL     1       7.816   5.295  18.726  0.00  0.00    +0.000 A 
ATOM     18  C   UNL     1       7.207   4.921  17.533  0.00  0.00    +0.000 A 
ATOM     19  C   UNL     1       6.950   5.902  16.583  0.00  0.00    +0.000 A 
ATOM     20  N   UNL     1       7.255   7.211  16.739  0.00  0.00    +0.000 NA
ENDBRANCH  12  15
ENDBRANCH   6  11
TORSDOF 2
ENDMDL
MODEL 9
REMARK VINA RESULT:      -6.3      4.308      5.764
REMARK  Name = 
REMARK  3 active torsions:
REMARK  status: ('A' for Active; 'I' for Inactive)
REMARK    1  A    between atoms: C_1  and  C_2
REMARK    2  A    between atoms: C_6  and  N_7
REMARK    3  A    between atoms: C_8  and  C_10
REMARK                            x       y       z     vdW  Elec       q    Type
REMARK                         _______ _______ _______ _____ _____    ______ ____
ROOT
ATOM      1  C   UNL     1      -2.103  12.201  19.414  0.00  0.00    +0.000 C 
ATOM      2  C   UNL     1      -1.036  11.189  19.284  0.00  0.00    +0.000 A 
ATOM      3  N   UNL     1      -0.343  10.870  18.210  0.00  0.00    +0.000 NA
ATOM      4  C   UNL     1       0.505   9.890  18.656  0.00  0.00    +0.000 A 
ATOM      5  C   UNL     1       1.496   9.162  17.986  0.00  0.00    +0.000 A 
ATOM      6  C   UNL     1       2.239   8.204  18.695  0.00  0.00    +0.000 A 
ATOM      7  C   UNL     1       1.954   7.963  20.052  0.00  0.00    +0.000 A 
ATOM      8  C   UNL     1       0.967   8.691  20.746  0.00  0.00    +0.000 A 
ATOM      9  C   UNL     1       0.282   9.638  19.999  0.00  0.00    +0.000 A 
ATOM     10  O   UNL     1      -0.714  10.479  20.415  0.00  0.00    +0.000 OA
ENDROOT
BRANCH   6  11
ATOM     11  N   UNL     1       3.275   7.459  18.088  0.00  0.00    +0.000 N 
ATOM     12  C   UNL     1       3.267   6.090  17.870  0.00  0.00    +0.000 C 
ATOM     13  O   UNL     1       2.349   5.316  18.127  0.00  0.00    +0.000 OA
ATOM     14  H   UNL     1       4.075   7.952  17.701  0.00  0.00    +0.000 HD
BRANCH  12  15
ATOM     15  C   UNL     1       4.501   5.546  17.223  0.00  0.00    +0.000 A 
ATOM     16  C   UNL     1       4.424   4.329  16.549  0.00  0.00    +0.000 A 
ATOM     17  C   UNL     1       5.572   3.828  15.951  0.00  0.00    +0.000 A 
ATOM     18  C   UNL     1       6.753   4.554  16.046  0.00  0.00    +0.000 A 
ATOM     19  C   UNL     1       6.738   5.760  16.737  0.00  0.00    +0.000 A 
ATOM     20  N   UNL     1       5.640   6.283  17.331  0.00  0.00    +0.000 NA
ENDBRANCH  12  15
ENDBRANCH   6  11
TORSDOF 2
ENDMDL
