MODEL 1
REMARK VINA RESULT:      -8.1      0.000      0.000
REMARK  Name = 
REMARK  8 active torsions:
REMARK  status: ('A' for Active; 'I' for Inactive)
REMARK    1  A    between atoms: C_2  and  C_3
REMARK    2  A    between atoms: C_3  and  N_4
REMARK    3  A    between atoms: N_4  and  C_5
REMARK    4  A    between atoms: N_4  and  C_6
REMARK    5  A    between atoms: C_11  and  S_12
REMARK    6  A    between atoms: S_12  and  C_13
REMARK    7  A    between atoms: N_14  and  C_15
REMARK    8  A    between atoms: C_15  and  C_16
REMARK                            x       y       z     vdW  Elec       q    Type
REMARK                         _______ _______ _______ _____ _____    ______ ____
ROOT
ATOM      1  C   UNL     1       5.930   3.557  12.560  0.00  0.00    +0.000 A 
ATOM      2  C   UNL     1       7.111   4.305  12.454  0.00  0.00    +0.000 A 
ATOM      3  C   UNL     1       7.606   5.034  13.535  0.00  0.00    +0.000 A 
ATOM      4  C   UNL     1       6.930   5.037  14.751  0.00  0.00    +0.000 A 
ATOM      5  N   UNL     1       7.485   5.734  15.815  0.00  0.00    +0.000 NA
ATOM      6  C   UNL     1       6.899   5.689  16.965  0.00  0.00    +0.000 A 
ATOM      7  N   UNL     1       5.723   4.999  17.222  0.00  0.00    +0.000 N 
ATOM      8  C   UNL     1       5.075   4.327  16.182  0.00  0.00    +0.000 A 
ATOM      9  O   UNL     1       4.006   3.736  16.299  0.00  0.00    +0.000 OA
ATOM     10  C   UNL     1       5.747   4.326  14.868  0.00  0.00    +0.000 A 
ATOM     11  C   UNL     1       5.241   3.600  13.784  0.00  0.00    +0.000 A 
ENDROOT
BRANCH   1  12
ATOM     12  N   UNL     1       5.431   2.768  11.516  0.00  0.00    +0.000 N 
ATOM     13  C   UNL     1       6.131   1.486  11.386  0.00  0.00    +0.000 C 
BRANCH  12  14
ATOM     14  C   UNL     1       3.988   2.747  11.271  0.00  0.00    +0.000 C 
BRANCH  14  16
ATOM     15  C   UNL     1       2.926   4.171   9.480  0.00  0.00    +0.000 C 
ATOM     16  C   UNL     1       3.615   4.046  10.621  0.00  0.00    +0.000 C 
ENDBRANCH  14  16
ENDBRANCH  12  14
ENDBRANCH   1  12
BRANCH   6  17
ATOM     17  S   UNL     1       7.710   6.559  18.250  0.00  0.00    +0.000 S 
ATOM     18  C   UNL     1       7.735   8.211  17.502  0.00  0.00    +0.000 C 
ENDBRANCH   6  17
BRANCH   7  19
ATOM     19  C   UNL     1       5.075   4.932  18.542  0.00  0.00    +0.000 C 
BRANCH  19  20
ATOM     20  C   UNL     1       4.053   6.032  18.747  0.00  0.00    +0.000 A 
ATOM     21  C   UNL     1       3.154   5.979  19.822  0.00  0.00    +0.000 A 
ATOM     22  C   UNL     1       2.120   6.914  19.932  0.00  0.00    +0.000 A 
ATOM     23  C   UNL     1       1.976   7.911  18.971  0.00  0.00    +0.000 A 
ATOM     24  C   UNL     1       2.898   8.012  17.934  0.00  0.00    +0.000 A 
ATOM     25  C   UNL     1       3.941   7.091  17.836  0.00  0.00    +0.000 A 
ENDBRANCH  19  20
ENDBRANCH   7  19
TORSDOF 6
ENDMDL
MODEL 2
REMARK VINA RESULT:      -7.8      0.541      1.175
REMARK  Name = 
REMARK  8 active torsions:
REMARK  status: ('A' for Active; 'I' for Inactive)
REMARK    1  A    between atoms: C_2  and  C_3
REMARK    2  A    between atoms: C_3  and  N_4
REMARK    3  A    between atoms: N_4  and  C_5
REMARK    4  A    between atoms: N_4  and  C_6
REMARK    5  A    between atoms: C_11  and  S_12
REMARK    6  A    between atoms: S_12  and  C_13
REMARK    7  A    between atoms: N_14  and  C_15
REMARK    8  A    between atoms: C_15  and  C_16
REMARK                            x       y       z     vdW  Elec       q    Type
REMARK                         _______ _______ _______ _____ _____    ______ ____
ROOT
ATOM      1  C   UNL     1       5.983   3.561  12.500  0.00  0.00    +0.000 A 
ATOM      2  C   UNL     1       7.134   4.351  12.371  0.00  0.00    +0.000 A 
ATOM      3  C   UNL     1       7.603   5.126  13.432  0.00  0.00    +0.000 A 
ATOM      4  C   UNL     1       6.929   5.135  14.650  0.00  0.00    +0.000 A 
ATOM      5  N   UNL     1       7.458   5.881  15.693  0.00  0.00    +0.000 NA
ATOM      6  C   UNL     1       6.875   5.843  16.845  0.00  0.00    +0.000 A 
ATOM      7  N   UNL     1       5.728   5.115  17.123  0.00  0.00    +0.000 N 
ATOM      8  C   UNL     1       5.104   4.391  16.103  0.00  0.00    +0.000 A 
ATOM      9  O   UNL     1       4.059   3.763  16.237  0.00  0.00    +0.000 OA
ATOM     10  C   UNL     1       5.774   4.382  14.788  0.00  0.00    +0.000 A 
ATOM     11  C   UNL     1       5.295   3.609  13.724  0.00  0.00    +0.000 A 
ENDROOT
BRANCH   1  12
ATOM     12  N   UNL     1       5.514   2.726  11.478  0.00  0.00    +0.000 N 
ATOM     13  C   UNL     1       6.212   1.438  11.429  0.00  0.00    +0.000 C 
BRANCH  12  14
ATOM     14  C   UNL     1       4.079   2.699  11.189  0.00  0.00    +0.000 C 
BRANCH  14  16
ATOM     15  C   UNL     1       2.923   4.149   9.479  0.00  0.00    +0.000 C 
ATOM     16  C   UNL     1       3.716   4.006  10.549  0.00  0.00    +0.000 C 
ENDBRANCH  14  16
ENDBRANCH  12  14
ENDBRANCH   1  12
BRANCH   6  17
ATOM     17  S   UNL     1       7.654   6.777  18.106  0.00  0.00    +0.000 S 
ATOM     18  C   UNL     1       8.167   5.417  19.189  0.00  0.00    +0.000 C 
ENDBRANCH   6  17
BRANCH   7  19
ATOM     19  C   UNL     1       5.085   5.057  18.447  0.00  0.00    +0.000 C 
BRANCH  19  20
ATOM     20  C   UNL     1       3.937   6.038  18.581  0.00  0.00    +0.000 A 
ATOM     21  C   UNL     1       3.750   7.052  17.631  0.00  0.00    +0.000 A 
ATOM     22  C   UNL     1       2.783   8.042  17.828  0.00  0.00    +0.000 A 
ATOM     23  C   UNL     1       1.993   8.028  18.974  0.00  0.00    +0.000 A 
ATOM     24  C   UNL     1       2.126   6.993  19.895  0.00  0.00    +0.000 A 
ATOM     25  C   UNL     1       3.078   5.994  19.687  0.00  0.00    +0.000 A 
ENDBRANCH  19  20
ENDBRANCH   7  19
TORSDOF 6
ENDMDL
MODEL 3
REMARK VINA RESULT:      -7.6      4.342      7.325
REMARK  Name = 
REMARK  8 active torsions:
REMARK  status: ('A' for Active; 'I' for Inactive)
REMARK    1  A    between atoms: C_2  and  C_3
REMARK    2  A    between atoms: C_3  and  N_4
REMARK    3  A    between atoms: N_4  and  C_5
REMARK    4  A    between atoms: N_4  and  C_6
REMARK    5  A    between atoms: C_11  and  S_12
REMARK    6  A    between atoms: S_12  and  C_13
REMARK    7  A    between atoms: N_14  and  C_15
REMARK    8  A    between atoms: C_15  and  C_16
REMARK                            x       y       z     vdW  Elec       q    Type
REMARK                         _______ _______ _______ _____ _____    ______ ____
ROOT
ATOM      1  C   UNL     1       3.219   5.610  18.531  0.00  0.00    +0.000 A 
ATOM      2  C   UNL     1       2.886   5.255  19.846  0.00  0.00    +0.000 A 
ATOM      3  C   UNL     1       2.176   6.125  20.673  0.00  0.00    +0.000 A 
ATOM      4  C   UNL     1       1.782   7.376  20.207  0.00  0.00    +0.000 A 
ATOM      5  N   UNL     1       1.034   8.189  21.047  0.00  0.00    +0.000 NA
ATOM      6  C   UNL     1       0.609   9.325  20.600  0.00  0.00    +0.000 A 
ATOM      7  N   UNL     1       0.863   9.814  19.327  0.00  0.00    +0.000 N 
ATOM      8  C   UNL     1       1.663   9.077  18.450  0.00  0.00    +0.000 A 
ATOM      9  O   UNL     1       1.988   9.451  17.328  0.00  0.00    +0.000 OA
ATOM     10  C   UNL     1       2.125   7.756  18.920  0.00  0.00    +0.000 A 
ATOM     11  C   UNL     1       2.845   6.891  18.089  0.00  0.00    +0.000 A 
ENDROOT
BRANCH   1  12
ATOM     12  N   UNL     1       3.880   4.743  17.652  0.00  0.00    +0.000 N 
ATOM     13  C   UNL     1       3.069   3.581  17.279  0.00  0.00    +0.000 C 
BRANCH  12  14
ATOM     14  C   UNL     1       4.723   5.311  16.598  0.00  0.00    +0.000 C 
BRANCH  14  16
ATOM     15  C   UNL     1       6.068   4.118  14.829  0.00  0.00    +0.000 C 
ATOM     16  C   UNL     1       5.611   4.217  16.084  0.00  0.00    +0.000 C 
ENDBRANCH  14  16
ENDBRANCH  12  14
ENDBRANCH   1  12
BRANCH   6  17
ATOM     17  S   UNL     1      -0.370  10.247  21.721  0.00  0.00    +0.000 S 
ATOM     18  C   UNL     1       0.098   9.411  23.260  0.00  0.00    +0.000 C 
ENDBRANCH   6  17
BRANCH   7  19
ATOM     19  C   UNL     1       0.353  11.098  18.818  0.00  0.00    +0.000 C 
BRANCH  19  20
ATOM     20  C   UNL     1      -1.084  11.010  18.346  0.00  0.00    +0.000 A 
ATOM     21  C   UNL     1      -2.062  11.868  18.871  0.00  0.00    +0.000 A 
ATOM     22  C   UNL     1      -3.410  11.695  18.545  0.00  0.00    +0.000 A 
ATOM     23  C   UNL     1      -3.795  10.665  17.692  0.00  0.00    +0.000 A 
ATOM     24  C   UNL     1      -2.830   9.845  17.116  0.00  0.00    +0.000 A 
ATOM     25  C   UNL     1      -1.482  10.032  17.425  0.00  0.00    +0.000 A 
ENDBRANCH  19  20
ENDBRANCH   7  19
TORSDOF 6
ENDMDL
MODEL 4
REMARK VINA RESULT:      -7.6      4.449      7.537
REMARK  Name = 
REMARK  8 active torsions:
REMARK  status: ('A' for Active; 'I' for Inactive)
REMARK    1  A    between atoms: C_2  and  C_3
REMARK    2  A    between atoms: C_3  and  N_4
REMARK    3  A    between atoms: N_4  and  C_5
REMARK    4  A    between atoms: N_4  and  C_6
REMARK    5  A    between atoms: C_11  and  S_12
REMARK    6  A    between atoms: S_12  and  C_13
REMARK    7  A    between atoms: N_14  and  C_15
REMARK    8  A    between atoms: C_15  and  C_16
REMARK                            x       y       z     vdW  Elec       q    Type
REMARK                         _______ _______ _______ _____ _____    ______ ____
ROOT
ATOM      1  C   UNL     1       3.372   5.842  18.438  0.00  0.00    +0.000 A 
ATOM      2  C   UNL     1       3.061   5.451  19.748  0.00  0.00    +0.000 A 
ATOM      3  C   UNL     1       2.316   6.274  20.592  0.00  0.00    +0.000 A 
ATOM      4  C   UNL     1       1.866   7.514  20.149  0.00  0.00    +0.000 A 
ATOM      5  N   UNL     1       1.085   8.279  21.005  0.00  0.00    +0.000 NA
ATOM      6  C   UNL     1       0.609   9.402  20.579  0.00  0.00    +0.000 A 
ATOM      7  N   UNL     1       0.835   9.923  19.313  0.00  0.00    +0.000 N 
ATOM      8  C   UNL     1       1.664   9.237  18.422  0.00  0.00    +0.000 A 
ATOM      9  O   UNL     1       1.967   9.644  17.304  0.00  0.00    +0.000 OA
ATOM     10  C   UNL     1       2.185   7.930  18.867  0.00  0.00    +0.000 A 
ATOM     11  C   UNL     1       2.940   7.112  18.019  0.00  0.00    +0.000 A 
ENDROOT
BRANCH   1  12
ATOM     12  N   UNL     1       4.068   5.020  17.542  0.00  0.00    +0.000 N 
ATOM     13  C   UNL     1       4.927   5.775  16.625  0.00  0.00    +0.000 C 
BRANCH  12  14
ATOM     14  C   UNL     1       4.594   3.740  18.019  0.00  0.00    +0.000 C 
BRANCH  14  16
ATOM     15  C   UNL     1       3.086   1.762  18.439  0.00  0.00    +0.000 C 
ATOM     16  C   UNL     1       3.627   2.668  17.614  0.00  0.00    +0.000 C 
ENDBRANCH  14  16
ENDBRANCH  12  14
ENDBRANCH   1  12
BRANCH   6  17
ATOM     17  S   UNL     1      -0.405  10.261  21.719  0.00  0.00    +0.000 S 
ATOM     18  C   UNL     1       0.110   9.424  23.243  0.00  0.00    +0.000 C 
ENDBRANCH   6  17
BRANCH   7  19
ATOM     19  C   UNL     1       0.267  11.191  18.828  0.00  0.00    +0.000 C 
BRANCH  19  20
ATOM     20  C   UNL     1      -1.158  11.042  18.334  0.00  0.00    +0.000 A 
ATOM     21  C   UNL     1      -2.177  11.867  18.833  0.00  0.00    +0.000 A 
ATOM     22  C   UNL     1      -3.511  11.637  18.488  0.00  0.00    +0.000 A 
ATOM     23  C   UNL     1      -3.842  10.583  17.641  0.00  0.00    +0.000 A 
ATOM     24  C   UNL     1      -2.836   9.796  17.090  0.00  0.00    +0.000 A 
ATOM     25  C   UNL     1      -1.502  10.039  17.418  0.00  0.00    +0.000 A 
ENDBRANCH  19  20
ENDBRANCH   7  19
TORSDOF 6
ENDMDL
MODEL 5
REMARK VINA RESULT:      -7.6      4.618      7.529
REMARK  Name = 
REMARK  8 active torsions:
REMARK  status: ('A' for Active; 'I' for Inactive)
REMARK    1  A    between atoms: C_2  and  C_3
REMARK    2  A    between atoms: C_3  and  N_4
REMARK    3  A    between atoms: N_4  and  C_5
REMARK    4  A    between atoms: N_4  and  C_6
REMARK    5  A    between atoms: C_11  and  S_12
REMARK    6  A    between atoms: S_12  and  C_13
REMARK    7  A    between atoms: N_14  and  C_15
REMARK    8  A    between atoms: C_15  and  C_16
REMARK                            x       y       z     vdW  Elec       q    Type
REMARK                         _______ _______ _______ _____ _____    ______ ____
ROOT
ATOM      1  C   UNL     1       3.222   5.468  18.668  0.00  0.00    +0.000 A 
ATOM      2  C   UNL     1       2.945   5.191  20.014  0.00  0.00    +0.000 A 
ATOM      3  C   UNL     1       2.268   6.109  20.817  0.00  0.00    +0.000 A 
ATOM      4  C   UNL     1       1.853   7.330  20.295  0.00  0.00    +0.000 A 
ATOM      5  N   UNL     1       1.138   8.192  21.115  0.00  0.00    +0.000 NA
ATOM      6  C   UNL     1       0.694   9.299  20.621  0.00  0.00    +0.000 A 
ATOM      7  N   UNL     1       0.894   9.712  19.312  0.00  0.00    +0.000 N 
ATOM      8  C   UNL     1       1.658   8.925  18.447  0.00  0.00    +0.000 A 
ATOM      9  O   UNL     1       1.936   9.231  17.292  0.00  0.00    +0.000 OA
ATOM     10  C   UNL     1       2.141   7.633  18.974  0.00  0.00    +0.000 A 
ATOM     11  C   UNL     1       2.828   6.720  18.167  0.00  0.00    +0.000 A 
ENDROOT
BRANCH   1  12
ATOM     12  N   UNL     1       3.848   4.550  17.815  0.00  0.00    +0.000 N 
ATOM     13  C   UNL     1       5.137   5.030  17.308  0.00  0.00    +0.000 C 
BRANCH  12  14
ATOM     14  C   UNL     1       3.765   3.122  18.129  0.00  0.00    +0.000 C 
BRANCH  14  16
ATOM     15  C   UNL     1       1.413   2.283  18.482  0.00  0.00    +0.000 C 
ATOM     16  C   UNL     1       2.423   2.631  17.674  0.00  0.00    +0.000 C 
ENDBRANCH  14  16
ENDBRANCH  12  14
ENDBRANCH   1  12
BRANCH   6  17
ATOM     17  S   UNL     1      -0.239  10.287  21.725  0.00  0.00    +0.000 S 
ATOM     18  C   UNL     1       0.160   9.435  23.275  0.00  0.00    +0.000 C 
ENDBRANCH   6  17
BRANCH   7  19
ATOM     19  C   UNL     1       0.361  10.964  18.749  0.00  0.00    +0.000 C 
BRANCH  19  20
ATOM     20  C   UNL     1      -1.085  10.840  18.314  0.00  0.00    +0.000 A 
ATOM     21  C   UNL     1      -1.457   9.919  17.324  0.00  0.00    +0.000 A 
ATOM     22  C   UNL     1      -2.760   9.902  16.820  0.00  0.00    +0.000 A 
ATOM     23  C   UNL     1      -3.706  10.804  17.301  0.00  0.00    +0.000 A 
ATOM     24  C   UNL     1      -3.368  11.681  18.326  0.00  0.00    +0.000 A 
ATOM     25  C   UNL     1      -2.072  11.683  18.843  0.00  0.00    +0.000 A 
ENDBRANCH  19  20
ENDBRANCH   7  19
TORSDOF 6
ENDMDL
MODEL 6
REMARK VINA RESULT:      -7.3      4.691      8.606
REMARK  Name = 
REMARK  8 active torsions:
REMARK  status: ('A' for Active; 'I' for Inactive)
REMARK    1  A    between atoms: C_2  and  C_3
REMARK    2  A    between atoms: C_3  and  N_4
REMARK    3  A    between atoms: N_4  and  C_5
REMARK    4  A    between atoms: N_4  and  C_6
REMARK    5  A    between atoms: C_11  and  S_12
REMARK    6  A    between atoms: S_12  and  C_13
REMARK    7  A    between atoms: N_14  and  C_15
REMARK    8  A    between atoms: C_15  and  C_16
REMARK                            x       y       z     vdW  Elec       q    Type
REMARK                         _______ _______ _______ _____ _____    ______ ____
ROOT
ATOM      1  C   UNL     1       0.717  10.751  19.889  0.00  0.00    +0.000 A 
ATOM      2  C   UNL     1       0.318  10.149  21.091  0.00  0.00    +0.000 A 
ATOM      3  C   UNL     1       0.603   8.810  21.360  0.00  0.00    +0.000 A 
ATOM      4  C   UNL     1       1.292   8.036  20.431  0.00  0.00    +0.000 A 
ATOM      5  N   UNL     1       1.598   6.723  20.760  0.00  0.00    +0.000 NA
ATOM      6  C   UNL     1       2.293   6.017  19.931  0.00  0.00    +0.000 A 
ATOM      7  N   UNL     1       2.752   6.472  18.704  0.00  0.00    +0.000 N 
ATOM      8  C   UNL     1       2.427   7.763  18.279  0.00  0.00    +0.000 A 
ATOM      9  O   UNL     1       2.739   8.233  17.190  0.00  0.00    +0.000 OA
ATOM     10  C   UNL     1       1.671   8.605  19.226  0.00  0.00    +0.000 A 
ATOM     11  C   UNL     1       1.380   9.946  18.947  0.00  0.00    +0.000 A 
ENDROOT
BRANCH   1  12
ATOM     12  N   UNL     1       0.501  12.105  19.607  0.00  0.00    +0.000 N 
ATOM     13  C   UNL     1       1.449  12.642  18.627  0.00  0.00    +0.000 C 
BRANCH  12  14
ATOM     14  C   UNL     1      -0.875  12.598  19.516  0.00  0.00    +0.000 C 
BRANCH  14  16
ATOM     15  C   UNL     1      -2.780  11.638  18.170  0.00  0.00    +0.000 C 
ATOM     16  C   UNL     1      -1.496  11.999  18.289  0.00  0.00    +0.000 C 
ENDBRANCH  14  16
ENDBRANCH  12  14
ENDBRANCH   1  12
BRANCH   6  17
ATOM     17  S   UNL     1       2.668   4.393  20.468  0.00  0.00    +0.000 S 
ATOM     18  C   UNL     1       1.078   3.601  20.107  0.00  0.00    +0.000 C 
ENDBRANCH   6  17
BRANCH   7  19
ATOM     19  C   UNL     1       3.566   5.669  17.776  0.00  0.00    +0.000 C 
BRANCH  19  20
ATOM     20  C   UNL     1       5.052   5.908  17.946  0.00  0.00    +0.000 A 
ATOM     21  C   UNL     1       5.756   5.311  19.001  0.00  0.00    +0.000 A 
ATOM     22  C   UNL     1       7.092   5.643  19.244  0.00  0.00    +0.000 A 
ATOM     23  C   UNL     1       7.739   6.573  18.435  0.00  0.00    +0.000 A 
ATOM     24  C   UNL     1       7.071   7.126  17.347  0.00  0.00    +0.000 A 
ATOM     25  C   UNL     1       5.744   6.779  17.093  0.00  0.00    +0.000 A 
ENDBRANCH  19  20
ENDBRANCH   7  19
TORSDOF 6
ENDMDL
MODEL 7
REMARK VINA RESULT:      -7.2      4.397      7.723
REMARK  Name = 
REMARK  8 active torsions:
REMARK  status: ('A' for Active; 'I' for Inactive)
REMARK    1  A    between atoms: C_2  and  C_3
REMARK    2  A    between atoms: C_3  and  N_4
REMARK    3  A    between atoms: N_4  and  C_5
REMARK    4  A    between atoms: N_4  and  C_6
REMARK    5  A    between atoms: C_11  and  S_12
REMARK    6  A    between atoms: S_12  and  C_13
REMARK    7  A    between atoms: N_14  and  C_15
REMARK    8  A    between atoms: C_15  and  C_16
REMARK                            x       y       z     vdW  Elec       q    Type
REMARK                         _______ _______ _______ _____ _____    ______ ____
ROOT
ATOM      1  C   UNL     1       3.462   5.700  18.766  0.00  0.00    +0.000 A 
ATOM      2  C   UNL     1       3.058   5.340  20.060  0.00  0.00    +0.000 A 
ATOM      3  C   UNL     1       2.242   6.176  20.822  0.00  0.00    +0.000 A 
ATOM      4  C   UNL     1       1.810   7.396  20.310  0.00  0.00    +0.000 A 
ATOM      5  N   UNL     1       0.957   8.172  21.082  0.00  0.00    +0.000 NA
ATOM      6  C   UNL     1       0.500   9.276  20.590  0.00  0.00    +0.000 A 
ATOM      7  N   UNL     1       0.814   9.764  19.330  0.00  0.00    +0.000 N 
ATOM      8  C   UNL     1       1.716   9.067  18.523  0.00  0.00    +0.000 A 
ATOM      9  O   UNL     1       2.097   9.446  17.421  0.00  0.00    +0.000 OA
ATOM     10  C   UNL     1       2.220   7.781  19.044  0.00  0.00    +0.000 A 
ATOM     11  C   UNL     1       3.046   6.950  18.279  0.00  0.00    +0.000 A 
ENDROOT
BRANCH   1  12
ATOM     12  N   UNL     1       4.233   4.864  17.949  0.00  0.00    +0.000 N 
ATOM     13  C   UNL     1       4.426   5.404  16.600  0.00  0.00    +0.000 C 
BRANCH  12  14
ATOM     14  C   UNL     1       5.375   4.159  18.535  0.00  0.00    +0.000 C 
BRANCH  14  16
ATOM     15  C   UNL     1       7.599   5.340  18.379  0.00  0.00    +0.000 C 
ATOM     16  C   UNL     1       6.391   5.189  18.936  0.00  0.00    +0.000 C 
ENDBRANCH  14  16
ENDBRANCH  12  14
ENDBRANCH   1  12
BRANCH   6  17
ATOM     17  S   UNL     1      -0.608  10.151  21.625  0.00  0.00    +0.000 S 
ATOM     18  C   UNL     1      -0.052   9.521  23.232  0.00  0.00    +0.000 C 
ENDBRANCH   6  17
BRANCH   7  19
ATOM     19  C   UNL     1       0.268  11.010  18.767  0.00  0.00    +0.000 C 
BRANCH  19  20
ATOM     20  C   UNL     1      -1.151  10.849  18.259  0.00  0.00    +0.000 A 
ATOM     21  C   UNL     1      -1.453   9.895  17.276  0.00  0.00    +0.000 A 
ATOM     22  C   UNL     1      -2.727   9.841  16.704  0.00  0.00    +0.000 A 
ATOM     23  C   UNL     1      -3.713  10.738  17.109  0.00  0.00    +0.000 A 
ATOM     24  C   UNL     1      -3.445  11.648  18.127  0.00  0.00    +0.000 A 
ATOM     25  C   UNL     1      -2.179  11.687  18.712  0.00  0.00    +0.000 A 
ENDBRANCH  19  20
ENDBRANCH   7  19
TORSDOF 6
ENDMDL
MODEL 8
REMARK VINA RESULT:      -7.2      4.580      8.914
REMARK  Name = 
REMARK  8 active torsions:
REMARK  status: ('A' for Active; 'I' for Inactive)
REMARK    1  A    between atoms: C_2  and  C_3
REMARK    2  A    between atoms: C_3  and  N_4
REMARK    3  A    between atoms: N_4  and  C_5
REMARK    4  A    between atoms: N_4  and  C_6
REMARK    5  A    between atoms: C_11  and  S_12
REMARK    6  A    between atoms: S_12  and  C_13
REMARK    7  A    between atoms: N_14  and  C_15
REMARK    8  A    between atoms: C_15  and  C_16
REMARK                            x       y       z     vdW  Elec       q    Type
REMARK                         _______ _______ _______ _____ _____    ______ ____
ROOT
ATOM      1  C   UNL     1       0.669   9.987  20.353  0.00  0.00    +0.000 A 
ATOM      2  C   UNL     1       0.292   9.193  21.445  0.00  0.00    +0.000 A 
ATOM      3  C   UNL     1       0.682   7.858  21.539  0.00  0.00    +0.000 A 
ATOM      4  C   UNL     1       1.459   7.279  20.540  0.00  0.00    +0.000 A 
ATOM      5  N   UNL     1       1.867   5.962  20.699  0.00  0.00    +0.000 NA
ATOM      6  C   UNL     1       2.642   5.437  19.809  0.00  0.00    +0.000 A 
ATOM      7  N   UNL     1       3.093   6.094  18.673  0.00  0.00    +0.000 N 
ATOM      8  C   UNL     1       2.670   7.401  18.416  0.00  0.00    +0.000 A 
ATOM      9  O   UNL     1       2.970   8.042  17.414  0.00  0.00    +0.000 OA
ATOM     10  C   UNL     1       1.820   8.039  19.440  0.00  0.00    +0.000 A 
ATOM     11  C   UNL     1       1.424   9.377  19.336  0.00  0.00    +0.000 A 
ENDROOT
BRANCH   1  12
ATOM     12  N   UNL     1       0.346  11.346  20.250  0.00  0.00    +0.000 N 
ATOM     13  C   UNL     1       1.121  12.041  19.218  0.00  0.00    +0.000 C 
BRANCH  12  14
ATOM     14  C   UNL     1      -1.053  11.753  20.395  0.00  0.00    +0.000 C 
BRANCH  14  16
ATOM     15  C   UNL     1      -1.386  12.143  22.865  0.00  0.00    +0.000 C 
ATOM     16  C   UNL     1      -1.157  12.601  21.628  0.00  0.00    +0.000 C 
ENDBRANCH  14  16
ENDBRANCH  12  14
ENDBRANCH   1  12
BRANCH   6  17
ATOM     17  S   UNL     1       3.141   3.790  20.133  0.00  0.00    +0.000 S 
ATOM     18  C   UNL     1       2.033   3.427  21.522  0.00  0.00    +0.000 C 
ENDBRANCH   6  17
BRANCH   7  19
ATOM     19  C   UNL     1       3.997   5.496  17.676  0.00  0.00    +0.000 C 
BRANCH  19  20
ATOM     20  C   UNL     1       5.447   5.874  17.901  0.00  0.00    +0.000 A 
ATOM     21  C   UNL     1       6.176   5.313  18.960  0.00  0.00    +0.000 A 
ATOM     22  C   UNL     1       7.464   5.767  19.256  0.00  0.00    +0.000 A 
ATOM     23  C   UNL     1       8.039   6.782  18.497  0.00  0.00    +0.000 A 
ATOM     24  C   UNL     1       7.352   7.304  17.406  0.00  0.00    +0.000 A 
ATOM     25  C   UNL     1       6.074   6.837  17.098  0.00  0.00    +0.000 A 
ENDBRANCH  19  20
ENDBRANCH   7  19
TORSDOF 6
ENDMDL
MODEL 9
REMARK VINA RESULT:      -7.1      4.153      6.929
REMARK  Name = 
REMARK  8 active torsions:
REMARK  status: ('A' for Active; 'I' for Inactive)
REMARK    1  A    between atoms: C_2  and  C_3
REMARK    2  A    between atoms: C_3  and  N_4
REMARK    3  A    between atoms: N_4  and  C_5
REMARK    4  A    between atoms: N_4  and  C_6
REMARK    5  A    between atoms: C_11  and  S_12
REMARK    6  A    between atoms: S_12  and  C_13
REMARK    7  A    between atoms: N_14  and  C_15
REMARK    8  A    between atoms: C_15  and  C_16
REMARK                            x       y       z     vdW  Elec       q    Type
REMARK                         _______ _______ _______ _____ _____    ______ ____
ROOT
ATOM      1  C   UNL     1       4.007   6.201  17.680  0.00  0.00    +0.000 A 
ATOM      2  C   UNL     1       3.736   5.495  18.861  0.00  0.00    +0.000 A 
ATOM      3  C   UNL     1       2.897   6.021  19.843  0.00  0.00    +0.000 A 
ATOM      4  C   UNL     1       2.310   7.271  19.672  0.00  0.00    +0.000 A 
ATOM      5  N   UNL     1       1.442   7.734  20.651  0.00  0.00    +0.000 NA
ATOM      6  C   UNL     1       0.843   8.864  20.471  0.00  0.00    +0.000 A 
ATOM      7  N   UNL     1       1.015   9.677  19.359  0.00  0.00    +0.000 N 
ATOM      8  C   UNL     1       1.921   9.304  18.364  0.00  0.00    +0.000 A 
ATOM      9  O   UNL     1       2.182   9.981  17.374  0.00  0.00    +0.000 OA
ATOM     10  C   UNL     1       2.587   7.997  18.524  0.00  0.00    +0.000 A 
ATOM     11  C   UNL     1       3.434   7.477  17.540  0.00  0.00    +0.000 A 
ENDROOT
BRANCH   1  12
ATOM     12  N   UNL     1       4.797   5.683  16.646  0.00  0.00    +0.000 N 
ATOM     13  C   UNL     1       6.096   6.353  16.530  0.00  0.00    +0.000 C 
BRANCH  12  14
ATOM     14  C   UNL     1       4.788   4.239  16.405  0.00  0.00    +0.000 C 
BRANCH  14  16
ATOM     15  C   UNL     1       5.726   4.018  14.074  0.00  0.00    +0.000 C 
ATOM     16  C   UNL     1       5.863   3.935  15.404  0.00  0.00    +0.000 C 
ENDBRANCH  14  16
ENDBRANCH  12  14
ENDBRANCH   1  12
BRANCH   6  17
ATOM     17  S   UNL     1      -0.269   9.329  21.741  0.00  0.00    +0.000 S 
ATOM     18  C   UNL     1       0.890   9.361  23.135  0.00  0.00    +0.000 C 
ENDBRANCH   6  17
BRANCH   7  19
ATOM     19  C   UNL     1       0.307  10.951  19.150  0.00  0.00    +0.000 C 
BRANCH  19  20
ATOM     20  C   UNL     1      -1.066  10.763  18.539  0.00  0.00    +0.000 A 
ATOM     21  C   UNL     1      -1.269   9.829  17.512  0.00  0.00    +0.000 A 
ATOM     22  C   UNL     1      -2.498   9.755  16.850  0.00  0.00    +0.000 A 
ATOM     23  C   UNL     1      -3.537  10.610  17.208  0.00  0.00    +0.000 A 
ATOM     24  C   UNL     1      -3.369  11.498  18.266  0.00  0.00    +0.000 A 
ATOM     25  C   UNL     1      -2.149  11.558  18.940  0.00  0.00    +0.000 A 
ENDBRANCH  19  20
ENDBRANCH   7  19
TORSDOF 6
ENDMDL
