MODEL 1
REMARK VINA RESULT:      -7.4      0.000      0.000
REMARK  Name = 
REMARK  10 active torsions:
REMARK  status: ('A' for Active; 'I' for Inactive)
REMARK    1  A    between atoms: C_1  and  C_2
REMARK    2  A    between atoms: C_2  and  C_3
REMARK    3  A    between atoms: C_2  and  C_4
REMARK    4  A    between atoms: C_4  and  C_5
REMARK    5  A    between atoms: C_5  and  C_6
REMARK    6  A    between atoms: C_6  and  C_7
REMARK    7  A    between atoms: C_7  and  C_8
REMARK    8  A    between atoms: C_7  and  C_9
REMARK    9  A    between atoms: C_18  and  O_19
REMARK   10  A    between atoms: C_26  and  C_27
REMARK                            x       y       z     vdW  Elec       q    Type
REMARK                         _______ _______ _______ _____ _____    ______ ____
ROOT
ATOM      1  C   UNL     1       0.832  11.072  19.510  0.00  0.00    +0.000 C 
ATOM      2  C   UNL     1      -0.039  10.703  20.748  0.00  0.00    +0.000 C 
ATOM      3  C   UNL     1       0.180   9.203  21.027  0.00  0.00    +0.000 C 
ATOM      4  C   UNL     1       1.331   8.821  20.109  0.00  0.00    +0.000 C 
ATOM      5  C   UNL     1       1.548   7.345  19.758  0.00  0.00    +0.000 C 
ATOM      6  C   UNL     1       1.710   6.444  20.981  0.00  0.00    +0.000 C 
ATOM      7  C   UNL     1       1.766   4.981  20.537  0.00  0.00    +0.000 C 
ATOM      8  C   UNL     1       2.647   4.726  19.333  0.00  0.00    +0.000 A 
ATOM      9  C   UNL     1       2.937   3.392  18.998  0.00  0.00    +0.000 A 
ATOM     10  C   UNL     1       3.717   3.105  17.878  0.00  0.00    +0.000 A 
ATOM     11  C   UNL     1       4.220   4.125  17.089  0.00  0.00    +0.000 A 
ATOM     12  C   UNL     1       3.933   5.449  17.413  0.00  0.00    +0.000 A 
ATOM     13  C   UNL     1       3.123   5.771  18.519  0.00  0.00    +0.000 A 
ATOM     14  C   UNL     1       2.824   7.222  18.874  0.00  0.00    +0.000 C 
ATOM     15  C   UNL     1       2.742   8.150  17.648  0.00  0.00    +0.000 C 
ATOM     16  C   UNL     1       2.383   9.591  18.007  0.00  0.00    +0.000 C 
ATOM     17  C   UNL     1       1.097   9.688  18.845  0.00  0.00    +0.000 C 
ATOM     18  C   UNL     1      -0.135   9.240  18.012  0.00  0.00    +0.000 C 
ENDROOT
BRANCH   1  19
ATOM     19  C   UNL     1       0.206  12.179  18.616  0.00  0.00    +0.000 C 
ATOM     20  C   UNL     1       1.173  13.353  18.398  0.00  0.00    +0.000 C 
BRANCH  19  21
ATOM     21  C   UNL     1      -1.131  12.701  19.195  0.00  0.00    +0.000 C 
BRANCH  21  22
ATOM     22  C   UNL     1      -2.320  11.909  18.639  0.00  0.00    +0.000 C 
BRANCH  22  23
ATOM     23  C   UNL     1      -2.280  11.735  17.129  0.00  0.00    +0.000 C 
BRANCH  23  25
ATOM     24  C   UNL     1      -2.879  10.114  15.319  0.00  0.00    +0.000 C 
ATOM     25  C   UNL     1      -3.339  10.726  16.639  0.00  0.00    +0.000 C 
ATOM     26  C   UNL     1      -3.627   9.613  17.655  0.00  0.00    +0.000 C 
ENDBRANCH  23  25
ENDBRANCH  22  23
ENDBRANCH  21  22
ENDBRANCH  19  21
ENDBRANCH   1  19
BRANCH  10  27
ATOM     27  O   UNL     1       4.013   1.825  17.524  0.00  0.00    +0.000 OA
ATOM     28  H   UNL     1       3.606   1.642  16.661  0.00  0.00    +0.000 HD
ENDBRANCH  10  27
TORSDOF 6
ENDMDL
MODEL 2
REMARK VINA RESULT:      -7.4      3.429      8.242
REMARK  Name = 
REMARK  10 active torsions:
REMARK  status: ('A' for Active; 'I' for Inactive)
REMARK    1  A    between atoms: C_1  and  C_2
REMARK    2  A    between atoms: C_2  and  C_3
REMARK    3  A    between atoms: C_2  and  C_4
REMARK    4  A    between atoms: C_4  and  C_5
REMARK    5  A    between atoms: C_5  and  C_6
REMARK    6  A    between atoms: C_6  and  C_7
REMARK    7  A    between atoms: C_7  and  C_8
REMARK    8  A    between atoms: C_7  and  C_9
REMARK    9  A    between atoms: C_18  and  O_19
REMARK   10  A    between atoms: C_26  and  C_27
REMARK                            x       y       z     vdW  Elec       q    Type
REMARK                         _______ _______ _______ _____ _____    ______ ____
ROOT
ATOM      1  C   UNL     1       5.134   4.152  17.192  0.00  0.00    +0.000 C 
ATOM      2  C   UNL     1       4.903   3.233  18.429  0.00  0.00    +0.000 C 
ATOM      3  C   UNL     1       3.960   3.988  19.386  0.00  0.00    +0.000 C 
ATOM      4  C   UNL     1       3.495   5.189  18.575  0.00  0.00    +0.000 C 
ATOM      5  C   UNL     1       2.917   6.405  19.305  0.00  0.00    +0.000 C 
ATOM      6  C   UNL     1       1.736   6.068  20.213  0.00  0.00    +0.000 C 
ATOM      7  C   UNL     1       1.330   7.309  21.011  0.00  0.00    +0.000 C 
ATOM      8  C   UNL     1       1.272   8.584  20.198  0.00  0.00    +0.000 A 
ATOM      9  C   UNL     1       0.693   9.719  20.790  0.00  0.00    +0.000 A 
ATOM     10  C   UNL     1       0.646  10.926  20.093  0.00  0.00    +0.000 A 
ATOM     11  C   UNL     1       1.160  11.020  18.812  0.00  0.00    +0.000 A 
ATOM     12  C   UNL     1       1.739   9.901  18.220  0.00  0.00    +0.000 A 
ATOM     13  C   UNL     1       1.830   8.675  18.909  0.00  0.00    +0.000 A 
ATOM     14  C   UNL     1       2.453   7.452  18.250  0.00  0.00    +0.000 C 
ATOM     15  C   UNL     1       3.591   7.794  17.270  0.00  0.00    +0.000 C 
ATOM     16  C   UNL     1       4.251   6.559  16.659  0.00  0.00    +0.000 C 
ATOM     17  C   UNL     1       4.737   5.561  17.725  0.00  0.00    +0.000 C 
ATOM     18  C   UNL     1       5.894   6.172  18.560  0.00  0.00    +0.000 C 
ENDROOT
BRANCH   1  19
ATOM     19  C   UNL     1       6.548   4.005  16.563  0.00  0.00    +0.000 C 
ATOM     20  C   UNL     1       7.642   4.578  17.476  0.00  0.00    +0.000 C 
BRANCH  19  21
ATOM     21  C   UNL     1       6.630   4.667  15.166  0.00  0.00    +0.000 C 
BRANCH  21  22
ATOM     22  C   UNL     1       5.601   4.060  14.206  0.00  0.00    +0.000 C 
BRANCH  22  23
ATOM     23  C   UNL     1       6.164   3.752  12.828  0.00  0.00    +0.000 C 
BRANCH  23  25
ATOM     24  C   UNL     1       4.318   3.400  11.175  0.00  0.00    +0.000 C 
ATOM     25  C   UNL     1       5.321   2.696  12.085  0.00  0.00    +0.000 C 
ATOM     26  C   UNL     1       6.168   1.716  11.264  0.00  0.00    +0.000 C 
ENDBRANCH  23  25
ENDBRANCH  22  23
ENDBRANCH  21  22
ENDBRANCH  19  21
ENDBRANCH   1  19
BRANCH  10  27
ATOM     27  O   UNL     1       0.096  12.044  20.640  0.00  0.00    +0.000 OA
ATOM     28  H   UNL     1       0.535  12.221  21.487  0.00  0.00    +0.000 HD
ENDBRANCH  10  27
TORSDOF 6
ENDMDL
MODEL 3
REMARK VINA RESULT:      -7.1      1.202      1.356
REMARK  Name = 
REMARK  10 active torsions:
REMARK  status: ('A' for Active; 'I' for Inactive)
REMARK    1  A    between atoms: C_1  and  C_2
REMARK    2  A    between atoms: C_2  and  C_3
REMARK    3  A    between atoms: C_2  and  C_4
REMARK    4  A    between atoms: C_4  and  C_5
REMARK    5  A    between atoms: C_5  and  C_6
REMARK    6  A    between atoms: C_6  and  C_7
REMARK    7  A    between atoms: C_7  and  C_8
REMARK    8  A    between atoms: C_7  and  C_9
REMARK    9  A    between atoms: C_18  and  O_19
REMARK   10  A    between atoms: C_26  and  C_27
REMARK                            x       y       z     vdW  Elec       q    Type
REMARK                         _______ _______ _______ _____ _____    ______ ____
ROOT
ATOM      1  C   UNL     1       0.145  11.352  19.657  0.00  0.00    +0.000 C 
ATOM      2  C   UNL     1      -0.646  10.817  20.888  0.00  0.00    +0.000 C 
ATOM      3  C   UNL     1      -0.219   9.352  21.101  0.00  0.00    +0.000 C 
ATOM      4  C   UNL     1       0.959   9.169  20.154  0.00  0.00    +0.000 C 
ATOM      5  C   UNL     1       1.371   7.754  19.739  0.00  0.00    +0.000 C 
ATOM      6  C   UNL     1       1.676   6.835  20.921  0.00  0.00    +0.000 C 
ATOM      7  C   UNL     1       1.925   5.413  20.415  0.00  0.00    +0.000 C 
ATOM      8  C   UNL     1       2.812   5.330  19.192  0.00  0.00    +0.000 A 
ATOM      9  C   UNL     1       3.277   4.064  18.798  0.00  0.00    +0.000 A 
ATOM     10  C   UNL     1       4.071   3.933  17.658  0.00  0.00    +0.000 A 
ATOM     11  C   UNL     1       4.415   5.043  16.908  0.00  0.00    +0.000 A 
ATOM     12  C   UNL     1       3.955   6.301  17.290  0.00  0.00    +0.000 A 
ATOM     13  C   UNL     1       3.126   6.463  18.418  0.00  0.00    +0.000 A 
ATOM     14  C   UNL     1       2.637   7.843  18.837  0.00  0.00    +0.000 C 
ATOM     15  C   UNL     1       2.407   8.800  17.652  0.00  0.00    +0.000 C 
ATOM     16  C   UNL     1       1.859  10.162  18.076  0.00  0.00    +0.000 C 
ATOM     17  C   UNL     1       0.586  10.046  18.931  0.00  0.00    +0.000 C 
ATOM     18  C   UNL     1      -0.586   9.467  18.094  0.00  0.00    +0.000 C 
ENDROOT
BRANCH   1  19
ATOM     19  C   UNL     1      -0.642  12.397  18.817  0.00  0.00    +0.000 C 
ATOM     20  C   UNL     1       0.153  13.699  18.633  0.00  0.00    +0.000 C 
BRANCH  19  21
ATOM     21  C   UNL     1      -2.026  12.711  19.436  0.00  0.00    +0.000 C 
BRANCH  21  22
ATOM     22  C   UNL     1      -3.115  11.815  18.834  0.00  0.00    +0.000 C 
BRANCH  22  23
ATOM     23  C   UNL     1      -4.525  12.228  19.226  0.00  0.00    +0.000 C 
BRANCH  23  25
ATOM     24  C   UNL     1      -4.788  11.603  16.816  0.00  0.00    +0.000 C 
ATOM     25  C   UNL     1      -5.540  11.947  18.099  0.00  0.00    +0.000 C 
ATOM     26  C   UNL     1      -6.524  10.821  18.440  0.00  0.00    +0.000 C 
ENDBRANCH  23  25
ENDBRANCH  22  23
ENDBRANCH  21  22
ENDBRANCH  19  21
ENDBRANCH   1  19
BRANCH  10  27
ATOM     27  O   UNL     1       4.534   2.721  17.247  0.00  0.00    +0.000 OA
ATOM     28  H   UNL     1       4.673   2.163  18.030  0.00  0.00    +0.000 HD
ENDBRANCH  10  27
TORSDOF 6
ENDMDL
MODEL 4
REMARK VINA RESULT:      -6.9      1.639      2.568
REMARK  Name = 
REMARK  10 active torsions:
REMARK  status: ('A' for Active; 'I' for Inactive)
REMARK    1  A    between atoms: C_1  and  C_2
REMARK    2  A    between atoms: C_2  and  C_3
REMARK    3  A    between atoms: C_2  and  C_4
REMARK    4  A    between atoms: C_4  and  C_5
REMARK    5  A    between atoms: C_5  and  C_6
REMARK    6  A    between atoms: C_6  and  C_7
REMARK    7  A    between atoms: C_7  and  C_8
REMARK    8  A    between atoms: C_7  and  C_9
REMARK    9  A    between atoms: C_18  and  O_19
REMARK   10  A    between atoms: C_26  and  C_27
REMARK                            x       y       z     vdW  Elec       q    Type
REMARK                         _______ _______ _______ _____ _____    ______ ____
ROOT
ATOM      1  C   UNL     1       0.253  11.360  19.819  0.00  0.00    +0.000 C 
ATOM      2  C   UNL     1      -0.542  10.814  21.043  0.00  0.00    +0.000 C 
ATOM      3  C   UNL     1      -0.146   9.335  21.219  0.00  0.00    +0.000 C 
ATOM      4  C   UNL     1       1.022   9.149  20.261  0.00  0.00    +0.000 C 
ATOM      5  C   UNL     1       1.399   7.734  19.811  0.00  0.00    +0.000 C 
ATOM      6  C   UNL     1       1.691   6.782  20.969  0.00  0.00    +0.000 C 
ATOM      7  C   UNL     1       1.906   5.367  20.429  0.00  0.00    +0.000 C 
ATOM      8  C   UNL     1       2.783   5.293  19.198  0.00  0.00    +0.000 A 
ATOM      9  C   UNL     1       3.218   4.027  18.772  0.00  0.00    +0.000 A 
ATOM     10  C   UNL     1       4.001   3.904  17.624  0.00  0.00    +0.000 A 
ATOM     11  C   UNL     1       4.365   5.023  16.897  0.00  0.00    +0.000 A 
ATOM     12  C   UNL     1       3.935   6.282  17.311  0.00  0.00    +0.000 A 
ATOM     13  C   UNL     1       3.117   6.436  18.448  0.00  0.00    +0.000 A 
ATOM     14  C   UNL     1       2.661   7.817  18.902  0.00  0.00    +0.000 C 
ATOM     15  C   UNL     1       2.445   8.805  17.741  0.00  0.00    +0.000 C 
ATOM     16  C   UNL     1       1.930  10.169  18.199  0.00  0.00    +0.000 C 
ATOM     17  C   UNL     1       0.661  10.061  19.061  0.00  0.00    +0.000 C 
ATOM     18  C   UNL     1      -0.529   9.527  18.218  0.00  0.00    +0.000 C 
ENDROOT
BRANCH   1  19
ATOM     19  C   UNL     1      -0.517  12.441  19.009  0.00  0.00    +0.000 C 
ATOM     20  C   UNL     1       0.311  13.724  18.838  0.00  0.00    +0.000 C 
BRANCH  19  21
ATOM     21  C   UNL     1      -1.883  12.781  19.652  0.00  0.00    +0.000 C 
BRANCH  21  22
ATOM     22  C   UNL     1      -1.822  14.116  20.403  0.00  0.00    +0.000 C 
BRANCH  22  23
ATOM     23  C   UNL     1      -2.489  14.074  21.769  0.00  0.00    +0.000 C 
BRANCH  23  25
ATOM     24  C   UNL     1      -3.055  12.228  23.362  0.00  0.00    +0.000 C 
ATOM     25  C   UNL     1      -3.316  12.787  21.965  0.00  0.00    +0.000 C 
ATOM     26  C   UNL     1      -4.822  13.001  21.765  0.00  0.00    +0.000 C 
ENDBRANCH  23  25
ENDBRANCH  22  23
ENDBRANCH  21  22
ENDBRANCH  19  21
ENDBRANCH   1  19
BRANCH  10  27
ATOM     27  O   UNL     1       4.434   2.692  17.183  0.00  0.00    +0.000 OA
ATOM     28  H   UNL     1       5.388   2.625  17.353  0.00  0.00    +0.000 HD
ENDBRANCH  10  27
TORSDOF 6
ENDMDL
MODEL 5
REMARK VINA RESULT:      -6.9      0.876      1.231
REMARK  Name = 
REMARK  10 active torsions:
REMARK  status: ('A' for Active; 'I' for Inactive)
REMARK    1  A    between atoms: C_1  and  C_2
REMARK    2  A    between atoms: C_2  and  C_3
REMARK    3  A    between atoms: C_2  and  C_4
REMARK    4  A    between atoms: C_4  and  C_5
REMARK    5  A    between atoms: C_5  and  C_6
REMARK    6  A    between atoms: C_6  and  C_7
REMARK    7  A    between atoms: C_7  and  C_8
REMARK    8  A    between atoms: C_7  and  C_9
REMARK    9  A    between atoms: C_18  and  O_19
REMARK   10  A    between atoms: C_26  and  C_27
REMARK                            x       y       z     vdW  Elec       q    Type
REMARK                         _______ _______ _______ _____ _____    ______ ____
ROOT
ATOM      1  C   UNL     1       1.008  11.054  19.406  0.00  0.00    +0.000 C 
ATOM      2  C   UNL     1       0.084  10.741  20.620  0.00  0.00    +0.000 C 
ATOM      3  C   UNL     1       0.230   9.238  20.927  0.00  0.00    +0.000 C 
ATOM      4  C   UNL     1       1.393   8.793  20.052  0.00  0.00    +0.000 C 
ATOM      5  C   UNL     1       1.559   7.305  19.730  0.00  0.00    +0.000 C 
ATOM      6  C   UNL     1       1.643   6.417  20.969  0.00  0.00    +0.000 C 
ATOM      7  C   UNL     1       1.652   4.946  20.548  0.00  0.00    +0.000 C 
ATOM      8  C   UNL     1       2.559   4.636  19.378  0.00  0.00    +0.000 A 
ATOM      9  C   UNL     1       2.803   3.286  19.071  0.00  0.00    +0.000 A 
ATOM     10  C   UNL     1       3.606   2.950  17.981  0.00  0.00    +0.000 A 
ATOM     11  C   UNL     1       4.176   3.935  17.195  0.00  0.00    +0.000 A 
ATOM     12  C   UNL     1       3.935   5.274  17.491  0.00  0.00    +0.000 A 
ATOM     13  C   UNL     1       3.104   5.648  18.565  0.00  0.00    +0.000 A 
ATOM     14  C   UNL     1       2.856   7.115  18.889  0.00  0.00    +0.000 C 
ATOM     15  C   UNL     1       2.852   8.026  17.648  0.00  0.00    +0.000 C 
ATOM     16  C   UNL     1       2.543   9.487  17.975  0.00  0.00    +0.000 C 
ATOM     17  C   UNL     1       1.236   9.649  18.770  0.00  0.00    +0.000 C 
ATOM     18  C   UNL     1       0.014   9.241  17.903  0.00  0.00    +0.000 C 
ENDROOT
BRANCH   1  19
ATOM     19  C   UNL     1       0.458  12.172  18.476  0.00  0.00    +0.000 C 
ATOM     20  C   UNL     1       1.370  13.409  18.467  0.00  0.00    +0.000 C 
BRANCH  19  21
ATOM     21  C   UNL     1      -0.982  12.586  18.861  0.00  0.00    +0.000 C 
BRANCH  21  22
ATOM     22  C   UNL     1      -1.999  12.055  17.844  0.00  0.00    +0.000 C 
BRANCH  22  23
ATOM     23  C   UNL     1      -3.083  11.188  18.465  0.00  0.00    +0.000 C 
BRANCH  23  25
ATOM     24  C   UNL     1      -5.551  10.959  18.121  0.00  0.00    +0.000 C 
ATOM     25  C   UNL     1      -4.438  11.921  18.528  0.00  0.00    +0.000 C 
ATOM     26  C   UNL     1      -4.742  12.510  19.912  0.00  0.00    +0.000 C 
ENDBRANCH  23  25
ENDBRANCH  22  23
ENDBRANCH  21  22
ENDBRANCH  19  21
ENDBRANCH   1  19
BRANCH  10  27
ATOM     27  O   UNL     1       3.859   1.653  17.656  0.00  0.00    +0.000 OA
ATOM     28  H   UNL     1       3.371   1.438  16.843  0.00  0.00    +0.000 HD
ENDBRANCH  10  27
TORSDOF 6
ENDMDL
MODEL 6
REMARK VINA RESULT:      -6.9      3.444      7.869
REMARK  Name = 
REMARK  10 active torsions:
REMARK  status: ('A' for Active; 'I' for Inactive)
REMARK    1  A    between atoms: C_1  and  C_2
REMARK    2  A    between atoms: C_2  and  C_3
REMARK    3  A    between atoms: C_2  and  C_4
REMARK    4  A    between atoms: C_4  and  C_5
REMARK    5  A    between atoms: C_5  and  C_6
REMARK    6  A    between atoms: C_6  and  C_7
REMARK    7  A    between atoms: C_7  and  C_8
REMARK    8  A    between atoms: C_7  and  C_9
REMARK    9  A    between atoms: C_18  and  O_19
REMARK   10  A    between atoms: C_26  and  C_27
REMARK                            x       y       z     vdW  Elec       q    Type
REMARK                         _______ _______ _______ _____ _____    ______ ____
ROOT
ATOM      1  C   UNL     1       2.513   4.378  18.748  0.00  0.00    +0.000 C 
ATOM      2  C   UNL     1       2.136   3.946  20.196  0.00  0.00    +0.000 C 
ATOM      3  C   UNL     1       1.702   5.218  20.951  0.00  0.00    +0.000 C 
ATOM      4  C   UNL     1       1.615   6.281  19.864  0.00  0.00    +0.000 C 
ATOM      5  C   UNL     1       1.657   7.759  20.261  0.00  0.00    +0.000 C 
ATOM      6  C   UNL     1       0.583   8.151  21.275  0.00  0.00    +0.000 C 
ATOM      7  C   UNL     1       0.802   9.597  21.722  0.00  0.00    +0.000 C 
ATOM      8  C   UNL     1       1.114  10.560  20.597  0.00  0.00    +0.000 A 
ATOM      9  C   UNL     1       1.104  11.935  20.883  0.00  0.00    +0.000 A 
ATOM     10  C   UNL     1       1.417  12.860  19.886  0.00  0.00    +0.000 A 
ATOM     11  C   UNL     1       1.734  12.438  18.608  0.00  0.00    +0.000 A 
ATOM     12  C   UNL     1       1.750  11.076  18.318  0.00  0.00    +0.000 A 
ATOM     13  C   UNL     1       1.469  10.115  19.309  0.00  0.00    +0.000 A 
ATOM     14  C   UNL     1       1.476   8.628  18.981  0.00  0.00    +0.000 C 
ATOM     15  C   UNL     1       2.501   8.242  17.899  0.00  0.00    +0.000 C 
ATOM     16  C   UNL     1       2.544   6.740  17.619  0.00  0.00    +0.000 C 
ATOM     17  C   UNL     1       2.765   5.908  18.894  0.00  0.00    +0.000 C 
ATOM     18  C   UNL     1       4.177   6.173  19.483  0.00  0.00    +0.000 C 
ENDROOT
BRANCH   1  19
ATOM     19  C   UNL     1       3.656   3.529  18.123  0.00  0.00    +0.000 C 
ATOM     20  C   UNL     1       4.812   3.310  19.112  0.00  0.00    +0.000 C 
BRANCH  19  21
ATOM     21  C   UNL     1       4.196   4.159  16.817  0.00  0.00    +0.000 C 
BRANCH  21  22
ATOM     22  C   UNL     1       5.712   4.375  16.895  0.00  0.00    +0.000 C 
BRANCH  22  23
ATOM     23  C   UNL     1       6.152   5.757  16.438  0.00  0.00    +0.000 C 
BRANCH  23  25
ATOM     24  C   UNL     1       7.284   7.736  17.469  0.00  0.00    +0.000 C 
ATOM     25  C   UNL     1       7.406   6.240  17.195  0.00  0.00    +0.000 C 
ATOM     26  C   UNL     1       7.642   5.489  18.512  0.00  0.00    +0.000 C 
ENDBRANCH  23  25
ENDBRANCH  22  23
ENDBRANCH  21  22
ENDBRANCH  19  21
ENDBRANCH   1  19
BRANCH  10  27
ATOM     27  O   UNL     1       1.420  14.199  20.132  0.00  0.00    +0.000 OA
ATOM     28  H   UNL     1       2.211  14.586  19.722  0.00  0.00    +0.000 HD
ENDBRANCH  10  27
TORSDOF 6
ENDMDL
MODEL 7
REMARK VINA RESULT:      -6.7      1.517      2.772
REMARK  Name = 
REMARK  10 active torsions:
REMARK  status: ('A' for Active; 'I' for Inactive)
REMARK    1  A    between atoms: C_1  and  C_2
REMARK    2  A    between atoms: C_2  and  C_3
REMARK    3  A    between atoms: C_2  and  C_4
REMARK    4  A    between atoms: C_4  and  C_5
REMARK    5  A    between atoms: C_5  and  C_6
REMARK    6  A    between atoms: C_6  and  C_7
REMARK    7  A    between atoms: C_7  and  C_8
REMARK    8  A    between atoms: C_7  and  C_9
REMARK    9  A    between atoms: C_18  and  O_19
REMARK   10  A    between atoms: C_26  and  C_27
REMARK                            x       y       z     vdW  Elec       q    Type
REMARK                         _______ _______ _______ _____ _____    ______ ____
ROOT
ATOM      1  C   UNL     1       1.092  11.327  19.518  0.00  0.00    +0.000 C 
ATOM      2  C   UNL     1       0.232  11.108  20.799  0.00  0.00    +0.000 C 
ATOM      3  C   UNL     1       0.270   9.601  21.119  0.00  0.00    +0.000 C 
ATOM      4  C   UNL     1       1.325   9.048  20.173  0.00  0.00    +0.000 C 
ATOM      5  C   UNL     1       1.339   7.548  19.864  0.00  0.00    +0.000 C 
ATOM      6  C   UNL     1       1.434   6.669  21.109  0.00  0.00    +0.000 C 
ATOM      7  C   UNL     1       1.286   5.199  20.712  0.00  0.00    +0.000 C 
ATOM      8  C   UNL     1       2.078   4.799  19.487  0.00  0.00    +0.000 A 
ATOM      9  C   UNL     1       2.183   3.430  19.186  0.00  0.00    +0.000 A 
ATOM     10  C   UNL     1       2.875   3.014  18.048  0.00  0.00    +0.000 A 
ATOM     11  C   UNL     1       3.470   3.937  17.209  0.00  0.00    +0.000 A 
ATOM     12  C   UNL     1       3.367   5.296  17.498  0.00  0.00    +0.000 A 
ATOM     13  C   UNL     1       2.649   5.751  18.622  0.00  0.00    +0.000 A 
ATOM     14  C   UNL     1       2.552   7.237  18.938  0.00  0.00    +0.000 C 
ATOM     15  C   UNL     1       2.539   8.133  17.686  0.00  0.00    +0.000 C 
ATOM     16  C   UNL     1       2.381   9.618  18.010  0.00  0.00    +0.000 C 
ATOM     17  C   UNL     1       1.152   9.902  18.891  0.00  0.00    +0.000 C 
ATOM     18  C   UNL     1      -0.159   9.593  18.118  0.00  0.00    +0.000 C 
ENDROOT
BRANCH   1  19
ATOM     19  C   UNL     1       0.576  12.479  18.611  0.00  0.00    +0.000 C 
ATOM     20  C   UNL     1       1.688  13.488  18.280  0.00  0.00    +0.000 C 
BRANCH  19  21
ATOM     21  C   UNL     1      -0.629  13.216  19.243  0.00  0.00    +0.000 C 
BRANCH  21  22
ATOM     22  C   UNL     1      -0.305  14.695  19.485  0.00  0.00    +0.000 C 
BRANCH  22  23
ATOM     23  C   UNL     1      -0.636  15.166  20.893  0.00  0.00    +0.000 C 
BRANCH  23  25
ATOM     24  C   UNL     1      -0.992  13.853  22.994  0.00  0.00    +0.000 C 
ATOM     25  C   UNL     1      -1.574  14.183  21.622  0.00  0.00    +0.000 C 
ATOM     26  C   UNL     1      -3.003  14.718  21.780  0.00  0.00    +0.000 C 
ENDBRANCH  23  25
ENDBRANCH  22  23
ENDBRANCH  21  22
ENDBRANCH  19  21
ENDBRANCH   1  19
BRANCH  10  27
ATOM     27  O   UNL     1       2.991   1.696  17.727  0.00  0.00    +0.000 OA
ATOM     28  H   UNL     1       3.623   1.284  18.337  0.00  0.00    +0.000 HD
ENDBRANCH  10  27
TORSDOF 6
ENDMDL
MODEL 8
REMARK VINA RESULT:      -6.7      1.489      2.231
REMARK  Name = 
REMARK  10 active torsions:
REMARK  status: ('A' for Active; 'I' for Inactive)
REMARK    1  A    between atoms: C_1  and  C_2
REMARK    2  A    between atoms: C_2  and  C_3
REMARK    3  A    between atoms: C_2  and  C_4
REMARK    4  A    between atoms: C_4  and  C_5
REMARK    5  A    between atoms: C_5  and  C_6
REMARK    6  A    between atoms: C_6  and  C_7
REMARK    7  A    between atoms: C_7  and  C_8
REMARK    8  A    between atoms: C_7  and  C_9
REMARK    9  A    between atoms: C_18  and  O_19
REMARK   10  A    between atoms: C_26  and  C_27
REMARK                            x       y       z     vdW  Elec       q    Type
REMARK                         _______ _______ _______ _____ _____    ______ ____
ROOT
ATOM      1  C   UNL     1       0.381  11.341  19.723  0.00  0.00    +0.000 C 
ATOM      2  C   UNL     1      -0.433  10.852  20.958  0.00  0.00    +0.000 C 
ATOM      3  C   UNL     1      -0.084   9.367  21.174  0.00  0.00    +0.000 C 
ATOM      4  C   UNL     1       1.079   9.119  20.224  0.00  0.00    +0.000 C 
ATOM      5  C   UNL     1       1.413   7.682  19.813  0.00  0.00    +0.000 C 
ATOM      6  C   UNL     1       1.673   6.752  20.996  0.00  0.00    +0.000 C 
ATOM      7  C   UNL     1       1.844   5.317  20.494  0.00  0.00    +0.000 C 
ATOM      8  C   UNL     1       2.721   5.184  19.268  0.00  0.00    +0.000 A 
ATOM      9  C   UNL     1       3.117   3.894  18.876  0.00  0.00    +0.000 A 
ATOM     10  C   UNL     1       3.898   3.717  17.734  0.00  0.00    +0.000 A 
ATOM     11  C   UNL     1       4.298   4.804  16.979  0.00  0.00    +0.000 A 
ATOM     12  C   UNL     1       3.907   6.086  17.359  0.00  0.00    +0.000 A 
ATOM     13  C   UNL     1       3.092   6.296  18.489  0.00  0.00    +0.000 A 
ATOM     14  C   UNL     1       2.679   7.701  18.905  0.00  0.00    +0.000 C 
ATOM     15  C   UNL     1       2.496   8.665  17.718  0.00  0.00    +0.000 C 
ATOM     16  C   UNL     1       2.023  10.056  18.140  0.00  0.00    +0.000 C 
ATOM     17  C   UNL     1       0.749  10.010  19.000  0.00  0.00    +0.000 C 
ATOM     18  C   UNL     1      -0.455   9.492  18.168  0.00  0.00    +0.000 C 
ENDROOT
BRANCH   1  19
ATOM     19  C   UNL     1      -0.353  12.424  18.883  0.00  0.00    +0.000 C 
ATOM     20  C   UNL     1       0.564  13.613  18.557  0.00  0.00    +0.000 C 
BRANCH  19  21
ATOM     21  C   UNL     1      -1.636  12.928  19.585  0.00  0.00    +0.000 C 
BRANCH  21  22
ATOM     22  C   UNL     1      -2.858  12.107  19.158  0.00  0.00    +0.000 C 
BRANCH  22  23
ATOM     23  C   UNL     1      -4.158  12.580  19.790  0.00  0.00    +0.000 C 
BRANCH  23  25
ATOM     24  C   UNL     1      -4.950  14.575  21.076  0.00  0.00    +0.000 C 
ATOM     25  C   UNL     1      -3.907  13.462  21.029  0.00  0.00    +0.000 C 
ATOM     26  C   UNL     1      -3.930  12.674  22.346  0.00  0.00    +0.000 C 
ENDBRANCH  23  25
ENDBRANCH  22  23
ENDBRANCH  21  22
ENDBRANCH  19  21
ENDBRANCH   1  19
BRANCH  10  27
ATOM     27  O   UNL     1       4.294   2.481  17.326  0.00  0.00    +0.000 OA
ATOM     28  H   UNL     1       3.528   1.884  17.360  0.00  0.00    +0.000 HD
ENDBRANCH  10  27
TORSDOF 6
ENDMDL
MODEL 9
REMARK VINA RESULT:      -6.7      1.094      1.377
REMARK  Name = 
REMARK  10 active torsions:
REMARK  status: ('A' for Active; 'I' for Inactive)
REMARK    1  A    between atoms: C_1  and  C_2
REMARK    2  A    between atoms: C_2  and  C_3
REMARK    3  A    between atoms: C_2  and  C_4
REMARK    4  A    between atoms: C_4  and  C_5
REMARK    5  A    between atoms: C_5  and  C_6
REMARK    6  A    between atoms: C_6  and  C_7
REMARK    7  A    between atoms: C_7  and  C_8
REMARK    8  A    between atoms: C_7  and  C_9
REMARK    9  A    between atoms: C_18  and  O_19
REMARK   10  A    between atoms: C_26  and  C_27
REMARK                            x       y       z     vdW  Elec       q    Type
REMARK                         _______ _______ _______ _____ _____    ______ ____
ROOT
ATOM      1  C   UNL     1       0.743  10.446  19.776  0.00  0.00    +0.000 C 
ATOM      2  C   UNL     1       0.009   9.609  20.866  0.00  0.00    +0.000 C 
ATOM      3  C   UNL     1       0.555   8.171  20.779  0.00  0.00    +0.000 C 
ATOM      4  C   UNL     1       1.735   8.280  19.825  0.00  0.00    +0.000 C 
ATOM      5  C   UNL     1       2.256   7.017  19.133  0.00  0.00    +0.000 C 
ATOM      6  C   UNL     1       2.644   5.904  20.105  0.00  0.00    +0.000 C 
ATOM      7  C   UNL     1       3.003   4.640  19.322  0.00  0.00    +0.000 C 
ATOM      8  C   UNL     1       3.882   4.880  18.115  0.00  0.00    +0.000 A 
ATOM      9  C   UNL     1       4.444   3.762  17.474  0.00  0.00    +0.000 A 
ATOM     10  C   UNL     1       5.236   3.930  16.338  0.00  0.00    +0.000 A 
ATOM     11  C   UNL     1       5.482   5.194  15.832  0.00  0.00    +0.000 A 
ATOM     12  C   UNL     1       4.926   6.306  16.459  0.00  0.00    +0.000 A 
ATOM     13  C   UNL     1       4.097   6.168  17.590  0.00  0.00    +0.000 A 
ATOM     14  C   UNL     1       3.502   7.390  18.277  0.00  0.00    +0.000 C 
ATOM     15  C   UNL     1       3.185   8.546  17.310  0.00  0.00    +0.000 C 
ATOM     16  C   UNL     1       2.534   9.745  17.999  0.00  0.00    +0.000 C 
ATOM     17  C   UNL     1       1.282   9.354  18.803  0.00  0.00    +0.000 C 
ATOM     18  C   UNL     1       0.153   8.865  17.856  0.00  0.00    +0.000 C 
ENDROOT
BRANCH   1  19
ATOM     19  C   UNL     1      -0.133  11.573  19.161  0.00  0.00    +0.000 C 
ATOM     20  C   UNL     1       0.592  12.928  19.164  0.00  0.00    +0.000 C 
BRANCH  19  21
ATOM     21  C   UNL     1      -1.495  11.706  19.885  0.00  0.00    +0.000 C 
BRANCH  21  22
ATOM     22  C   UNL     1      -2.658  11.427  18.927  0.00  0.00    +0.000 C 
BRANCH  22  23
ATOM     23  C   UNL     1      -2.212  11.074  17.517  0.00  0.00    +0.000 C 
BRANCH  23  25
ATOM     24  C   UNL     1      -3.312  10.284  15.412  0.00  0.00    +0.000 C 
ATOM     25  C   UNL     1      -3.307  11.380  16.475  0.00  0.00    +0.000 C 
ATOM     26  C   UNL     1      -4.706  11.512  17.090  0.00  0.00    +0.000 C 
ENDBRANCH  23  25
ENDBRANCH  22  23
ENDBRANCH  21  22
ENDBRANCH  19  21
ENDBRANCH   1  19
BRANCH  10  27
ATOM     27  O   UNL     1       5.791   2.869  15.692  0.00  0.00    +0.000 OA
ATOM     28  H   UNL     1       6.588   2.596  16.176  0.00  0.00    +0.000 HD
ENDBRANCH  10  27
TORSDOF 6
ENDMDL
