MODEL 1
REMARK VINA RESULT:      -6.0      0.000      0.000
REMARK  Name = 
REMARK  7 active torsions:
REMARK  status: ('A' for Active; 'I' for Inactive)
REMARK    1  A    between atoms: C_1  and  O_2
REMARK    2  A    between atoms: O_2  and  C_3
REMARK    3  A    between atoms: N_14  and  C_15
REMARK    4  A    between atoms: C_22  and  O_23
REMARK    5  A    between atoms: C_22  and  O_25
REMARK    6  A    between atoms: O_23  and  C_24
REMARK    7  A    between atoms: O_25  and  C_26
REMARK                            x       y       z     vdW  Elec       q    Type
REMARK                         _______ _______ _______ _____ _____    ______ ____
ROOT
ATOM      1  C   UNL     1       9.857  11.561  19.068  0.00  0.00    +0.000 A 
ATOM      2  C   UNL     1      10.521  11.450  17.829  0.00  0.00    +0.000 A 
ATOM      3  C   UNL     1      11.040  12.572  17.148  0.00  0.00    +0.000 A 
ATOM      4  C   UNL     1      10.925  13.837  17.715  0.00  0.00    +0.000 A 
ATOM      5  C   UNL     1      10.311  13.906  18.971  0.00  0.00    +0.000 A 
ATOM      6  C   UNL     1       9.735  12.826  19.609  0.00  0.00    +0.000 A 
ATOM      7  O   UNL     1       8.938  13.203  20.661  0.00  0.00    +0.000 OA
ATOM      8  C   UNL     1       8.873  14.664  20.645  0.00  0.00    +0.000 C 
ATOM      9  C   UNL     1       9.900  15.198  19.601  0.00  0.00    +0.000 C 
ATOM     10  C   UNL     1      11.141  15.852  20.242  0.00  0.00    +0.000 C 
ATOM     11  C   UNL     1      11.286  17.282  19.747  0.00  0.00    +0.000 C 
ATOM     12  N   UNL     1      11.474  17.277  18.295  0.00  0.00    +0.000 NA
ATOM     13  C   UNL     1      11.607  18.631  17.774  0.00  0.00    +0.000 C 
ATOM     14  C   UNL     1      10.519  16.435  17.533  0.00  0.00    +0.000 C 
ATOM     15  C   UNL     1      11.247  15.138  16.974  0.00  0.00    +0.000 C 
ATOM     16  C   UNL     1       9.363  15.944  18.380  0.00  0.00    +0.000 C 
ATOM     17  C   UNL     1       8.083  15.798  17.986  0.00  0.00    +0.000 C 
ATOM     18  C   UNL     1       7.163  14.935  18.830  0.00  0.00    +0.000 C 
ATOM     19  I   UNL     1       5.124  14.994  18.136  0.00  0.00    +0.000 I 
ATOM     20  C   UNL     1       7.423  15.220  20.351  0.00  0.00    +0.000 C 
ENDROOT
BRANCH   1  22
ATOM     21  C   UNL     1       8.715   9.530  18.613  0.00  0.00    +0.000 C 
ATOM     22  O   UNL     1       9.344  10.392  19.554  0.00  0.00    +0.000 OA
ENDBRANCH   1  22
BRANCH  20  23
ATOM     23  O   UNL     1       6.414  14.592  21.156  0.00  0.00    +0.000 OA
ATOM     24  C   UNL     1       5.436  15.465  21.701  0.00  0.00    +0.000 C 
ENDBRANCH  20  23
BRANCH  20  25
ATOM     25  O   UNL     1       7.528  16.636  20.664  0.00  0.00    +0.000 OA
ATOM     26  C   UNL     1       8.148  16.981  21.889  0.00  0.00    +0.000 C 
ENDBRANCH  20  25
TORSDOF 3
ENDMDL
MODEL 2
REMARK VINA RESULT:      -5.9      8.022     10.778
REMARK  Name = 
REMARK  7 active torsions:
REMARK  status: ('A' for Active; 'I' for Inactive)
REMARK    1  A    between atoms: C_1  and  O_2
REMARK    2  A    between atoms: O_2  and  C_3
REMARK    3  A    between atoms: N_14  and  C_15
REMARK    4  A    between atoms: C_22  and  O_23
REMARK    5  A    between atoms: C_22  and  O_25
REMARK    6  A    between atoms: O_23  and  C_24
REMARK    7  A    between atoms: O_25  and  C_26
REMARK                            x       y       z     vdW  Elec       q    Type
REMARK                         _______ _______ _______ _____ _____    ______ ____
ROOT
ATOM      1  C   UNL     1       0.934   9.254  20.149  0.00  0.00    +0.000 A 
ATOM      2  C   UNL     1       0.759   8.690  21.429  0.00  0.00    +0.000 A 
ATOM      3  C   UNL     1      -0.063   9.286  22.410  0.00  0.00    +0.000 A 
ATOM      4  C   UNL     1      -0.754  10.456  22.113  0.00  0.00    +0.000 A 
ATOM      5  C   UNL     1      -0.602  10.960  20.816  0.00  0.00    +0.000 A 
ATOM      6  C   UNL     1       0.257  10.427  19.876  0.00  0.00    +0.000 A 
ATOM      7  O   UNL     1       0.455  11.269  18.810  0.00  0.00    +0.000 OA
ATOM      8  C   UNL     1      -0.227  12.523  19.126  0.00  0.00    +0.000 C 
ATOM      9  C   UNL     1      -1.077  12.320  20.415  0.00  0.00    +0.000 C 
ATOM     10  C   UNL     1      -2.595  12.252  20.144  0.00  0.00    +0.000 C 
ATOM     11  C   UNL     1      -3.311  13.325  20.948  0.00  0.00    +0.000 C 
ATOM     12  N   UNL     1      -3.094  13.087  22.377  0.00  0.00    +0.000 NA
ATOM     13  C   UNL     1      -3.757  14.100  23.189  0.00  0.00    +0.000 C 
ATOM     14  C   UNL     1      -1.687  12.831  22.773  0.00  0.00    +0.000 C 
ATOM     15  C   UNL     1      -1.489  11.303  23.157  0.00  0.00    +0.000 C 
ATOM     16  C   UNL     1      -0.701  13.124  21.660  0.00  0.00    +0.000 C 
ATOM     17  C   UNL     1       0.527  13.658  21.795  0.00  0.00    +0.000 C 
ATOM     18  C   UNL     1       1.507  13.511  20.645  0.00  0.00    +0.000 C 
ATOM     19  I   UNL     1       3.335  14.602  20.985  0.00  0.00    +0.000 I 
ATOM     20  C   UNL     1       0.762  13.747  19.285  0.00  0.00    +0.000 C 
ENDROOT
BRANCH   1  22
ATOM     21  C   UNL     1       2.223   7.297  19.764  0.00  0.00    +0.000 C 
ATOM     22  O   UNL     1       1.824   8.599  19.347  0.00  0.00    +0.000 OA
ENDBRANCH   1  22
BRANCH  20  23
ATOM     23  O   UNL     1       1.706  13.841  18.207  0.00  0.00    +0.000 OA
ATOM     24  C   UNL     1       2.640  12.775  18.120  0.00  0.00    +0.000 C 
ENDBRANCH  20  23
BRANCH  20  25
ATOM     25  O   UNL     1      -0.121  14.902  19.301  0.00  0.00    +0.000 OA
ATOM     26  C   UNL     1       0.350  16.083  18.679  0.00  0.00    +0.000 C 
ENDBRANCH  20  25
TORSDOF 3
ENDMDL
MODEL 3
REMARK VINA RESULT:      -5.8      7.388     11.126
REMARK  Name = 
REMARK  7 active torsions:
REMARK  status: ('A' for Active; 'I' for Inactive)
REMARK    1  A    between atoms: C_1  and  O_2
REMARK    2  A    between atoms: O_2  and  C_3
REMARK    3  A    between atoms: N_14  and  C_15
REMARK    4  A    between atoms: C_22  and  O_23
REMARK    5  A    between atoms: C_22  and  O_25
REMARK    6  A    between atoms: O_23  and  C_24
REMARK    7  A    between atoms: O_25  and  C_26
REMARK                            x       y       z     vdW  Elec       q    Type
REMARK                         _______ _______ _______ _____ _____    ______ ____
ROOT
ATOM      1  C   UNL     1      -1.326  14.131  23.401  0.00  0.00    +0.000 A 
ATOM      2  C   UNL     1      -2.723  14.102  23.213  0.00  0.00    +0.000 A 
ATOM      3  C   UNL     1      -3.323  13.461  22.108  0.00  0.00    +0.000 A 
ATOM      4  C   UNL     1      -2.526  12.805  21.175  0.00  0.00    +0.000 A 
ATOM      5  C   UNL     1      -1.148  12.804  21.421  0.00  0.00    +0.000 A 
ATOM      6  C   UNL     1      -0.547  13.491  22.456  0.00  0.00    +0.000 A 
ATOM      7  O   UNL     1       0.813  13.587  22.301  0.00  0.00    +0.000 OA
ATOM      8  C   UNL     1       1.133  13.030  20.988  0.00  0.00    +0.000 C 
ATOM      9  C   UNL     1      -0.145  12.356  20.405  0.00  0.00    +0.000 C 
ATOM     10  C   UNL     1      -0.085  10.815  20.416  0.00  0.00    +0.000 C 
ATOM     11  C   UNL     1      -0.279  10.281  19.006  0.00  0.00    +0.000 C 
ATOM     12  N   UNL     1      -1.598  10.680  18.512  0.00  0.00    +0.000 NA
ATOM     13  C   UNL     1      -1.824  10.196  17.156  0.00  0.00    +0.000 C 
ATOM     14  C   UNL     1      -1.941  12.111  18.700  0.00  0.00    +0.000 C 
ATOM     15  C   UNL     1      -3.042  12.272  19.835  0.00  0.00    +0.000 C 
ATOM     16  C   UNL     1      -0.755  12.948  19.134  0.00  0.00    +0.000 C 
ATOM     17  C   UNL     1      -0.483  14.212  18.758  0.00  0.00    +0.000 C 
ATOM     18  C   UNL     1       0.506  15.013  19.585  0.00  0.00    +0.000 C 
ATOM     19  I   UNL     1       0.945  16.929  18.703  0.00  0.00    +0.000 I 
ATOM     20  C   UNL     1       1.720  14.100  19.982  0.00  0.00    +0.000 C 
ENDROOT
BRANCH   1  22
ATOM     21  C   UNL     1      -1.911  15.347  25.354  0.00  0.00    +0.000 C 
ATOM     22  O   UNL     1      -0.903  14.861  24.474  0.00  0.00    +0.000 OA
ENDBRANCH   1  22
BRANCH  20  23
ATOM     23  O   UNL     1       2.769  14.889  20.563  0.00  0.00    +0.000 OA
ATOM     24  C   UNL     1       3.716  14.170  21.339  0.00  0.00    +0.000 C 
ENDBRANCH  20  23
BRANCH  20  25
ATOM     25  O   UNL     1       2.225  13.297  18.881  0.00  0.00    +0.000 OA
ATOM     26  C   UNL     1       3.170  13.903  18.020  0.00  0.00    +0.000 C 
ENDBRANCH  20  25
TORSDOF 3
ENDMDL
MODEL 4
REMARK VINA RESULT:      -5.7      2.248      3.668
REMARK  Name = 
REMARK  7 active torsions:
REMARK  status: ('A' for Active; 'I' for Inactive)
REMARK    1  A    between atoms: C_1  and  O_2
REMARK    2  A    between atoms: O_2  and  C_3
REMARK    3  A    between atoms: N_14  and  C_15
REMARK    4  A    between atoms: C_22  and  O_23
REMARK    5  A    between atoms: C_22  and  O_25
REMARK    6  A    between atoms: O_23  and  C_24
REMARK    7  A    between atoms: O_25  and  C_26
REMARK                            x       y       z     vdW  Elec       q    Type
REMARK                         _______ _______ _______ _____ _____    ______ ____
ROOT
ATOM      1  C   UNL     1       8.693  13.140  22.980  0.00  0.00    +0.000 A 
ATOM      2  C   UNL     1       8.516  11.797  22.589  0.00  0.00    +0.000 A 
ATOM      3  C   UNL     1       8.973  11.307  21.346  0.00  0.00    +0.000 A 
ATOM      4  C   UNL     1       9.648  12.156  20.476  0.00  0.00    +0.000 A 
ATOM      5  C   UNL     1       9.857  13.468  20.918  0.00  0.00    +0.000 A 
ATOM      6  C   UNL     1       9.349  13.976  22.096  0.00  0.00    +0.000 A 
ATOM      7  O   UNL     1       9.425  15.345  22.152  0.00  0.00    +0.000 OA
ATOM      8  C   UNL     1       9.905  15.799  20.848  0.00  0.00    +0.000 C 
ATOM      9  C   UNL     1      10.347  14.556  20.017  0.00  0.00    +0.000 C 
ATOM     10  C   UNL     1      11.878  14.427  19.874  0.00  0.00    +0.000 C 
ATOM     11  C   UNL     1      12.257  14.396  18.403  0.00  0.00    +0.000 C 
ATOM     12  N   UNL     1      11.642  13.229  17.766  0.00  0.00    +0.000 NA
ATOM     13  C   UNL     1      11.972  13.164  16.349  0.00  0.00    +0.000 C 
ATOM     14  C   UNL     1      10.199  13.036  18.053  0.00  0.00    +0.000 C 
ATOM     15  C   UNL     1       9.989  11.798  19.026  0.00  0.00    +0.000 C 
ATOM     16  C   UNL     1       9.571  14.231  18.741  0.00  0.00    +0.000 C 
ATOM     17  C   UNL     1       8.328  14.710  18.544  0.00  0.00    +0.000 C 
ATOM     18  C   UNL     1       7.743  15.645  19.586  0.00  0.00    +0.000 C 
ATOM     19  I   UNL     1       5.835  16.446  18.985  0.00  0.00    +0.000 I 
ATOM     20  C   UNL     1       8.842  16.662  20.057  0.00  0.00    +0.000 C 
ENDROOT
BRANCH   1  22
ATOM     21  C   UNL     1       7.475  12.425  24.888  0.00  0.00    +0.000 C 
ATOM     22  O   UNL     1       8.122  13.474  24.174  0.00  0.00    +0.000 OA
ENDBRANCH   1  22
BRANCH  20  23
ATOM     23  O   UNL     1       8.255  17.694  20.864  0.00  0.00    +0.000 OA
ATOM     24  C   UNL     1       9.172  18.478  21.613  0.00  0.00    +0.000 C 
ENDBRANCH  20  23
BRANCH  20  25
ATOM     25  O   UNL     1       9.609  17.233  18.962  0.00  0.00    +0.000 OA
ATOM     26  C   UNL     1       9.015  18.301  18.247  0.00  0.00    +0.000 C 
ENDBRANCH  20  25
TORSDOF 3
ENDMDL
MODEL 5
REMARK VINA RESULT:      -5.7      9.223     12.618
REMARK  Name = 
REMARK  7 active torsions:
REMARK  status: ('A' for Active; 'I' for Inactive)
REMARK    1  A    between atoms: C_1  and  O_2
REMARK    2  A    between atoms: O_2  and  C_3
REMARK    3  A    between atoms: N_14  and  C_15
REMARK    4  A    between atoms: C_22  and  O_23
REMARK    5  A    between atoms: C_22  and  O_25
REMARK    6  A    between atoms: O_23  and  C_24
REMARK    7  A    between atoms: O_25  and  C_26
REMARK                            x       y       z     vdW  Elec       q    Type
REMARK                         _______ _______ _______ _____ _____    ______ ____
ROOT
ATOM      1  C   UNL     1      -2.921  11.558  18.052  0.00  0.00    +0.000 A 
ATOM      2  C   UNL     1      -4.284  11.234  18.206  0.00  0.00    +0.000 A 
ATOM      3  C   UNL     1      -5.067  11.749  19.262  0.00  0.00    +0.000 A 
ATOM      4  C   UNL     1      -4.499  12.630  20.176  0.00  0.00    +0.000 A 
ATOM      5  C   UNL     1      -3.159  12.976  19.962  0.00  0.00    +0.000 A 
ATOM      6  C   UNL     1      -2.366  12.420  18.979  0.00  0.00    +0.000 A 
ATOM      7  O   UNL     1      -1.033  12.684  19.168  0.00  0.00    +0.000 OA
ATOM      8  C   UNL     1      -0.913  13.365  20.457  0.00  0.00    +0.000 C 
ATOM      9  C   UNL     1      -2.341  13.712  20.974  0.00  0.00    +0.000 C 
ATOM     10  C   UNL     1      -2.678  15.215  20.882  0.00  0.00    +0.000 C 
ATOM     11  C   UNL     1      -3.052  15.745  22.256  0.00  0.00    +0.000 C 
ATOM     12  N   UNL     1      -4.241  15.042  22.742  0.00  0.00    +0.000 NA
ATOM     13  C   UNL     1      -4.631  15.513  24.065  0.00  0.00    +0.000 C 
ATOM     14  C   UNL     1      -4.199  13.564  22.623  0.00  0.00    +0.000 C 
ATOM     15  C   UNL     1      -5.181  13.073  21.474  0.00  0.00    +0.000 C 
ATOM     16  C   UNL     1      -2.824  13.043  22.261  0.00  0.00    +0.000 C 
ATOM     17  C   UNL     1      -2.250  11.910  22.710  0.00  0.00    +0.000 C 
ATOM     18  C   UNL     1      -1.060  11.354  21.949  0.00  0.00    +0.000 C 
ATOM     19  I   UNL     1      -0.176   9.658  22.942  0.00  0.00    +0.000 I 
ATOM     20  C   UNL     1      -0.107  12.529  21.531  0.00  0.00    +0.000 C 
ENDROOT
BRANCH   1  22
ATOM     21  C   UNL     1      -2.956  10.897  15.772  0.00  0.00    +0.000 C 
ATOM     22  O   UNL     1      -2.287  10.913  17.029  0.00  0.00    +0.000 OA
ENDBRANCH   1  22
BRANCH  20  23
ATOM     23  O   UNL     1       1.129  12.012  21.017  0.00  0.00    +0.000 OA
ATOM     24  C   UNL     1       1.771  12.821  20.043  0.00  0.00    +0.000 C 
ENDBRANCH  20  23
BRANCH  20  25
ATOM     25  O   UNL     1       0.135  13.486  22.599  0.00  0.00    +0.000 OA
ATOM     26  C   UNL     1       0.677  14.741  22.230  0.00  0.00    +0.000 C 
ENDBRANCH  20  25
TORSDOF 3
ENDMDL
MODEL 6
REMARK VINA RESULT:      -5.6      9.452     12.877
REMARK  Name = 
REMARK  7 active torsions:
REMARK  status: ('A' for Active; 'I' for Inactive)
REMARK    1  A    between atoms: C_1  and  O_2
REMARK    2  A    between atoms: O_2  and  C_3
REMARK    3  A    between atoms: N_14  and  C_15
REMARK    4  A    between atoms: C_22  and  O_23
REMARK    5  A    between atoms: C_22  and  O_25
REMARK    6  A    between atoms: O_23  and  C_24
REMARK    7  A    between atoms: O_25  and  C_26
REMARK                            x       y       z     vdW  Elec       q    Type
REMARK                         _______ _______ _______ _____ _____    ______ ____
ROOT
ATOM      1  C   UNL     1      -3.947  11.678  18.601  0.00  0.00    +0.000 A 
ATOM      2  C   UNL     1      -5.246  11.463  19.105  0.00  0.00    +0.000 A 
ATOM      3  C   UNL     1      -5.691  12.039  20.315  0.00  0.00    +0.000 A 
ATOM      4  C   UNL     1      -4.841  12.872  21.036  0.00  0.00    +0.000 A 
ATOM      5  C   UNL     1      -3.579  13.109  20.480  0.00  0.00    +0.000 A 
ATOM      6  C   UNL     1      -3.109  12.492  19.339  0.00  0.00    +0.000 A 
ATOM      7  O   UNL     1      -1.755  12.650  19.177  0.00  0.00    +0.000 OA
ATOM      8  C   UNL     1      -1.258  13.318  20.379  0.00  0.00    +0.000 C 
ATOM      9  C   UNL     1      -2.475  13.778  21.236  0.00  0.00    +0.000 C 
ATOM     10  C   UNL     1      -2.707  15.303  21.203  0.00  0.00    +0.000 C 
ATOM     11  C   UNL     1      -2.675  15.861  22.616  0.00  0.00    +0.000 C 
ATOM     12  N   UNL     1      -3.751  15.254  23.403  0.00  0.00    +0.000 NA
ATOM     13  C   UNL     1      -3.753  15.754  24.771  0.00  0.00    +0.000 C 
ATOM     14  C   UNL     1      -3.855  13.777  23.306  0.00  0.00    +0.000 C 
ATOM     15  C   UNL     1      -5.133  13.367  22.455  0.00  0.00    +0.000 C 
ATOM     16  C   UNL     1      -2.663  13.148  22.616  0.00  0.00    +0.000 C 
ATOM     17  C   UNL     1      -2.082  11.973  22.926  0.00  0.00    +0.000 C 
ATOM     18  C   UNL     1      -1.172  11.325  21.899  0.00  0.00    +0.000 C 
ATOM     19  I   UNL     1      -0.198   9.563  22.667  0.00  0.00    +0.000 I 
ATOM     20  C   UNL     1      -0.271  12.421  21.228  0.00  0.00    +0.000 C 
ENDROOT
BRANCH   1  22
ATOM     21  C   UNL     1      -3.012   9.722  17.633  0.00  0.00    +0.000 C 
ATOM     22  O   UNL     1      -3.647  10.985  17.464  0.00  0.00    +0.000 OA
ENDBRANCH   1  22
BRANCH  20  23
ATOM     23  O   UNL     1       0.749  11.807  20.427  0.00  0.00    +0.000 OA
ATOM     24  C   UNL     1       0.286  10.889  19.447  0.00  0.00    +0.000 C 
ENDBRANCH  20  23
BRANCH  20  25
ATOM     25  O   UNL     1       0.309  13.354  22.180  0.00  0.00    +0.000 OA
ATOM     26  C   UNL     1       1.105  14.400  21.653  0.00  0.00    +0.000 C 
ENDBRANCH  20  25
TORSDOF 3
ENDMDL
MODEL 7
REMARK VINA RESULT:      -5.6      2.073      3.370
REMARK  Name = 
REMARK  7 active torsions:
REMARK  status: ('A' for Active; 'I' for Inactive)
REMARK    1  A    between atoms: C_1  and  O_2
REMARK    2  A    between atoms: O_2  and  C_3
REMARK    3  A    between atoms: N_14  and  C_15
REMARK    4  A    between atoms: C_22  and  O_23
REMARK    5  A    between atoms: C_22  and  O_25
REMARK    6  A    between atoms: O_23  and  C_24
REMARK    7  A    between atoms: O_25  and  C_26
REMARK                            x       y       z     vdW  Elec       q    Type
REMARK                         _______ _______ _______ _____ _____    ______ ____
ROOT
ATOM      1  C   UNL     1       8.407  12.950  22.688  0.00  0.00    +0.000 A 
ATOM      2  C   UNL     1       8.630  11.583  22.425  0.00  0.00    +0.000 A 
ATOM      3  C   UNL     1       9.343  11.140  21.290  0.00  0.00    +0.000 A 
ATOM      4  C   UNL     1       9.875  12.071  20.403  0.00  0.00    +0.000 A 
ATOM      5  C   UNL     1       9.683  13.420  20.723  0.00  0.00    +0.000 A 
ATOM      6  C   UNL     1       8.925  13.861  21.788  0.00  0.00    +0.000 A 
ATOM      7  O   UNL     1       8.637  15.201  21.707  0.00  0.00    +0.000 OA
ATOM      8  C   UNL     1       9.135  15.666  20.413  0.00  0.00    +0.000 C 
ATOM      9  C   UNL     1       9.979  14.529  19.763  0.00  0.00    +0.000 C 
ATOM     10  C   UNL     1      11.497  14.805  19.780  0.00  0.00    +0.000 C 
ATOM     11  C   UNL     1      12.044  14.764  18.362  0.00  0.00    +0.000 C 
ATOM     12  N   UNL     1      11.831  13.430  17.797  0.00  0.00    +0.000 NA
ATOM     13  C   UNL     1      12.333  13.348  16.431  0.00  0.00    +0.000 C 
ATOM     14  C   UNL     1      10.464  12.879  17.964  0.00  0.00    +0.000 C 
ATOM     15  C   UNL     1      10.467  11.708  19.038  0.00  0.00    +0.000 C 
ATOM     16  C   UNL     1       9.471  13.910  18.460  0.00  0.00    +0.000 C 
ATOM     17  C   UNL     1       8.179  14.022  18.098  0.00  0.00    +0.000 C 
ATOM     18  C   UNL     1       7.252  14.842  18.976  0.00  0.00    +0.000 C 
ATOM     19  I   UNL     1       5.287  15.053  18.116  0.00  0.00    +0.000 I 
ATOM     20  C   UNL     1       7.987  16.149  19.439  0.00  0.00    +0.000 C 
ENDROOT
BRANCH   1  22
ATOM     21  C   UNL     1       7.986  12.542  24.989  0.00  0.00    +0.000 C 
ATOM     22  O   UNL     1       7.631  13.208  23.782  0.00  0.00    +0.000 OA
ENDBRANCH   1  22
BRANCH  20  23
ATOM     23  O   UNL     1       7.062  17.044  20.074  0.00  0.00    +0.000 OA
ATOM     24  C   UNL     1       6.351  16.505  21.179  0.00  0.00    +0.000 C 
ENDBRANCH  20  23
BRANCH  20  25
ATOM     25  O   UNL     1       8.705  16.821  18.368  0.00  0.00    +0.000 OA
ATOM     26  C   UNL     1       9.296  18.071  18.672  0.00  0.00    +0.000 C 
ENDBRANCH  20  25
TORSDOF 3
ENDMDL
MODEL 8
REMARK VINA RESULT:      -5.6      9.375     13.149
REMARK  Name = 
REMARK  7 active torsions:
REMARK  status: ('A' for Active; 'I' for Inactive)
REMARK    1  A    between atoms: C_1  and  O_2
REMARK    2  A    between atoms: O_2  and  C_3
REMARK    3  A    between atoms: N_14  and  C_15
REMARK    4  A    between atoms: C_22  and  O_23
REMARK    5  A    between atoms: C_22  and  O_25
REMARK    6  A    between atoms: O_23  and  C_24
REMARK    7  A    between atoms: O_25  and  C_26
REMARK                            x       y       z     vdW  Elec       q    Type
REMARK                         _______ _______ _______ _____ _____    ______ ____
ROOT
ATOM      1  C   UNL     1      -5.637  12.480  21.626  0.00  0.00    +0.000 A 
ATOM      2  C   UNL     1      -6.144  12.921  22.865  0.00  0.00    +0.000 A 
ATOM      3  C   UNL     1      -5.460  13.859  23.669  0.00  0.00    +0.000 A 
ATOM      4  C   UNL     1      -4.256  14.399  23.227  0.00  0.00    +0.000 A 
ATOM      5  C   UNL     1      -3.809  13.982  21.968  0.00  0.00    +0.000 A 
ATOM      6  C   UNL     1      -4.431  13.011  21.210  0.00  0.00    +0.000 A 
ATOM      7  O   UNL     1      -3.641  12.565  20.179  0.00  0.00    +0.000 OA
ATOM      8  C   UNL     1      -2.333  13.199  20.340  0.00  0.00    +0.000 C 
ATOM      9  C   UNL     1      -2.434  14.278  21.459  0.00  0.00    +0.000 C 
ATOM     10  C   UNL     1      -2.408  15.724  20.920  0.00  0.00    +0.000 C 
ATOM     11  C   UNL     1      -1.263  16.492  21.559  0.00  0.00    +0.000 C 
ATOM     12  N   UNL     1      -1.465  16.551  23.008  0.00  0.00    +0.000 NA
ATOM     13  C   UNL     1      -0.383  17.272  23.665  0.00  0.00    +0.000 C 
ATOM     14  C   UNL     1      -1.802  15.259  23.656  0.00  0.00    +0.000 C 
ATOM     15  C   UNL     1      -3.327  15.245  24.103  0.00  0.00    +0.000 C 
ATOM     16  C   UNL     1      -1.616  14.073  22.733  0.00  0.00    +0.000 C 
ATOM     17  C   UNL     1      -1.161  12.852  23.075  0.00  0.00    +0.000 C 
ATOM     18  C   UNL     1      -1.414  11.696  22.125  0.00  0.00    +0.000 C 
ATOM     19  I   UNL     1      -0.438   9.884  22.765  0.00  0.00    +0.000 I 
ATOM     20  C   UNL     1      -1.174  12.168  20.647  0.00  0.00    +0.000 C 
ENDROOT
BRANCH   1  22
ATOM     21  C   UNL     1      -7.761  11.457  21.345  0.00  0.00    +0.000 C 
ATOM     22  O   UNL     1      -6.377  11.511  21.012  0.00  0.00    +0.000 OA
ENDBRANCH   1  22
BRANCH  20  23
ATOM     23  O   UNL     1      -1.182  11.043  19.756  0.00  0.00    +0.000 OA
ATOM     24  C   UNL     1      -1.312  11.357  18.378  0.00  0.00    +0.000 C 
ENDBRANCH  20  23
BRANCH  20  25
ATOM     25  O   UNL     1       0.037  12.953  20.480  0.00  0.00    +0.000 OA
ATOM     26  C   UNL     1       1.263  12.246  20.430  0.00  0.00    +0.000 C 
ENDBRANCH  20  25
TORSDOF 3
ENDMDL
MODEL 9
REMARK VINA RESULT:      -5.6      8.598     12.066
REMARK  Name = 
REMARK  7 active torsions:
REMARK  status: ('A' for Active; 'I' for Inactive)
REMARK    1  A    between atoms: C_1  and  O_2
REMARK    2  A    between atoms: O_2  and  C_3
REMARK    3  A    between atoms: N_14  and  C_15
REMARK    4  A    between atoms: C_22  and  O_23
REMARK    5  A    between atoms: C_22  and  O_25
REMARK    6  A    between atoms: O_23  and  C_24
REMARK    7  A    between atoms: O_25  and  C_26
REMARK                            x       y       z     vdW  Elec       q    Type
REMARK                         _______ _______ _______ _____ _____    ______ ____
ROOT
ATOM      1  C   UNL     1      -3.706  11.969  18.806  0.00  0.00    +0.000 A 
ATOM      2  C   UNL     1      -4.872  11.957  19.599  0.00  0.00    +0.000 A 
ATOM      3  C   UNL     1      -4.900  12.486  20.907  0.00  0.00    +0.000 A 
ATOM      4  C   UNL     1      -3.755  13.068  21.441  0.00  0.00    +0.000 A 
ATOM      5  C   UNL     1      -2.630  13.114  20.608  0.00  0.00    +0.000 A 
ATOM      6  C   UNL     1      -2.572  12.534  19.358  0.00  0.00    +0.000 A 
ATOM      7  O   UNL     1      -1.287  12.445  18.880  0.00  0.00    +0.000 OA
ATOM      8  C   UNL     1      -0.402  12.887  19.957  0.00  0.00    +0.000 C 
ATOM      9  C   UNL     1      -1.269  13.483  21.106  0.00  0.00    +0.000 C 
ATOM     10  C   UNL     1      -1.181  15.020  21.206  0.00  0.00    +0.000 C 
ATOM     11  C   UNL     1      -0.713  15.421  22.595  0.00  0.00    +0.000 C 
ATOM     12  N   UNL     1      -1.683  14.956  23.588  0.00  0.00    +0.000 NA
ATOM     13  C   UNL     1      -1.270  15.311  24.939  0.00  0.00    +0.000 C 
ATOM     14  C   UNL     1      -2.112  13.543  23.447  0.00  0.00    +0.000 C 
ATOM     15  C   UNL     1      -3.606  13.468  22.912  0.00  0.00    +0.000 C 
ATOM     16  C   UNL     1      -1.265  12.769  22.458  0.00  0.00    +0.000 C 
ATOM     17  C   UNL     1      -0.887  11.480  22.559  0.00  0.00    +0.000 C 
ATOM     18  C   UNL     1      -0.390  10.775  21.310  0.00  0.00    +0.000 C 
ATOM     19  I   UNL     1       0.346   8.793  21.730  0.00  0.00    +0.000 I 
ATOM     20  C   UNL     1       0.543  11.739  20.497  0.00  0.00    +0.000 C 
ENDROOT
BRANCH   1  22
ATOM     21  C   UNL     1      -3.367  10.000  17.524  0.00  0.00    +0.000 C 
ATOM     22  O   UNL     1      -3.824  11.347  17.597  0.00  0.00    +0.000 OA
ENDBRANCH   1  22
BRANCH  20  23
ATOM     23  O   UNL     1       1.203  11.023  19.442  0.00  0.00    +0.000 OA
ATOM     24  C   UNL     1       0.353  10.276  18.586  0.00  0.00    +0.000 C 
ENDBRANCH  20  23
BRANCH  20  25
ATOM     25  O   UNL     1       1.506  12.448  21.324  0.00  0.00    +0.000 OA
ATOM     26  C   UNL     1       2.348  13.383  20.676  0.00  0.00    +0.000 C 
ENDBRANCH  20  25
TORSDOF 3
ENDMDL
