MODEL 1
REMARK VINA RESULT:      -8.2      0.000      0.000
REMARK  Name = 
REMARK  8 active torsions:
REMARK  status: ('A' for Active; 'I' for Inactive)
REMARK    1  A    between atoms: C_1  and  C_2
REMARK    2  A    between atoms: C_7  and  C_9
REMARK    3  A    between atoms: C_10  and  N_11
REMARK    4  A    between atoms: C_12  and  C_14
REMARK    5  A    between atoms: C_16  and  C_17
REMARK    6  A    between atoms: C_22  and  N_23
REMARK    7  A    between atoms: N_23  and  C_24
REMARK    8  A    between atoms: N_32  and  C_33
REMARK                            x       y       z     vdW  Elec       q    Type
REMARK                         _______ _______ _______ _____ _____    ______ ____
ROOT
ATOM      1  N   UNL     1       1.390   8.468  18.071  0.00  0.00    +0.000 N 
ATOM      2  C   UNL     1       1.330   9.843  18.198  0.00  0.00    +0.000 C 
ATOM      3  O   UNL     1       2.305  10.577  18.299  0.00  0.00    +0.000 OA
ATOM      4  H   UNL     1       0.580   8.051  17.620  0.00  0.00    +0.000 HD
ENDROOT
BRANCH   1   6
ATOM      5  C   UNL     1       2.916   6.591  18.795  0.00  0.00    +0.000 A 
ATOM      6  C   UNL     1       2.563   7.729  18.081  0.00  0.00    +0.000 A 
ATOM      7  C   UNL     1       3.642   7.962  17.200  0.00  0.00    +0.000 A 
ATOM      8  N   UNL     1       4.646   7.110  17.370  0.00  0.00    +0.000 NA
ATOM      9  N   UNL     1       4.210   6.313  18.365  0.00  0.00    +0.000 N 
ATOM     10  C   UNL     1       5.061   5.214  18.775  0.00  0.00    +0.000 C 
BRANCH   5  17
ATOM     11  C   UNL     1       2.485   3.704  17.102  0.00  0.00    +0.000 C 
ATOM     12  C   UNL     1       1.456   3.789  18.224  0.00  0.00    +0.000 C 
ATOM     13  C   UNL     1       1.160   2.344  18.680  0.00  0.00    +0.000 C 
ATOM     14  C   UNL     1       0.546   2.492  20.053  0.00  0.00    +0.000 C 
ATOM     15  C   UNL     1       1.169   3.763  20.605  0.00  0.00    +0.000 C 
ATOM     16  N   UNL     1       1.787   4.467  19.482  0.00  0.00    +0.000 N 
ATOM     17  C   UNL     1       2.288   5.737  19.781  0.00  0.00    +0.000 C 
ATOM     18  O   UNL     1       2.317   6.080  20.970  0.00  0.00    +0.000 OA
ENDBRANCH   5  17
ENDBRANCH   1   6
BRANCH   2  19
ATOM     19  C   UNL     1      -0.076  10.382  18.146  0.00  0.00    +0.000 A 
ATOM     20  N   UNL     1      -0.881   9.854  17.149  0.00  0.00    +0.000 NA
ATOM     21  C   UNL     1      -2.204  10.184  17.188  0.00  0.00    +0.000 A 
ATOM     22  C   UNL     1      -2.680  10.986  18.215  0.00  0.00    +0.000 A 
ATOM     23  N   UNL     1      -1.888  11.542  19.143  0.00  0.00    +0.000 NA
ATOM     24  C   UNL     1      -0.559  11.266  19.114  0.00  0.00    +0.000 A 
BRANCH  21  25
ATOM     25  C   UNL     1      -3.187   9.746  16.132  0.00  0.00    +0.000 C 
ATOM     26  C   UNL     1      -3.849  10.850  15.323  0.00  0.00    +0.000 C 
ATOM     27  C   UNL     1      -2.927   9.874  14.658  0.00  0.00    +0.000 C 
ENDBRANCH  21  25
BRANCH  24  28
ATOM     28  N   UNL     1       0.211  11.883  20.127  0.00  0.00    +0.000 N 
ATOM     29  H   UNL     1       0.053  12.888  20.146  0.00  0.00    +0.000 HD
BRANCH  28  30
ATOM     30  C   UNL     1       0.269  11.263  21.398  0.00  0.00    +0.000 A 
ATOM     31  C   UNL     1       1.138  10.198  21.611  0.00  0.00    +0.000 A 
ATOM     32  N   UNL     1       1.028   9.300  22.607  0.00  0.00    +0.000 NA
ATOM     33  C   UNL     1      -0.010   9.495  23.430  0.00  0.00    +0.000 A 
ATOM     34  N   UNL     1      -0.869  10.529  23.397  0.00  0.00    +0.000 NA
ATOM     35  C   UNL     1      -0.708  11.395  22.365  0.00  0.00    +0.000 A 
ENDBRANCH  28  30
ENDBRANCH  24  28
ENDBRANCH   2  19
TORSDOF 6
ENDMDL
MODEL 2
REMARK VINA RESULT:      -8.0      0.987      1.280
REMARK  Name = 
REMARK  8 active torsions:
REMARK  status: ('A' for Active; 'I' for Inactive)
REMARK    1  A    between atoms: C_1  and  C_2
REMARK    2  A    between atoms: C_7  and  C_9
REMARK    3  A    between atoms: C_10  and  N_11
REMARK    4  A    between atoms: C_12  and  C_14
REMARK    5  A    between atoms: C_16  and  C_17
REMARK    6  A    between atoms: C_22  and  N_23
REMARK    7  A    between atoms: N_23  and  C_24
REMARK    8  A    between atoms: N_32  and  C_33
REMARK                            x       y       z     vdW  Elec       q    Type
REMARK                         _______ _______ _______ _____ _____    ______ ____
ROOT
ATOM      1  N   UNL     1       1.825   8.508  17.783  0.00  0.00    +0.000 N 
ATOM      2  C   UNL     1       1.280   9.232  18.827  0.00  0.00    +0.000 C 
ATOM      3  O   UNL     1       1.711   9.236  19.973  0.00  0.00    +0.000 OA
ATOM      4  H   UNL     1       1.628   8.886  16.860  0.00  0.00    +0.000 HD
ENDROOT
BRANCH   1   6
ATOM      5  C   UNL     1       3.097   6.519  18.679  0.00  0.00    +0.000 A 
ATOM      6  C   UNL     1       2.912   7.656  17.903  0.00  0.00    +0.000 A 
ATOM      7  C   UNL     1       4.067   7.742  17.095  0.00  0.00    +0.000 A 
ATOM      8  N   UNL     1       4.963   6.801  17.366  0.00  0.00    +0.000 NA
ATOM      9  N   UNL     1       4.381   6.094  18.353  0.00  0.00    +0.000 N 
ATOM     10  C   UNL     1       5.084   4.933  18.861  0.00  0.00    +0.000 C 
BRANCH   5  17
ATOM     11  C   UNL     1       2.626   3.560  17.126  0.00  0.00    +0.000 C 
ATOM     12  C   UNL     1       1.503   3.785  18.132  0.00  0.00    +0.000 C 
ATOM     13  C   UNL     1       1.063   2.396  18.641  0.00  0.00    +0.000 C 
ATOM     14  C   UNL     1       0.332   2.674  19.935  0.00  0.00    +0.000 C 
ATOM     15  C   UNL     1       0.987   3.935  20.470  0.00  0.00    +0.000 C 
ATOM     16  N   UNL     1       1.759   4.522  19.374  0.00  0.00    +0.000 N 
ATOM     17  C   UNL     1       2.318   5.775  19.647  0.00  0.00    +0.000 C 
ATOM     18  O   UNL     1       2.257   6.192  20.810  0.00  0.00    +0.000 OA
ENDBRANCH   5  17
ENDBRANCH   1   6
BRANCH   2  19
ATOM     19  C   UNL     1       0.108  10.082  18.409  0.00  0.00    +0.000 A 
ATOM     20  N   UNL     1      -0.750   9.502  17.487  0.00  0.00    +0.000 NA
ATOM     21  C   UNL     1      -1.912  10.168  17.227  0.00  0.00    +0.000 A 
ATOM     22  C   UNL     1      -2.192  11.347  17.901  0.00  0.00    +0.000 A 
ATOM     23  N   UNL     1      -1.333  11.934  18.746  0.00  0.00    +0.000 NA
ATOM     24  C   UNL     1      -0.150  11.320  19.002  0.00  0.00    +0.000 A 
BRANCH  21  25
ATOM     25  C   UNL     1      -2.908   9.699  16.197  0.00  0.00    +0.000 C 
ATOM     26  C   UNL     1      -3.786  10.769  15.567  0.00  0.00    +0.000 C 
ATOM     27  C   UNL     1      -2.795  10.015  14.733  0.00  0.00    +0.000 C 
ENDBRANCH  21  25
BRANCH  24  28
ATOM     28  N   UNL     1       0.701  11.995  19.908  0.00  0.00    +0.000 N 
ATOM     29  H   UNL     1       1.183  12.766  19.451  0.00  0.00    +0.000 HD
BRANCH  28  30
ATOM     30  C   UNL     1       0.210  12.281  21.204  0.00  0.00    +0.000 A 
ATOM     31  C   UNL     1      -0.407  11.280  21.949  0.00  0.00    +0.000 A 
ATOM     32  N   UNL     1      -1.231  11.491  22.991  0.00  0.00    +0.000 NA
ATOM     33  C   UNL     1      -1.434  12.779  23.297  0.00  0.00    +0.000 A 
ATOM     34  N   UNL     1      -0.834  13.838  22.725  0.00  0.00    +0.000 NA
ATOM     35  C   UNL     1      -0.020  13.558  21.677  0.00  0.00    +0.000 A 
ENDBRANCH  28  30
ENDBRANCH  24  28
ENDBRANCH   2  19
TORSDOF 6
ENDMDL
MODEL 3
REMARK VINA RESULT:      -7.9      4.596      9.184
REMARK  Name = 
REMARK  8 active torsions:
REMARK  status: ('A' for Active; 'I' for Inactive)
REMARK    1  A    between atoms: C_1  and  C_2
REMARK    2  A    between atoms: C_7  and  C_9
REMARK    3  A    between atoms: C_10  and  N_11
REMARK    4  A    between atoms: C_12  and  C_14
REMARK    5  A    between atoms: C_16  and  C_17
REMARK    6  A    between atoms: C_22  and  N_23
REMARK    7  A    between atoms: N_23  and  C_24
REMARK    8  A    between atoms: N_32  and  C_33
REMARK                            x       y       z     vdW  Elec       q    Type
REMARK                         _______ _______ _______ _____ _____    ______ ____
ROOT
ATOM      1  N   UNL     1      -1.820  12.745  21.500  0.00  0.00    +0.000 N 
ATOM      2  C   UNL     1      -2.547  13.056  20.366  0.00  0.00    +0.000 C 
ATOM      3  O   UNL     1      -3.241  14.055  20.234  0.00  0.00    +0.000 OA
ATOM      4  H   UNL     1      -1.024  12.135  21.336  0.00  0.00    +0.000 HD
ENDROOT
BRANCH   1   6
ATOM      5  C   UNL     1      -2.737  13.608  23.689  0.00  0.00    +0.000 A 
ATOM      6  C   UNL     1      -1.812  13.506  22.659  0.00  0.00    +0.000 A 
ATOM      7  C   UNL     1      -0.707  14.280  23.078  0.00  0.00    +0.000 A 
ATOM      8  N   UNL     1      -0.914  14.898  24.235  0.00  0.00    +0.000 NA
ATOM      9  N   UNL     1      -2.160  14.515  24.572  0.00  0.00    +0.000 N 
ATOM     10  C   UNL     1      -2.693  14.978  25.838  0.00  0.00    +0.000 C 
BRANCH   5  17
ATOM     11  C   UNL     1      -4.876  15.928  22.493  0.00  0.00    +0.000 C 
ATOM     12  C   UNL     1      -5.561  15.134  23.599  0.00  0.00    +0.000 C 
ATOM     13  C   UNL     1      -7.067  15.094  23.262  0.00  0.00    +0.000 C 
ATOM     14  C   UNL     1      -7.611  13.938  24.071  0.00  0.00    +0.000 C 
ATOM     15  C   UNL     1      -6.437  12.981  24.190  0.00  0.00    +0.000 C 
ATOM     16  N   UNL     1      -5.235  13.720  23.806  0.00  0.00    +0.000 N 
ATOM     17  C   UNL     1      -4.031  13.032  23.994  0.00  0.00    +0.000 C 
ATOM     18  O   UNL     1      -4.093  11.835  24.301  0.00  0.00    +0.000 OA
ENDBRANCH   5  17
ENDBRANCH   1   6
BRANCH   2  19
ATOM     19  C   UNL     1      -2.364  12.055  19.254  0.00  0.00    +0.000 A 
ATOM     20  N   UNL     1      -1.143  11.400  19.236  0.00  0.00    +0.000 NA
ATOM     21  C   UNL     1      -1.014  10.364  18.357  0.00  0.00    +0.000 A 
ATOM     22  C   UNL     1      -2.093  10.001  17.564  0.00  0.00    +0.000 A 
ATOM     23  N   UNL     1      -3.251  10.675  17.542  0.00  0.00    +0.000 NA
ATOM     24  C   UNL     1      -3.403  11.735  18.376  0.00  0.00    +0.000 A 
BRANCH  21  25
ATOM     25  C   UNL     1       0.275   9.604  18.174  0.00  0.00    +0.000 C 
ATOM     26  C   UNL     1       1.557  10.418  18.251  0.00  0.00    +0.000 C 
ATOM     27  C   UNL     1       1.262   9.371  19.282  0.00  0.00    +0.000 C 
ENDBRANCH  21  25
BRANCH  24  28
ATOM     28  N   UNL     1      -4.652  12.392  18.302  0.00  0.00    +0.000 N 
ATOM     29  H   UNL     1      -4.819  12.756  17.366  0.00  0.00    +0.000 HD
BRANCH  28  30
ATOM     30  C   UNL     1      -5.772  11.778  18.912  0.00  0.00    +0.000 A 
ATOM     31  C   UNL     1      -6.038  12.004  20.259  0.00  0.00    +0.000 A 
ATOM     32  N   UNL     1      -6.805  11.218  21.036  0.00  0.00    +0.000 NA
ATOM     33  C   UNL     1      -7.333  10.155  20.416  0.00  0.00    +0.000 A 
ATOM     34  N   UNL     1      -7.235   9.868  19.105  0.00  0.00    +0.000 NA
ATOM     35  C   UNL     1      -6.443  10.695  18.379  0.00  0.00    +0.000 A 
ENDBRANCH  28  30
ENDBRANCH  24  28
ENDBRANCH   2  19
TORSDOF 6
ENDMDL
MODEL 4
REMARK VINA RESULT:      -7.8      1.692      2.612
REMARK  Name = 
REMARK  8 active torsions:
REMARK  status: ('A' for Active; 'I' for Inactive)
REMARK    1  A    between atoms: C_1  and  C_2
REMARK    2  A    between atoms: C_7  and  C_9
REMARK    3  A    between atoms: C_10  and  N_11
REMARK    4  A    between atoms: C_12  and  C_14
REMARK    5  A    between atoms: C_16  and  C_17
REMARK    6  A    between atoms: C_22  and  N_23
REMARK    7  A    between atoms: N_23  and  C_24
REMARK    8  A    between atoms: N_32  and  C_33
REMARK                            x       y       z     vdW  Elec       q    Type
REMARK                         _______ _______ _______ _____ _____    ______ ____
ROOT
ATOM      1  N   UNL     1       1.748   8.606  17.897  0.00  0.00    +0.000 N 
ATOM      2  C   UNL     1       1.221   9.274  18.986  0.00  0.00    +0.000 C 
ATOM      3  O   UNL     1       1.672   9.220  20.123  0.00  0.00    +0.000 OA
ATOM      4  H   UNL     1       1.533   9.030  16.998  0.00  0.00    +0.000 HD
ENDROOT
BRANCH   1   6
ATOM      5  C   UNL     1       3.050   6.592  18.687  0.00  0.00    +0.000 A 
ATOM      6  C   UNL     1       2.838   7.752  17.952  0.00  0.00    +0.000 A 
ATOM      7  C   UNL     1       3.964   7.864  17.107  0.00  0.00    +0.000 A 
ATOM      8  N   UNL     1       4.869   6.916  17.318  0.00  0.00    +0.000 NA
ATOM      9  N   UNL     1       4.322   6.179  18.303  0.00  0.00    +0.000 N 
ATOM     10  C   UNL     1       5.043   5.004  18.751  0.00  0.00    +0.000 C 
BRANCH   5  17
ATOM     11  C   UNL     1       2.580   3.658  17.088  0.00  0.00    +0.000 C 
ATOM     12  C   UNL     1       1.480   3.848  18.126  0.00  0.00    +0.000 C 
ATOM     13  C   UNL     1       1.072   2.443  18.617  0.00  0.00    +0.000 C 
ATOM     14  C   UNL     1       0.370   2.686  19.935  0.00  0.00    +0.000 C 
ATOM     15  C   UNL     1       1.022   3.945  20.478  0.00  0.00    +0.000 C 
ATOM     16  N   UNL     1       1.757   4.564  19.375  0.00  0.00    +0.000 N 
ATOM     17  C   UNL     1       2.306   5.819  19.659  0.00  0.00    +0.000 C 
ATOM     18  O   UNL     1       2.268   6.212  20.831  0.00  0.00    +0.000 OA
ENDBRANCH   5  17
ENDBRANCH   1   6
BRANCH   2  19
ATOM     19  C   UNL     1       0.039  10.141  18.634  0.00  0.00    +0.000 A 
ATOM     20  N   UNL     1      -0.826   9.614  17.687  0.00  0.00    +0.000 NA
ATOM     21  C   UNL     1      -1.994  10.287  17.481  0.00  0.00    +0.000 A 
ATOM     22  C   UNL     1      -2.273  11.421  18.230  0.00  0.00    +0.000 A 
ATOM     23  N   UNL     1      -1.408  11.960  19.100  0.00  0.00    +0.000 NA
ATOM     24  C   UNL     1      -0.219  11.338  19.305  0.00  0.00    +0.000 A 
BRANCH  21  25
ATOM     25  C   UNL     1      -2.999   9.877  16.434  0.00  0.00    +0.000 C 
ATOM     26  C   UNL     1      -3.400  10.941  15.425  0.00  0.00    +0.000 C 
ATOM     27  C   UNL     1      -2.660   9.717  14.980  0.00  0.00    +0.000 C 
ENDBRANCH  21  25
BRANCH  24  28
ATOM     28  N   UNL     1       0.638  11.961  20.242  0.00  0.00    +0.000 N 
ATOM     29  H   UNL     1       1.100  11.270  20.830  0.00  0.00    +0.000 HD
BRANCH  28  30
ATOM     30  C   UNL     1       1.469  13.015  19.794  0.00  0.00    +0.000 A 
ATOM     31  C   UNL     1       1.191  14.325  20.171  0.00  0.00    +0.000 A 
ATOM     32  N   UNL     1       1.642  15.423  19.537  0.00  0.00    +0.000 NA
ATOM     33  C   UNL     1       2.417  15.180  18.473  0.00  0.00    +0.000 A 
ATOM     34  N   UNL     1       2.840  13.974  18.053  0.00  0.00    +0.000 NA
ATOM     35  C   UNL     1       2.345  12.909  18.731  0.00  0.00    +0.000 A 
ENDBRANCH  28  30
ENDBRANCH  24  28
ENDBRANCH   2  19
TORSDOF 6
ENDMDL
MODEL 5
REMARK VINA RESULT:      -7.7      2.497      8.402
REMARK  Name = 
REMARK  8 active torsions:
REMARK  status: ('A' for Active; 'I' for Inactive)
REMARK    1  A    between atoms: C_1  and  C_2
REMARK    2  A    between atoms: C_7  and  C_9
REMARK    3  A    between atoms: C_10  and  N_11
REMARK    4  A    between atoms: C_12  and  C_14
REMARK    5  A    between atoms: C_16  and  C_17
REMARK    6  A    between atoms: C_22  and  N_23
REMARK    7  A    between atoms: N_23  and  C_24
REMARK    8  A    between atoms: N_32  and  C_33
REMARK                            x       y       z     vdW  Elec       q    Type
REMARK                         _______ _______ _______ _____ _____    ______ ____
ROOT
ATOM      1  N   UNL     1       0.971   8.934  19.193  0.00  0.00    +0.000 N 
ATOM      2  C   UNL     1       1.981   8.525  18.342  0.00  0.00    +0.000 C 
ATOM      3  O   UNL     1       2.341   9.134  17.343  0.00  0.00    +0.000 OA
ATOM      4  H   UNL     1       1.044   8.569  20.139  0.00  0.00    +0.000 HD
ENDROOT
BRANCH   1   6
ATOM      5  C   UNL     1       0.287  11.333  19.585  0.00  0.00    +0.000 A 
ATOM      6  C   UNL     1       0.203  10.073  19.007  0.00  0.00    +0.000 A 
ATOM      7  C   UNL     1      -0.806  10.185  18.025  0.00  0.00    +0.000 A 
ATOM      8  N   UNL     1      -1.387  11.378  18.009  0.00  0.00    +0.000 NA
ATOM      9  N   UNL     1      -0.744  12.048  18.985  0.00  0.00    +0.000 N 
ATOM     10  C   UNL     1      -1.104  13.435  19.206  0.00  0.00    +0.000 C 
BRANCH   5  17
ATOM     11  C   UNL     1       1.978  13.599  17.744  0.00  0.00    +0.000 C 
ATOM     12  C   UNL     1       2.795  13.245  18.982  0.00  0.00    +0.000 C 
ATOM     13  C   UNL     1       3.613  14.498  19.359  0.00  0.00    +0.000 C 
ATOM     14  C   UNL     1       4.008  14.279  20.802  0.00  0.00    +0.000 C 
ATOM     15  C   UNL     1       2.884  13.430  21.371  0.00  0.00    +0.000 C 
ATOM     16  N   UNL     1       2.123  12.903  20.239  0.00  0.00    +0.000 N 
ATOM     17  C   UNL     1       1.129  11.977  20.572  0.00  0.00    +0.000 C 
ATOM     18  O   UNL     1       0.873  11.813  21.772  0.00  0.00    +0.000 OA
ENDBRANCH   5  17
ENDBRANCH   1   6
BRANCH   2  19
ATOM     19  C   UNL     1       2.654   7.254  18.791  0.00  0.00    +0.000 A 
ATOM     20  N   UNL     1       2.023   6.577  19.822  0.00  0.00    +0.000 NA
ATOM     21  C   UNL     1       2.504   5.337  20.128  0.00  0.00    +0.000 A 
ATOM     22  C   UNL     1       3.554   4.809  19.393  0.00  0.00    +0.000 A 
ATOM     23  N   UNL     1       4.200   5.491  18.436  0.00  0.00    +0.000 NA
ATOM     24  C   UNL     1       3.774   6.742  18.129  0.00  0.00    +0.000 A 
BRANCH  21  25
ATOM     25  C   UNL     1       1.967   4.512  21.271  0.00  0.00    +0.000 C 
ATOM     26  C   UNL     1       1.107   3.316  20.896  0.00  0.00    +0.000 C 
ATOM     27  C   UNL     1       2.430   3.115  21.571  0.00  0.00    +0.000 C 
ENDBRANCH  21  25
BRANCH  24  28
ATOM     28  N   UNL     1       4.498   7.397  17.107  0.00  0.00    +0.000 N 
ATOM     29  H   UNL     1       4.749   8.344  17.386  0.00  0.00    +0.000 HD
BRANCH  28  30
ATOM     30  C   UNL     1       5.522   6.679  16.444  0.00  0.00    +0.000 A 
ATOM     31  C   UNL     1       5.222   5.938  15.305  0.00  0.00    +0.000 A 
ATOM     32  N   UNL     1       5.977   4.937  14.815  0.00  0.00    +0.000 NA
ATOM     33  C   UNL     1       7.092   4.682  15.509  0.00  0.00    +0.000 A 
ATOM     34  N   UNL     1       7.550   5.375  16.567  0.00  0.00    +0.000 NA
ATOM     35  C   UNL     1       6.739   6.366  17.015  0.00  0.00    +0.000 A 
ENDBRANCH  28  30
ENDBRANCH  24  28
ENDBRANCH   2  19
TORSDOF 6
ENDMDL
MODEL 6
REMARK VINA RESULT:      -7.6      4.269      9.031
REMARK  Name = 
REMARK  8 active torsions:
REMARK  status: ('A' for Active; 'I' for Inactive)
REMARK    1  A    between atoms: C_1  and  C_2
REMARK    2  A    between atoms: C_7  and  C_9
REMARK    3  A    between atoms: C_10  and  N_11
REMARK    4  A    between atoms: C_12  and  C_14
REMARK    5  A    between atoms: C_16  and  C_17
REMARK    6  A    between atoms: C_22  and  N_23
REMARK    7  A    between atoms: N_23  and  C_24
REMARK    8  A    between atoms: N_32  and  C_33
REMARK                            x       y       z     vdW  Elec       q    Type
REMARK                         _______ _______ _______ _____ _____    ______ ____
ROOT
ATOM      1  N   UNL     1      -1.327  12.910  21.604  0.00  0.00    +0.000 N 
ATOM      2  C   UNL     1      -1.806  13.245  20.351  0.00  0.00    +0.000 C 
ATOM      3  O   UNL     1      -2.386  14.289  20.082  0.00  0.00    +0.000 OA
ATOM      4  H   UNL     1      -0.562  12.241  21.597  0.00  0.00    +0.000 HD
ENDROOT
BRANCH   1   6
ATOM      5  C   UNL     1      -2.476  13.728  23.699  0.00  0.00    +0.000 A 
ATOM      6  C   UNL     1      -1.475  13.697  22.736  0.00  0.00    +0.000 A 
ATOM      7  C   UNL     1      -0.486  14.589  23.204  0.00  0.00    +0.000 A 
ATOM      8  N   UNL     1      -0.833  15.211  24.324  0.00  0.00    +0.000 NA
ATOM      9  N   UNL     1      -2.055  14.711  24.589  0.00  0.00    +0.000 N 
ATOM     10  C   UNL     1      -2.719  15.148  25.801  0.00  0.00    +0.000 C 
BRANCH   5  17
ATOM     11  C   UNL     1      -4.757  15.835  22.379  0.00  0.00    +0.000 C 
ATOM     12  C   UNL     1      -5.423  14.978  23.448  0.00  0.00    +0.000 C 
ATOM     13  C   UNL     1      -6.897  14.794  23.030  0.00  0.00    +0.000 C 
ATOM     14  C   UNL     1      -7.372  13.591  23.812  0.00  0.00    +0.000 C 
ATOM     15  C   UNL     1      -6.121  12.750  23.999  0.00  0.00    +0.000 C 
ATOM     16  N   UNL     1      -4.975  13.601  23.678  0.00  0.00    +0.000 N 
ATOM     17  C   UNL     1      -3.724  13.031  23.934  0.00  0.00    +0.000 C 
ATOM     18  O   UNL     1      -3.688  11.834  24.242  0.00  0.00    +0.000 OA
ENDBRANCH   5  17
ENDBRANCH   1   6
BRANCH   2  19
ATOM     19  C   UNL     1      -1.497  12.207  19.303  0.00  0.00    +0.000 A 
ATOM     20  N   UNL     1      -0.224  11.661  19.362  0.00  0.00    +0.000 NA
ATOM     21  C   UNL     1       0.025  10.595  18.546  0.00  0.00    +0.000 A 
ATOM     22  C   UNL     1      -0.988  10.099  17.740  0.00  0.00    +0.000 A 
ATOM     23  N   UNL     1      -2.198  10.667  17.642  0.00  0.00    +0.000 NA
ATOM     24  C   UNL     1      -2.471  11.752  18.411  0.00  0.00    +0.000 A 
BRANCH  21  25
ATOM     25  C   UNL     1       1.381   9.943  18.447  0.00  0.00    +0.000 C 
ATOM     26  C   UNL     1       1.606   8.714  19.314  0.00  0.00    +0.000 C 
ATOM     27  C   UNL     1       1.606   8.597  17.820  0.00  0.00    +0.000 C 
ENDBRANCH  21  25
BRANCH  24  28
ATOM     28  N   UNL     1      -3.768  12.293  18.259  0.00  0.00    +0.000 N 
ATOM     29  H   UNL     1      -3.972  12.487  17.281  0.00  0.00    +0.000 HD
BRANCH  28  30
ATOM     30  C   UNL     1      -4.831  11.703  18.984  0.00  0.00    +0.000 A 
ATOM     31  C   UNL     1      -5.667  10.781  18.362  0.00  0.00    +0.000 A 
ATOM     32  N   UNL     1      -6.898  10.445  18.790  0.00  0.00    +0.000 NA
ATOM     33  C   UNL     1      -7.297  11.069  19.905  0.00  0.00    +0.000 A 
ATOM     34  N   UNL     1      -6.560  11.908  20.656  0.00  0.00    +0.000 NA
ATOM     35  C   UNL     1      -5.332  12.210  20.167  0.00  0.00    +0.000 A 
ENDBRANCH  28  30
ENDBRANCH  24  28
ENDBRANCH   2  19
TORSDOF 6
ENDMDL
MODEL 7
REMARK VINA RESULT:      -7.6      2.434      8.534
REMARK  Name = 
REMARK  8 active torsions:
REMARK  status: ('A' for Active; 'I' for Inactive)
REMARK    1  A    between atoms: C_1  and  C_2
REMARK    2  A    between atoms: C_7  and  C_9
REMARK    3  A    between atoms: C_10  and  N_11
REMARK    4  A    between atoms: C_12  and  C_14
REMARK    5  A    between atoms: C_16  and  C_17
REMARK    6  A    between atoms: C_22  and  N_23
REMARK    7  A    between atoms: N_23  and  C_24
REMARK    8  A    between atoms: N_32  and  C_33
REMARK                            x       y       z     vdW  Elec       q    Type
REMARK                         _______ _______ _______ _____ _____    ______ ____
ROOT
ATOM      1  N   UNL     1       1.084   8.944  19.126  0.00  0.00    +0.000 N 
ATOM      2  C   UNL     1       1.994   8.396  18.240  0.00  0.00    +0.000 C 
ATOM      3  O   UNL     1       2.253   8.852  17.134  0.00  0.00    +0.000 OA
ATOM      4  H   UNL     1       1.253   8.710  20.101  0.00  0.00    +0.000 HD
ENDROOT
BRANCH   1   6
ATOM      5  C   UNL     1       0.666  11.400  18.716  0.00  0.00    +0.000 A 
ATOM      6  C   UNL     1       0.313  10.065  18.864  0.00  0.00    +0.000 A 
ATOM      7  C   UNL     1      -1.065  10.013  18.557  0.00  0.00    +0.000 A 
ATOM      8  N   UNL     1      -1.589  11.207  18.310  0.00  0.00    +0.000 NA
ATOM      9  N   UNL     1      -0.540  12.040  18.449  0.00  0.00    +0.000 N 
ATOM     10  C   UNL     1      -0.754  13.450  18.191  0.00  0.00    +0.000 C 
BRANCH   5  17
ATOM     11  C   UNL     1       0.394  12.972  21.689  0.00  0.00    +0.000 C 
ATOM     12  C   UNL     1       1.304  13.782  20.773  0.00  0.00    +0.000 C 
ATOM     13  C   UNL     1       2.330  14.501  21.673  0.00  0.00    +0.000 C 
ATOM     14  C   UNL     1       3.462  14.875  20.742  0.00  0.00    +0.000 C 
ATOM     15  C   UNL     1       3.434  13.801  19.669  0.00  0.00    +0.000 C 
ATOM     16  N   UNL     1       2.152  13.105  19.786  0.00  0.00    +0.000 N 
ATOM     17  C   UNL     1       1.891  12.171  18.779  0.00  0.00    +0.000 C 
ATOM     18  O   UNL     1       2.807  11.899  17.994  0.00  0.00    +0.000 OA
ENDBRANCH   5  17
ENDBRANCH   1   6
BRANCH   2  19
ATOM     19  C   UNL     1       2.698   7.182  18.791  0.00  0.00    +0.000 A 
ATOM     20  N   UNL     1       2.010   6.489  19.774  0.00  0.00    +0.000 NA
ATOM     21  C   UNL     1       2.535   5.290  20.162  0.00  0.00    +0.000 A 
ATOM     22  C   UNL     1       3.684   4.815  19.548  0.00  0.00    +0.000 A 
ATOM     23  N   UNL     1       4.378   5.517  18.641  0.00  0.00    +0.000 NA
ATOM     24  C   UNL     1       3.907   6.730  18.257  0.00  0.00    +0.000 A 
BRANCH  21  25
ATOM     25  C   UNL     1       1.939   4.458  21.269  0.00  0.00    +0.000 C 
ATOM     26  C   UNL     1       1.121   3.250  20.844  0.00  0.00    +0.000 C 
ATOM     27  C   UNL     1       2.402   3.068  21.599  0.00  0.00    +0.000 C 
ENDBRANCH  21  25
BRANCH  24  28
ATOM     28  N   UNL     1       4.688   7.407  17.292  0.00  0.00    +0.000 N 
ATOM     29  H   UNL     1       5.052   8.281  17.665  0.00  0.00    +0.000 HD
BRANCH  28  30
ATOM     30  C   UNL     1       5.610   6.655  16.526  0.00  0.00    +0.000 A 
ATOM     31  C   UNL     1       5.174   5.968  15.397  0.00  0.00    +0.000 A 
ATOM     32  N   UNL     1       5.827   4.944  14.817  0.00  0.00    +0.000 NA
ATOM     33  C   UNL     1       6.979   4.605  15.408  0.00  0.00    +0.000 A 
ATOM     34  N   UNL     1       7.562   5.238  16.442  0.00  0.00    +0.000 NA
ATOM     35  C   UNL     1       6.850   6.257  16.983  0.00  0.00    +0.000 A 
ENDBRANCH  28  30
ENDBRANCH  24  28
ENDBRANCH   2  19
TORSDOF 6
ENDMDL
MODEL 8
REMARK VINA RESULT:      -7.4      1.037      1.448
REMARK  Name = 
REMARK  8 active torsions:
REMARK  status: ('A' for Active; 'I' for Inactive)
REMARK    1  A    between atoms: C_1  and  C_2
REMARK    2  A    between atoms: C_7  and  C_9
REMARK    3  A    between atoms: C_10  and  N_11
REMARK    4  A    between atoms: C_12  and  C_14
REMARK    5  A    between atoms: C_16  and  C_17
REMARK    6  A    between atoms: C_22  and  N_23
REMARK    7  A    between atoms: N_23  and  C_24
REMARK    8  A    between atoms: N_32  and  C_33
REMARK                            x       y       z     vdW  Elec       q    Type
REMARK                         _______ _______ _______ _____ _____    ______ ____
ROOT
ATOM      1  N   UNL     1       1.429   8.088  17.859  0.00  0.00    +0.000 N 
ATOM      2  C   UNL     1       1.441   9.470  17.854  0.00  0.00    +0.000 C 
ATOM      3  O   UNL     1       2.447  10.159  17.738  0.00  0.00    +0.000 OA
ATOM      4  H   UNL     1       0.545   7.674  17.575  0.00  0.00    +0.000 HD
ENDROOT
BRANCH   1   6
ATOM      5  C   UNL     1       2.709   5.913  17.797  0.00  0.00    +0.000 A 
ATOM      6  C   UNL     1       2.561   7.294  17.772  0.00  0.00    +0.000 A 
ATOM      7  C   UNL     1       3.852   7.797  17.497  0.00  0.00    +0.000 A 
ATOM      8  N   UNL     1       4.777   6.848  17.427  0.00  0.00    +0.000 NA
ATOM      9  N   UNL     1       4.079   5.719  17.651  0.00  0.00    +0.000 N 
ATOM     10  C   UNL     1       4.792   4.458  17.593  0.00  0.00    +0.000 C 
BRANCH   5  17
ATOM     11  C   UNL     1       2.667   5.409  21.133  0.00  0.00    +0.000 C 
ATOM     12  C   UNL     1       2.349   4.098  20.422  0.00  0.00    +0.000 C 
ATOM     13  C   UNL     1       1.410   3.296  21.346  0.00  0.00    +0.000 C 
ATOM     14  C   UNL     1       0.755   2.279  20.438  0.00  0.00    +0.000 C 
ATOM     15  C   UNL     1       0.720   2.958  19.080  0.00  0.00    +0.000 C 
ATOM     16  N   UNL     1       1.626   4.105  19.146  0.00  0.00    +0.000 N 
ATOM     17  C   UNL     1       1.832   4.769  17.932  0.00  0.00    +0.000 C 
ATOM     18  O   UNL     1       1.123   4.445  16.971  0.00  0.00    +0.000 OA
ENDBRANCH   5  17
ENDBRANCH   1   6
BRANCH   2  19
ATOM     19  C   UNL     1       0.064  10.075  17.954  0.00  0.00    +0.000 A 
ATOM     20  N   UNL     1      -0.854   9.626  17.019  0.00  0.00    +0.000 NA
ATOM     21  C   UNL     1      -2.150  10.014  17.194  0.00  0.00    +0.000 A 
ATOM     22  C   UNL     1      -2.489  10.794  18.290  0.00  0.00    +0.000 A 
ATOM     23  N   UNL     1      -1.588  11.276  19.158  0.00  0.00    +0.000 NA
ATOM     24  C   UNL     1      -0.283  10.941  18.994  0.00  0.00    +0.000 A 
BRANCH  21  25
ATOM     25  C   UNL     1      -3.247   9.665  16.220  0.00  0.00    +0.000 C 
ATOM     26  C   UNL     1      -3.880  10.825  15.468  0.00  0.00    +0.000 C 
ATOM     27  C   UNL     1      -3.097   9.782  14.730  0.00  0.00    +0.000 C 
ENDBRANCH  21  25
BRANCH  24  28
ATOM     28  N   UNL     1       0.607  11.480  19.951  0.00  0.00    +0.000 N 
ATOM     29  H   UNL     1       0.642  12.495  19.887  0.00  0.00    +0.000 HD
BRANCH  28  30
ATOM     30  C   UNL     1       0.567  10.967  21.270  0.00  0.00    +0.000 A 
ATOM     31  C   UNL     1       1.157   9.739  21.554  0.00  0.00    +0.000 A 
ATOM     32  N   UNL     1       0.874   8.976  22.626  0.00  0.00    +0.000 NA
ATOM     33  C   UNL     1      -0.046   9.488  23.453  0.00  0.00    +0.000 A 
ATOM     34  N   UNL     1      -0.626  10.697  23.351  0.00  0.00    +0.000 NA
ATOM     35  C   UNL     1      -0.303  11.413  22.245  0.00  0.00    +0.000 A 
ENDBRANCH  28  30
ENDBRANCH  24  28
ENDBRANCH   2  19
TORSDOF 6
ENDMDL
MODEL 9
REMARK VINA RESULT:      -7.4      1.698      2.471
REMARK  Name = 
REMARK  8 active torsions:
REMARK  status: ('A' for Active; 'I' for Inactive)
REMARK    1  A    between atoms: C_1  and  C_2
REMARK    2  A    between atoms: C_7  and  C_9
REMARK    3  A    between atoms: C_10  and  N_11
REMARK    4  A    between atoms: C_12  and  C_14
REMARK    5  A    between atoms: C_16  and  C_17
REMARK    6  A    between atoms: C_22  and  N_23
REMARK    7  A    between atoms: N_23  and  C_24
REMARK    8  A    between atoms: N_32  and  C_33
REMARK                            x       y       z     vdW  Elec       q    Type
REMARK                         _______ _______ _______ _____ _____    ______ ____
ROOT
ATOM      1  N   UNL     1       1.704   8.318  18.372  0.00  0.00    +0.000 N 
ATOM      2  C   UNL     1       1.691   9.671  18.091  0.00  0.00    +0.000 C 
ATOM      3  O   UNL     1       2.651  10.307  17.675  0.00  0.00    +0.000 OA
ATOM      4  H   UNL     1       0.792   7.870  18.327  0.00  0.00    +0.000 HD
ENDROOT
BRANCH   1   6
ATOM      5  C   UNL     1       3.138   6.303  18.878  0.00  0.00    +0.000 A 
ATOM      6  C   UNL     1       2.820   7.504  18.259  0.00  0.00    +0.000 A 
ATOM      7  C   UNL     1       3.853   7.719  17.320  0.00  0.00    +0.000 A 
ATOM      8  N   UNL     1       4.803   6.794  17.371  0.00  0.00    +0.000 NA
ATOM      9  N   UNL     1       4.378   5.967  18.345  0.00  0.00    +0.000 N 
ATOM     10  C   UNL     1       5.174   4.789  18.631  0.00  0.00    +0.000 C 
BRANCH   5  17
ATOM     11  C   UNL     1       2.388   3.565  17.054  0.00  0.00    +0.000 C 
ATOM     12  C   UNL     1       1.445   3.648  18.249  0.00  0.00    +0.000 C 
ATOM     13  C   UNL     1       1.076   2.201  18.638  0.00  0.00    +0.000 C 
ATOM     14  C   UNL     1       0.566   2.302  20.057  0.00  0.00    +0.000 C 
ATOM     15  C   UNL     1       1.314   3.490  20.638  0.00  0.00    +0.000 C 
ATOM     16  N   UNL     1       1.905   4.220  19.517  0.00  0.00    +0.000 N 
ATOM     17  C   UNL     1       2.516   5.433  19.855  0.00  0.00    +0.000 C 
ATOM     18  O   UNL     1       2.647   5.696  21.057  0.00  0.00    +0.000 OA
ENDBRANCH   5  17
ENDBRANCH   1   6
BRANCH   2  19
ATOM     19  C   UNL     1       0.339  10.306  18.296  0.00  0.00    +0.000 A 
ATOM     20  N   UNL     1      -0.659   9.873  17.439  0.00  0.00    +0.000 NA
ATOM     21  C   UNL     1      -1.929  10.290  17.713  0.00  0.00    +0.000 A 
ATOM     22  C   UNL     1      -2.164  11.082  18.827  0.00  0.00    +0.000 A 
ATOM     23  N   UNL     1      -1.187  11.548  19.619  0.00  0.00    +0.000 NA
ATOM     24  C   UNL     1       0.094  11.184  19.355  0.00  0.00    +0.000 A 
BRANCH  21  25
ATOM     25  C   UNL     1      -3.106   9.960  16.831  0.00  0.00    +0.000 C 
ATOM     26  C   UNL     1      -3.524  11.028  15.832  0.00  0.00    +0.000 C 
ATOM     27  C   UNL     1      -2.988   9.713  15.354  0.00  0.00    +0.000 C 
ENDBRANCH  21  25
BRANCH  24  28
ATOM     28  N   UNL     1       1.068  11.708  20.236  0.00  0.00    +0.000 N 
ATOM     29  H   UNL     1       1.752  10.998  20.488  0.00  0.00    +0.000 HD
BRANCH  28  30
ATOM     30  C   UNL     1       1.608  12.986  19.956  0.00  0.00    +0.000 A 
ATOM     31  C   UNL     1       1.634  13.456  18.646  0.00  0.00    +0.000 A 
ATOM     32  N   UNL     1       2.432  14.441  18.196  0.00  0.00    +0.000 NA
ATOM     33  C   UNL     1       3.238  14.979  19.120  0.00  0.00    +0.000 A 
ATOM     34  N   UNL     1       3.252  14.687  20.432  0.00  0.00    +0.000 NA
ATOM     35  C   UNL     1       2.429  13.682  20.821  0.00  0.00    +0.000 A 
ENDBRANCH  28  30
ENDBRANCH  24  28
ENDBRANCH   2  19
TORSDOF 6
ENDMDL
