MODEL 1
REMARK VINA RESULT:      -6.6      0.000      0.000
REMARK  Name = 
REMARK  10 active torsions:
REMARK  status: ('A' for Active; 'I' for Inactive)
REMARK    1  A    between atoms: C_1  and  C_2
REMARK    2  A    between atoms: C_2  and  C_3
REMARK    3  A    between atoms: N_5  and  C_6
REMARK    4  A    between atoms: C_6  and  C_7
REMARK    5  A    between atoms: C_11  and  C_12
REMARK    6  A    between atoms: C_13  and  C_14
REMARK    7  A    between atoms: C_14  and  C_15
REMARK    8  A    between atoms: N_17  and  C_18
REMARK    9  A    between atoms: C_18  and  C_19
REMARK   10  A    between atoms: C_23  and  C_24
REMARK                            x       y       z     vdW  Elec       q    Type
REMARK                         _______ _______ _______ _____ _____    ______ ____
ROOT
ATOM      1  C   UNL     1       5.922   6.433  16.974  0.00  0.00    +0.000 C 
ATOM      2  C   UNL     1       5.415   5.826  18.323  0.00  0.00    +0.000 C 
ATOM      3  N   UNL     1       4.003   5.425  18.333  0.00  0.00    +0.000 NA
ATOM      4  C   UNL     1       3.889   4.400  17.251  0.00  0.00    +0.000 C 
ATOM      5  C   UNL     1       4.409   4.859  15.840  0.00  0.00    +0.000 C 
ATOM      6  N   UNL     1       5.743   5.529  15.789  0.00  0.00    +0.000 NA
ENDROOT
BRANCH   1   8
ATOM      7  C   UNL     1       7.920   6.676  18.588  0.00  0.00    +0.000 C 
ATOM      8  C   UNL     1       7.342   6.998  17.203  0.00  0.00    +0.000 C 
ENDBRANCH   1   8
BRANCH   4   9
ATOM      9  C   UNL     1       2.501   3.726  17.253  0.00  0.00    +0.000 C 
ATOM     10  C   UNL     1       2.540   2.281  17.734  0.00  0.00    +0.000 C 
ENDBRANCH   4   9
BRANCH   3  11
ATOM     11  C   UNL     1       3.067   6.564  18.222  0.00  0.00    +0.000 C 
BRANCH  11  12
ATOM     12  C   UNL     1       2.305   6.850  19.496  0.00  0.00    +0.000 A 
ATOM     13  C   UNL     1       1.886   8.119  19.965  0.00  0.00    +0.000 A 
ATOM     14  N   UNL     1       1.222   8.058  21.123  0.00  0.00    +0.000 NA
ATOM     15  O   UNL     1       1.165   6.713  21.427  0.00  0.00    +0.000 OA
ATOM     16  C   UNL     1       1.798   5.995  20.459  0.00  0.00    +0.000 A 
ATOM     17  C   UNL     1       1.755   4.535  20.657  0.00  0.00    +0.000 C 
ENDBRANCH  11  12
ENDBRANCH   3  11
BRANCH   6  18
ATOM     18  C   UNL     1       6.869   4.627  15.431  0.00  0.00    +0.000 C 
BRANCH  18  19
ATOM     19  C   UNL     1       6.941   4.315  13.941  0.00  0.00    +0.000 A 
ATOM     20  C   UNL     1       6.142   3.375  13.233  0.00  0.00    +0.000 A 
ATOM     21  N   UNL     1       6.394   3.348  11.930  0.00  0.00    +0.000 NA
ATOM     22  O   UNL     1       7.360   4.311  11.731  0.00  0.00    +0.000 OA
ATOM     23  C   UNL     1       7.673   4.909  12.918  0.00  0.00    +0.000 A 
ATOM     24  C   UNL     1       8.650   6.012  12.756  0.00  0.00    +0.000 C 
ENDBRANCH  18  19
ENDBRANCH   6  18
TORSDOF 6
ENDMDL
MODEL 2
REMARK VINA RESULT:      -6.5      2.839      8.274
REMARK  Name = 
REMARK  10 active torsions:
REMARK  status: ('A' for Active; 'I' for Inactive)
REMARK    1  A    between atoms: C_1  and  C_2
REMARK    2  A    between atoms: C_2  and  C_3
REMARK    3  A    between atoms: N_5  and  C_6
REMARK    4  A    between atoms: C_6  and  C_7
REMARK    5  A    between atoms: C_11  and  C_12
REMARK    6  A    between atoms: C_13  and  C_14
REMARK    7  A    between atoms: C_14  and  C_15
REMARK    8  A    between atoms: N_17  and  C_18
REMARK    9  A    between atoms: C_18  and  C_19
REMARK   10  A    between atoms: C_23  and  C_24
REMARK                            x       y       z     vdW  Elec       q    Type
REMARK                         _______ _______ _______ _____ _____    ______ ____
ROOT
ATOM      1  C   UNL     1       2.218   8.298  18.792  0.00  0.00    +0.000 C 
ATOM      2  C   UNL     1       2.082   6.883  18.141  0.00  0.00    +0.000 C 
ATOM      3  N   UNL     1       2.631   5.777  18.936  0.00  0.00    +0.000 NA
ATOM      4  C   UNL     1       1.866   5.811  20.220  0.00  0.00    +0.000 C 
ATOM      5  C   UNL     1       1.876   7.195  20.965  0.00  0.00    +0.000 C 
ATOM      6  N   UNL     1       1.586   8.413  20.150  0.00  0.00    +0.000 NA
ENDROOT
BRANCH   1   8
ATOM      7  C   UNL     1       2.280  10.774  18.071  0.00  0.00    +0.000 C 
ATOM      8  C   UNL     1       1.799   9.353  17.744  0.00  0.00    +0.000 C 
ENDBRANCH   1   8
BRANCH   4   9
ATOM      9  C   UNL     1       2.186   4.587  21.102  0.00  0.00    +0.000 C 
ATOM     10  C   UNL     1       1.249   3.411  20.854  0.00  0.00    +0.000 C 
ENDBRANCH   4   9
BRANCH   3  11
ATOM     11  C   UNL     1       4.102   5.829  19.078  0.00  0.00    +0.000 C 
BRANCH  11  12
ATOM     12  C   UNL     1       4.840   5.835  17.759  0.00  0.00    +0.000 A 
ATOM     13  C   UNL     1       5.657   6.875  17.252  0.00  0.00    +0.000 A 
ATOM     14  N   UNL     1       6.186   6.592  16.057  0.00  0.00    +0.000 NA
ATOM     15  O   UNL     1       5.741   5.319  15.766  0.00  0.00    +0.000 OA
ATOM     16  C   UNL     1       4.951   4.865  16.779  0.00  0.00    +0.000 A 
ATOM     17  C   UNL     1       4.456   3.489  16.596  0.00  0.00    +0.000 C 
ENDBRANCH  11  12
ENDBRANCH   3  11
BRANCH   6  18
ATOM     18  C   UNL     1       0.175   8.875  20.218  0.00  0.00    +0.000 C 
BRANCH  18  19
ATOM     19  C   UNL     1      -0.101   9.797  21.399  0.00  0.00    +0.000 A 
ATOM     20  C   UNL     1      -0.354   9.401  22.741  0.00  0.00    +0.000 A 
ATOM     21  N   UNL     1      -0.514  10.427  23.570  0.00  0.00    +0.000 NA
ATOM     22  O   UNL     1      -0.334  11.549  22.790  0.00  0.00    +0.000 OA
ATOM     23  C   UNL     1      -0.062  11.184  21.503  0.00  0.00    +0.000 A 
ATOM     24  C   UNL     1       0.222  12.349  20.633  0.00  0.00    +0.000 C 
ENDBRANCH  18  19
ENDBRANCH   6  18
TORSDOF 6
ENDMDL
MODEL 3
REMARK VINA RESULT:      -6.5      2.847      8.284
REMARK  Name = 
REMARK  10 active torsions:
REMARK  status: ('A' for Active; 'I' for Inactive)
REMARK    1  A    between atoms: C_1  and  C_2
REMARK    2  A    between atoms: C_2  and  C_3
REMARK    3  A    between atoms: N_5  and  C_6
REMARK    4  A    between atoms: C_6  and  C_7
REMARK    5  A    between atoms: C_11  and  C_12
REMARK    6  A    between atoms: C_13  and  C_14
REMARK    7  A    between atoms: C_14  and  C_15
REMARK    8  A    between atoms: N_17  and  C_18
REMARK    9  A    between atoms: C_18  and  C_19
REMARK   10  A    between atoms: C_23  and  C_24
REMARK                            x       y       z     vdW  Elec       q    Type
REMARK                         _______ _______ _______ _____ _____    ______ ____
ROOT
ATOM      1  C   UNL     1       2.283   8.111  18.785  0.00  0.00    +0.000 C 
ATOM      2  C   UNL     1       2.121   6.681  18.174  0.00  0.00    +0.000 C 
ATOM      3  N   UNL     1       2.640   5.588  19.005  0.00  0.00    +0.000 NA
ATOM      4  C   UNL     1       1.865   5.676  20.281  0.00  0.00    +0.000 C 
ATOM      5  C   UNL     1       1.899   7.081  20.986  0.00  0.00    +0.000 C 
ATOM      6  N   UNL     1       1.642   8.280  20.133  0.00  0.00    +0.000 NA
ENDROOT
BRANCH   1   8
ATOM      7  C   UNL     1       2.398  10.565  17.996  0.00  0.00    +0.000 C 
ATOM      8  C   UNL     1       1.895   9.144  17.703  0.00  0.00    +0.000 C 
ENDBRANCH   1   8
BRANCH   4   9
ATOM      9  C   UNL     1       2.151   4.471  21.201  0.00  0.00    +0.000 C 
ATOM     10  C   UNL     1       1.355   3.229  20.822  0.00  0.00    +0.000 C 
ENDBRANCH   4   9
BRANCH   3  11
ATOM     11  C   UNL     1       4.110   5.612  19.159  0.00  0.00    +0.000 C 
BRANCH  11  12
ATOM     12  C   UNL     1       4.851   4.981  18.003  0.00  0.00    +0.000 A 
ATOM     13  C   UNL     1       4.293   4.185  16.972  0.00  0.00    +0.000 A 
ATOM     14  N   UNL     1       5.199   3.770  16.080  0.00  0.00    +0.000 NA
ATOM     15  O   UNL     1       6.390   4.324  16.502  0.00  0.00    +0.000 OA
ATOM     16  C   UNL     1       6.184   5.050  17.636  0.00  0.00    +0.000 A 
ATOM     17  C   UNL     1       7.386   5.730  18.151  0.00  0.00    +0.000 C 
ENDBRANCH  11  12
ENDBRANCH   3  11
BRANCH   6  18
ATOM     18  C   UNL     1       0.241   8.775  20.176  0.00  0.00    +0.000 C 
BRANCH  18  19
ATOM     19  C   UNL     1      -0.032   9.711  21.346  0.00  0.00    +0.000 A 
ATOM     20  C   UNL     1      -0.362   9.331  22.676  0.00  0.00    +0.000 A 
ATOM     21  N   UNL     1      -0.499  10.364  23.499  0.00  0.00    +0.000 NA
ATOM     22  O   UNL     1      -0.226  11.474  22.729  0.00  0.00    +0.000 OA
ATOM     23  C   UNL     1       0.078  11.094  21.454  0.00  0.00    +0.000 A 
ATOM     24  C   UNL     1       0.462  12.241  20.598  0.00  0.00    +0.000 C 
ENDBRANCH  18  19
ENDBRANCH   6  18
TORSDOF 6
ENDMDL
MODEL 4
REMARK VINA RESULT:      -6.5      1.871      2.114
REMARK  Name = 
REMARK  10 active torsions:
REMARK  status: ('A' for Active; 'I' for Inactive)
REMARK    1  A    between atoms: C_1  and  C_2
REMARK    2  A    between atoms: C_2  and  C_3
REMARK    3  A    between atoms: N_5  and  C_6
REMARK    4  A    between atoms: C_6  and  C_7
REMARK    5  A    between atoms: C_11  and  C_12
REMARK    6  A    between atoms: C_13  and  C_14
REMARK    7  A    between atoms: C_14  and  C_15
REMARK    8  A    between atoms: N_17  and  C_18
REMARK    9  A    between atoms: C_18  and  C_19
REMARK   10  A    between atoms: C_23  and  C_24
REMARK                            x       y       z     vdW  Elec       q    Type
REMARK                         _______ _______ _______ _____ _____    ______ ____
ROOT
ATOM      1  C   UNL     1       5.584   5.999  17.417  0.00  0.00    +0.000 C 
ATOM      2  C   UNL     1       5.646   5.109  18.701  0.00  0.00    +0.000 C 
ATOM      3  N   UNL     1       4.580   4.107  18.815  0.00  0.00    +0.000 NA
ATOM      4  C   UNL     1       4.733   3.245  17.603  0.00  0.00    +0.000 C 
ATOM      5  C   UNL     1       4.736   4.016  16.233  0.00  0.00    +0.000 C 
ATOM      6  N   UNL     1       5.609   5.224  16.131  0.00  0.00    +0.000 NA
ENDROOT
BRANCH   1   8
ATOM      7  C   UNL     1       7.838   6.745  18.427  0.00  0.00    +0.000 C 
ATOM      8  C   UNL     1       6.629   7.129  17.562  0.00  0.00    +0.000 C 
ENDBRANCH   1   8
BRANCH   4   9
ATOM      9  C   UNL     1       3.806   2.014  17.663  0.00  0.00    +0.000 C 
ATOM     10  C   UNL     1       4.148   1.064  18.803  0.00  0.00    +0.000 C 
ENDBRANCH   4   9
BRANCH   3  11
ATOM     11  C   UNL     1       3.237   4.696  19.003  0.00  0.00    +0.000 C 
BRANCH  11  12
ATOM     12  C   UNL     1       2.398   3.978  20.036  0.00  0.00    +0.000 A 
ATOM     13  C   UNL     1       2.549   4.045  21.443  0.00  0.00    +0.000 A 
ATOM     14  N   UNL     1       1.652   3.304  22.102  0.00  0.00    +0.000 NA
ATOM     15  O   UNL     1       0.858   2.751  21.118  0.00  0.00    +0.000 OA
ATOM     16  C   UNL     1       1.294   3.157  19.894  0.00  0.00    +0.000 A 
ATOM     17  C   UNL     1       0.485   2.663  18.765  0.00  0.00    +0.000 C 
ENDBRANCH  11  12
ENDBRANCH   3  11
BRANCH   6  18
ATOM     18  C   UNL     1       6.931   4.975  15.500  0.00  0.00    +0.000 C 
BRANCH  18  19
ATOM     19  C   UNL     1       6.830   4.533  14.045  0.00  0.00    +0.000 A 
ATOM     20  C   UNL     1       5.884   3.622  13.500  0.00  0.00    +0.000 A 
ATOM     21  N   UNL     1       6.006   3.461  12.187  0.00  0.00    +0.000 NA
ATOM     22  O   UNL     1       7.033   4.302  11.817  0.00  0.00    +0.000 OA
ATOM     23  C   UNL     1       7.513   4.963  12.911  0.00  0.00    +0.000 A 
ATOM     24  C   UNL     1       8.567   5.945  12.562  0.00  0.00    +0.000 C 
ENDBRANCH  18  19
ENDBRANCH   6  18
TORSDOF 6
ENDMDL
MODEL 5
REMARK VINA RESULT:      -6.4      1.620      7.824
REMARK  Name = 
REMARK  10 active torsions:
REMARK  status: ('A' for Active; 'I' for Inactive)
REMARK    1  A    between atoms: C_1  and  C_2
REMARK    2  A    between atoms: C_2  and  C_3
REMARK    3  A    between atoms: N_5  and  C_6
REMARK    4  A    between atoms: C_6  and  C_7
REMARK    5  A    between atoms: C_11  and  C_12
REMARK    6  A    between atoms: C_13  and  C_14
REMARK    7  A    between atoms: C_14  and  C_15
REMARK    8  A    between atoms: N_17  and  C_18
REMARK    9  A    between atoms: C_18  and  C_19
REMARK   10  A    between atoms: C_23  and  C_24
REMARK                            x       y       z     vdW  Elec       q    Type
REMARK                         _______ _______ _______ _____ _____    ______ ____
ROOT
ATOM      1  C   UNL     1       4.403   3.639  17.359  0.00  0.00    +0.000 C 
ATOM      2  C   UNL     1       5.822   3.414  16.741  0.00  0.00    +0.000 C 
ATOM      3  N   UNL     1       6.461   4.618  16.198  0.00  0.00    +0.000 NA
ATOM      4  C   UNL     1       6.566   5.553  17.360  0.00  0.00    +0.000 C 
ATOM      5  C   UNL     1       5.215   5.836  18.112  0.00  0.00    +0.000 C 
ATOM      6  N   UNL     1       4.369   4.656  18.463  0.00  0.00    +0.000 NA
ENDROOT
BRANCH   1   8
ATOM      7  C   UNL     1       2.258   2.225  17.594  0.00  0.00    +0.000 C 
ATOM      8  C   UNL     1       3.791   2.256  17.676  0.00  0.00    +0.000 C 
ENDBRANCH   1   8
BRANCH   4   9
ATOM      9  C   UNL     1       7.397   6.804  17.007  0.00  0.00    +0.000 C 
ATOM     10  C   UNL     1       7.964   7.509  18.232  0.00  0.00    +0.000 C 
ENDBRANCH   4   9
BRANCH   3  11
ATOM     11  C   UNL     1       5.773   5.165  15.010  0.00  0.00    +0.000 C 
BRANCH  11  12
ATOM     12  C   UNL     1       6.185   4.509  13.712  0.00  0.00    +0.000 A 
ATOM     13  C   UNL     1       5.505   3.463  13.040  0.00  0.00    +0.000 A 
ATOM     14  N   UNL     1       6.107   3.090  11.905  0.00  0.00    +0.000 NA
ATOM     15  O   UNL     1       7.200   3.925  11.794  0.00  0.00    +0.000 OA
ATOM     16  C   UNL     1       7.242   4.773  12.859  0.00  0.00    +0.000 A 
ATOM     17  C   UNL     1       8.347   5.747  12.820  0.00  0.00    +0.000 C 
ENDBRANCH  11  12
ENDBRANCH   3  11
BRANCH   6  18
ATOM     18  C   UNL     1       4.542   4.169  19.857  0.00  0.00    +0.000 C 
BRANCH  18  19
ATOM     19  C   UNL     1       3.225   3.839  20.547  0.00  0.00    +0.000 A 
ATOM     20  C   UNL     1       2.914   2.643  21.252  0.00  0.00    +0.000 A 
ATOM     21  N   UNL     1       1.701   2.652  21.792  0.00  0.00    +0.000 NA
ATOM     22  O   UNL     1       1.180   3.890  21.483  0.00  0.00    +0.000 OA
ATOM     23  C   UNL     1       2.088   4.613  20.765  0.00  0.00    +0.000 A 
ATOM     24  C   UNL     1       1.615   5.986  20.472  0.00  0.00    +0.000 C 
ENDBRANCH  18  19
ENDBRANCH   6  18
TORSDOF 6
ENDMDL
MODEL 6
REMARK VINA RESULT:      -6.3      1.381      2.086
REMARK  Name = 
REMARK  10 active torsions:
REMARK  status: ('A' for Active; 'I' for Inactive)
REMARK    1  A    between atoms: C_1  and  C_2
REMARK    2  A    between atoms: C_2  and  C_3
REMARK    3  A    between atoms: N_5  and  C_6
REMARK    4  A    between atoms: C_6  and  C_7
REMARK    5  A    between atoms: C_11  and  C_12
REMARK    6  A    between atoms: C_13  and  C_14
REMARK    7  A    between atoms: C_14  and  C_15
REMARK    8  A    between atoms: N_17  and  C_18
REMARK    9  A    between atoms: C_18  and  C_19
REMARK   10  A    between atoms: C_23  and  C_24
REMARK                            x       y       z     vdW  Elec       q    Type
REMARK                         _______ _______ _______ _____ _____    ______ ____
ROOT
ATOM      1  C   UNL     1       4.821   5.837  16.946  0.00  0.00    +0.000 C 
ATOM      2  C   UNL     1       4.661   5.576  18.479  0.00  0.00    +0.000 C 
ATOM      3  N   UNL     1       3.521   4.729  18.850  0.00  0.00    +0.000 NA
ATOM      4  C   UNL     1       3.764   3.432  18.146  0.00  0.00    +0.000 C 
ATOM      5  C   UNL     1       3.991   3.548  16.595  0.00  0.00    +0.000 C 
ATOM      6  N   UNL     1       4.952   4.589  16.121  0.00  0.00    +0.000 NA
ENDROOT
BRANCH   1   8
ATOM      7  C   UNL     1       7.071   6.805  17.757  0.00  0.00    +0.000 C 
ATOM      8  C   UNL     1       5.916   6.911  16.752  0.00  0.00    +0.000 C 
ENDBRANCH   1   8
BRANCH   4   9
ATOM      9  C   UNL     1       2.753   2.352  18.583  0.00  0.00    +0.000 C 
ATOM     10  C   UNL     1       2.527   2.321  20.090  0.00  0.00    +0.000 C 
ENDBRANCH   4   9
BRANCH   3  11
ATOM     11  C   UNL     1       2.210   5.355  18.580  0.00  0.00    +0.000 C 
BRANCH  11  12
ATOM     12  C   UNL     1       1.963   6.616  19.377  0.00  0.00    +0.000 A 
ATOM     13  C   UNL     1       1.662   6.698  20.758  0.00  0.00    +0.000 A 
ATOM     14  N   UNL     1       1.502   7.955  21.187  0.00  0.00    +0.000 NA
ATOM     15  O   UNL     1       1.731   8.739  20.075  0.00  0.00    +0.000 OA
ATOM     16  C   UNL     1       2.014   7.947  19.004  0.00  0.00    +0.000 A 
ATOM     17  C   UNL     1       2.325   8.684  17.766  0.00  0.00    +0.000 C 
ENDBRANCH  11  12
ENDBRANCH   3  11
BRANCH   6  18
ATOM     18  C   UNL     1       6.322   4.082  15.848  0.00  0.00    +0.000 C 
BRANCH  18  19
ATOM     19  C   UNL     1       6.879   4.542  14.507  0.00  0.00    +0.000 A 
ATOM     20  C   UNL     1       7.971   5.428  14.302  0.00  0.00    +0.000 A 
ATOM     21  N   UNL     1       8.265   5.613  13.020  0.00  0.00    +0.000 NA
ATOM     22  O   UNL     1       7.380   4.813  12.331  0.00  0.00    +0.000 OA
ATOM     23  C   UNL     1       6.568   4.152  13.207  0.00  0.00    +0.000 A 
ATOM     24  C   UNL     1       5.647   3.212  12.527  0.00  0.00    +0.000 C 
ENDBRANCH  18  19
ENDBRANCH   6  18
TORSDOF 6
ENDMDL
MODEL 7
REMARK VINA RESULT:      -6.3      2.931      8.337
REMARK  Name = 
REMARK  10 active torsions:
REMARK  status: ('A' for Active; 'I' for Inactive)
REMARK    1  A    between atoms: C_1  and  C_2
REMARK    2  A    between atoms: C_2  and  C_3
REMARK    3  A    between atoms: N_5  and  C_6
REMARK    4  A    between atoms: C_6  and  C_7
REMARK    5  A    between atoms: C_11  and  C_12
REMARK    6  A    between atoms: C_13  and  C_14
REMARK    7  A    between atoms: C_14  and  C_15
REMARK    8  A    between atoms: N_17  and  C_18
REMARK    9  A    between atoms: C_18  and  C_19
REMARK   10  A    between atoms: C_23  and  C_24
REMARK                            x       y       z     vdW  Elec       q    Type
REMARK                         _______ _______ _______ _____ _____    ______ ____
ROOT
ATOM      1  C   UNL     1       2.261   8.231  18.754  0.00  0.00    +0.000 C 
ATOM      2  C   UNL     1       2.144   6.803  18.128  0.00  0.00    +0.000 C 
ATOM      3  N   UNL     1       2.642   5.710  18.973  0.00  0.00    +0.000 NA
ATOM      4  C   UNL     1       1.813   5.780  20.216  0.00  0.00    +0.000 C 
ATOM      5  C   UNL     1       1.800   7.180  20.931  0.00  0.00    +0.000 C 
ATOM      6  N   UNL     1       1.563   8.381  20.075  0.00  0.00    +0.000 NA
ENDROOT
BRANCH   1   8
ATOM      7  C   UNL     1       2.354  10.695  17.998  0.00  0.00    +0.000 C 
ATOM      8  C   UNL     1       1.905   9.266  17.664  0.00  0.00    +0.000 C 
ENDBRANCH   1   8
BRANCH   4   9
ATOM      9  C   UNL     1       2.076   4.572  21.140  0.00  0.00    +0.000 C 
ATOM     10  C   UNL     1       1.270   3.339  20.754  0.00  0.00    +0.000 C 
ENDBRANCH   4   9
BRANCH   3  11
ATOM     11  C   UNL     1       4.103   5.752  19.188  0.00  0.00    +0.000 C 
BRANCH  11  12
ATOM     12  C   UNL     1       4.897   5.068  18.099  0.00  0.00    +0.000 A 
ATOM     13  C   UNL     1       4.380   4.278  17.044  0.00  0.00    +0.000 A 
ATOM     14  N   UNL     1       5.328   3.808  16.226  0.00  0.00    +0.000 NA
ATOM     15  O   UNL     1       6.509   4.319  16.724  0.00  0.00    +0.000 OA
ATOM     16  C   UNL     1       6.254   5.074  17.828  0.00  0.00    +0.000 A 
ATOM     17  C   UNL     1       7.445   5.713  18.417  0.00  0.00    +0.000 C 
ENDBRANCH  11  12
ENDBRANCH   3  11
BRANCH   6  18
ATOM     18  C   UNL     1       0.154   8.857  20.062  0.00  0.00    +0.000 C 
BRANCH  18  19
ATOM     19  C   UNL     1      -0.063  10.119  20.889  0.00  0.00    +0.000 A 
ATOM     20  C   UNL     1      -0.383  11.412  20.392  0.00  0.00    +0.000 A 
ATOM     21  N   UNL     1      -0.560  12.314  21.351  0.00  0.00    +0.000 NA
ATOM     22  O   UNL     1      -0.392  11.620  22.530  0.00  0.00    +0.000 OA
ATOM     23  C   UNL     1      -0.121  10.309  22.266  0.00  0.00    +0.000 A 
ATOM     24  C   UNL     1      -0.011   9.494  23.499  0.00  0.00    +0.000 C 
ENDBRANCH  18  19
ENDBRANCH   6  18
TORSDOF 6
ENDMDL
MODEL 8
REMARK VINA RESULT:      -6.3      2.759      6.244
REMARK  Name = 
REMARK  10 active torsions:
REMARK  status: ('A' for Active; 'I' for Inactive)
REMARK    1  A    between atoms: C_1  and  C_2
REMARK    2  A    between atoms: C_2  and  C_3
REMARK    3  A    between atoms: N_5  and  C_6
REMARK    4  A    between atoms: C_6  and  C_7
REMARK    5  A    between atoms: C_11  and  C_12
REMARK    6  A    between atoms: C_13  and  C_14
REMARK    7  A    between atoms: C_14  and  C_15
REMARK    8  A    between atoms: N_17  and  C_18
REMARK    9  A    between atoms: C_18  and  C_19
REMARK   10  A    between atoms: C_23  and  C_24
REMARK                            x       y       z     vdW  Elec       q    Type
REMARK                         _______ _______ _______ _____ _____    ______ ____
ROOT
ATOM      1  C   UNL     1       4.864   5.278  17.380  0.00  0.00    +0.000 C 
ATOM      2  C   UNL     1       5.075   6.197  16.132  0.00  0.00    +0.000 C 
ATOM      3  N   UNL     1       5.987   5.663  15.113  0.00  0.00    +0.000 NA
ATOM      4  C   UNL     1       5.367   4.373  14.683  0.00  0.00    +0.000 C 
ATOM      5  C   UNL     1       5.053   3.363  15.847  0.00  0.00    +0.000 C 
ATOM      6  N   UNL     1       4.355   3.904  17.051  0.00  0.00    +0.000 NA
ENDROOT
BRANCH   1   8
ATOM      7  C   UNL     1       3.330   7.294  17.865  0.00  0.00    +0.000 C 
ATOM      8  C   UNL     1       4.067   6.075  18.437  0.00  0.00    +0.000 C 
ENDBRANCH   1   8
BRANCH   4   9
ATOM      9  C   UNL     1       6.101   3.769  13.468  0.00  0.00    +0.000 C 
ATOM     10  C   UNL     1       5.172   3.462  12.301  0.00  0.00    +0.000 C 
ENDBRANCH   4   9
BRANCH   3  11
ATOM     11  C   UNL     1       7.389   5.566  15.571  0.00  0.00    +0.000 C 
BRANCH  11  12
ATOM     12  C   UNL     1       7.554   5.741  17.064  0.00  0.00    +0.000 A 
ATOM     13  C   UNL     1       7.683   4.711  18.027  0.00  0.00    +0.000 A 
ATOM     14  N   UNL     1       7.822   5.173  19.274  0.00  0.00    +0.000 NA
ATOM     15  O   UNL     1       7.818   6.546  19.145  0.00  0.00    +0.000 OA
ATOM     16  C   UNL     1       7.668   6.884  17.834  0.00  0.00    +0.000 A 
ATOM     17  C   UNL     1       7.699   8.334  17.572  0.00  0.00    +0.000 C 
ENDBRANCH  11  12
ENDBRANCH   3  11
BRANCH   6  18
ATOM     18  C   UNL     1       2.884   3.693  17.054  0.00  0.00    +0.000 C 
BRANCH  18  19
ATOM     19  C   UNL     1       2.340   3.257  18.408  0.00  0.00    +0.000 A 
ATOM     20  C   UNL     1       0.977   3.258  18.815  0.00  0.00    +0.000 A 
ATOM     21  N   UNL     1       0.794   2.778  20.039  0.00  0.00    +0.000 NA
ATOM     22  O   UNL     1       2.049   2.408  20.471  0.00  0.00    +0.000 OA
ATOM     23  C   UNL     1       2.972   2.665  19.498  0.00  0.00    +0.000 A 
ATOM     24  C   UNL     1       4.332   2.212  19.874  0.00  0.00    +0.000 C 
ENDBRANCH  18  19
ENDBRANCH   6  18
TORSDOF 6
ENDMDL
MODEL 9
REMARK VINA RESULT:      -6.2      2.915      8.394
REMARK  Name = 
REMARK  10 active torsions:
REMARK  status: ('A' for Active; 'I' for Inactive)
REMARK    1  A    between atoms: C_1  and  C_2
REMARK    2  A    between atoms: C_2  and  C_3
REMARK    3  A    between atoms: N_5  and  C_6
REMARK    4  A    between atoms: C_6  and  C_7
REMARK    5  A    between atoms: C_11  and  C_12
REMARK    6  A    between atoms: C_13  and  C_14
REMARK    7  A    between atoms: C_14  and  C_15
REMARK    8  A    between atoms: N_17  and  C_18
REMARK    9  A    between atoms: C_18  and  C_19
REMARK   10  A    between atoms: C_23  and  C_24
REMARK                            x       y       z     vdW  Elec       q    Type
REMARK                         _______ _______ _______ _____ _____    ______ ____
ROOT
ATOM      1  C   UNL     1       2.161   8.544  18.748  0.00  0.00    +0.000 C 
ATOM      2  C   UNL     1       2.007   7.145  18.068  0.00  0.00    +0.000 C 
ATOM      3  N   UNL     1       2.497   6.011  18.860  0.00  0.00    +0.000 NA
ATOM      4  C   UNL     1       1.690   6.045  20.118  0.00  0.00    +0.000 C 
ATOM      5  C   UNL     1       1.714   7.416  20.888  0.00  0.00    +0.000 C 
ATOM      6  N   UNL     1       1.487   8.655  20.085  0.00  0.00    +0.000 NA
ENDROOT
BRANCH   1   8
ATOM      7  C   UNL     1       2.271  11.039  18.098  0.00  0.00    +0.000 C 
ATOM      8  C   UNL     1       1.807   9.629  17.705  0.00  0.00    +0.000 C 
ENDBRANCH   1   8
BRANCH   4   9
ATOM      9  C   UNL     1       1.945   4.797  20.989  0.00  0.00    +0.000 C 
ATOM     10  C   UNL     1       1.121   3.591  20.558  0.00  0.00    +0.000 C 
ENDBRANCH   4   9
BRANCH   3  11
ATOM     11  C   UNL     1       3.962   6.017  19.052  0.00  0.00    +0.000 C 
BRANCH  11  12
ATOM     12  C   UNL     1       4.716   5.229  18.005  0.00  0.00    +0.000 A 
ATOM     13  C   UNL     1       6.037   5.469  17.553  0.00  0.00    +0.000 A 
ATOM     14  N   UNL     1       6.439   4.599  16.621  0.00  0.00    +0.000 NA
ATOM     15  O   UNL     1       5.376   3.734  16.463  0.00  0.00    +0.000 OA
ATOM     16  C   UNL     1       4.358   4.100  17.290  0.00  0.00    +0.000 A 
ATOM     17  C   UNL     1       3.183   3.212  17.240  0.00  0.00    +0.000 C 
ENDBRANCH  11  12
ENDBRANCH   3  11
BRANCH   6  18
ATOM     18  C   UNL     1       0.088   9.157  20.115  0.00  0.00    +0.000 C 
BRANCH  18  19
ATOM     19  C   UNL     1      -0.110  10.333  21.062  0.00  0.00    +0.000 A 
ATOM     20  C   UNL     1      -0.417  11.672  20.697  0.00  0.00    +0.000 A 
ATOM     21  N   UNL     1      -0.579  12.477  21.741  0.00  0.00    +0.000 NA
ATOM     22  O   UNL     1      -0.414  11.670  22.845  0.00  0.00    +0.000 OA
ATOM     23  C   UNL     1      -0.160  10.388  22.452  0.00  0.00    +0.000 A 
ATOM     24  C   UNL     1      -0.054   9.454  23.598  0.00  0.00    +0.000 C 
ENDBRANCH  18  19
ENDBRANCH   6  18
TORSDOF 6
ENDMDL
