MODEL 1
REMARK VINA RESULT:      -8.5      0.000      0.000
REMARK  Name = 
REMARK  7 active torsions:
REMARK  status: ('A' for Active; 'I' for Inactive)
REMARK    1  A    between atoms: C_2  and  C_3
REMARK    2  A    between atoms: C_3  and  O_4
REMARK    3  A    between atoms: O_4  and  C_5
REMARK    4  A    between atoms: C_5  and  C_7
REMARK    5  A    between atoms: N_10  and  S_11
REMARK    6  A    between atoms: S_11  and  C_14
REMARK    7  A    between atoms: N_21  and  C_22
REMARK                            x       y       z     vdW  Elec       q    Type
REMARK                         _______ _______ _______ _____ _____    ______ ____
ROOT
ATOM      1  C   UNL     1       6.933   5.812  18.525  0.00  0.00    +0.000 C 
ATOM      2  O   UNL     1       6.785   4.866  19.286  0.00  0.00    +0.000 OA
ENDROOT
BRANCH   1   3
ATOM      3  C   UNL     1       6.291   5.927  17.147  0.00  0.00    +0.000 C 
ATOM      4  C   UNL     1       4.957   6.675  17.165  0.00  0.00    +0.000 C 
ATOM      5  C   UNL     1       3.825   5.848  17.769  0.00  0.00    +0.000 C 
ATOM      6  N   UNL     1       3.711   4.541  17.064  0.00  0.00    +0.000 NA
ATOM      7  C   UNL     1       4.972   3.754  17.141  0.00  0.00    +0.000 C 
ATOM      8  C   UNL     1       6.113   4.545  16.505  0.00  0.00    +0.000 C 
BRANCH   6   9
ATOM      9  S   UNL     1       2.342   3.616  17.552  0.00  0.00    +0.000 S 
ATOM     10  O   UNL     1       1.155   4.432  17.415  0.00  0.00    +0.000 OA
ATOM     11  O   UNL     1       2.436   2.318  16.916  0.00  0.00    +0.000 OA
BRANCH   9  12
ATOM     12  C   UNL     1       2.482   3.279  19.294  0.00  0.00    +0.000 A 
ATOM     13  C   UNL     1       3.245   2.372  20.006  0.00  0.00    +0.000 A 
ATOM     14  C   UNL     1       3.009   2.448  21.409  0.00  0.00    +0.000 A 
ATOM     15  C   UNL     1       2.074   3.410  21.721  0.00  0.00    +0.000 A 
ATOM     16  S   UNL     1       1.499   4.223  20.328  0.00  0.00    +0.000 S 
ENDBRANCH   9  12
ENDBRANCH   6   9
ENDBRANCH   1   3
BRANCH   1  17
ATOM     17  O   UNL     1       7.772   6.860  18.760  0.00  0.00    +0.000 OA
BRANCH  17  18
ATOM     18  C   UNL     1       7.950   7.724  17.635  0.00  0.00    +0.000 C 
BRANCH  18  20
ATOM     19  O   UNL     1       7.575  10.106  17.491  0.00  0.00    +0.000 OA
ATOM     20  C   UNL     1       8.193   9.189  18.025  0.00  0.00    +0.000 C 
ATOM     21  N   UNL     1       9.194   9.336  18.977  0.00  0.00    +0.000 N 
ATOM     22  H   UNL     1       9.779   8.531  19.185  0.00  0.00    +0.000 HD
BRANCH  21  23
ATOM     23  C   UNL     1       9.599  10.549  19.584  0.00  0.00    +0.000 A 
ATOM     24  C   UNL     1       9.217  10.934  20.874  0.00  0.00    +0.000 A 
ATOM     25  C   UNL     1       9.640  12.159  21.402  0.00  0.00    +0.000 A 
ATOM     26  C   UNL     1      10.446  13.001  20.643  0.00  0.00    +0.000 A 
ATOM     27  F   UNL     1      10.826  14.180  21.153  0.00  0.00    +0.000 F 
ATOM     28  C   UNL     1      10.851  12.625  19.372  0.00  0.00    +0.000 A 
ATOM     29  F   UNL     1      11.629  13.438  18.644  0.00  0.00    +0.000 F 
ATOM     30  C   UNL     1      10.439  11.400  18.852  0.00  0.00    +0.000 A 
ATOM     31  F   UNL     1      10.831  11.039  17.619  0.00  0.00    +0.000 F 
ENDBRANCH  21  23
ENDBRANCH  18  20
ENDBRANCH  17  18
ENDBRANCH   1  17
TORSDOF 7
ENDMDL
MODEL 2
REMARK VINA RESULT:      -8.5      1.774      2.362
REMARK  Name = 
REMARK  7 active torsions:
REMARK  status: ('A' for Active; 'I' for Inactive)
REMARK    1  A    between atoms: C_2  and  C_3
REMARK    2  A    between atoms: C_3  and  O_4
REMARK    3  A    between atoms: O_4  and  C_5
REMARK    4  A    between atoms: C_5  and  C_7
REMARK    5  A    between atoms: N_10  and  S_11
REMARK    6  A    between atoms: S_11  and  C_14
REMARK    7  A    between atoms: N_21  and  C_22
REMARK                            x       y       z     vdW  Elec       q    Type
REMARK                         _______ _______ _______ _____ _____    ______ ____
ROOT
ATOM      1  C   UNL     1       6.910   7.011  17.159  0.00  0.00    +0.000 C 
ATOM      2  O   UNL     1       5.781   7.211  16.732  0.00  0.00    +0.000 OA
ENDROOT
BRANCH   1   3
ATOM      3  C   UNL     1       7.352   5.747  17.887  0.00  0.00    +0.000 C 
ATOM      4  C   UNL     1       7.331   4.502  16.998  0.00  0.00    +0.000 C 
ATOM      5  C   UNL     1       5.916   4.004  16.714  0.00  0.00    +0.000 C 
ATOM      6  N   UNL     1       5.185   3.776  17.993  0.00  0.00    +0.000 NA
ATOM      7  C   UNL     1       5.100   5.015  18.813  0.00  0.00    +0.000 C 
ATOM      8  C   UNL     1       6.507   5.511  19.146  0.00  0.00    +0.000 C 
BRANCH   6   9
ATOM      9  S   UNL     1       3.644   3.037  17.779  0.00  0.00    +0.000 S 
ATOM     10  O   UNL     1       2.958   3.696  16.690  0.00  0.00    +0.000 OA
ATOM     11  O   UNL     1       3.839   1.601  17.782  0.00  0.00    +0.000 OA
BRANCH   9  12
ATOM     12  C   UNL     1       2.657   3.364  19.223  0.00  0.00    +0.000 A 
ATOM     13  C   UNL     1       1.519   4.123  19.417  0.00  0.00    +0.000 A 
ATOM     14  C   UNL     1       1.082   4.109  20.773  0.00  0.00    +0.000 A 
ATOM     15  C   UNL     1       1.902   3.339  21.569  0.00  0.00    +0.000 A 
ATOM     16  S   UNL     1       3.179   2.628  20.677  0.00  0.00    +0.000 S 
ENDBRANCH   9  12
ENDBRANCH   6   9
ENDBRANCH   1   3
BRANCH   1  17
ATOM     17  O   UNL     1       7.915   7.932  17.130  0.00  0.00    +0.000 OA
BRANCH  17  18
ATOM     18  C   UNL     1       8.385   8.318  18.424  0.00  0.00    +0.000 C 
BRANCH  18  20
ATOM     19  O   UNL     1       8.285  10.621  17.703  0.00  0.00    +0.000 OA
ATOM     20  C   UNL     1       8.695   9.817  18.537  0.00  0.00    +0.000 C 
ATOM     21  N   UNL     1       9.505  10.122  19.624  0.00  0.00    +0.000 N 
ATOM     22  H   UNL     1       9.955   9.355  20.115  0.00  0.00    +0.000 HD
BRANCH  21  23
ATOM     23  C   UNL     1       9.905  11.417  20.031  0.00  0.00    +0.000 A 
ATOM     24  C   UNL     1      10.857  12.183  19.349  0.00  0.00    +0.000 A 
ATOM     25  C   UNL     1      11.218  13.449  19.823  0.00  0.00    +0.000 A 
ATOM     26  C   UNL     1      10.628  13.954  20.977  0.00  0.00    +0.000 A 
ATOM     27  F   UNL     1      10.998  15.158  21.431  0.00  0.00    +0.000 F 
ATOM     28  C   UNL     1       9.666  13.217  21.651  0.00  0.00    +0.000 A 
ATOM     29  F   UNL     1       9.098  13.706  22.763  0.00  0.00    +0.000 F 
ATOM     30  C   UNL     1       9.299  11.961  21.173  0.00  0.00    +0.000 A 
ATOM     31  F   UNL     1       8.369  11.249  21.829  0.00  0.00    +0.000 F 
ENDBRANCH  21  23
ENDBRANCH  18  20
ENDBRANCH  17  18
ENDBRANCH   1  17
TORSDOF 7
ENDMDL
MODEL 3
REMARK VINA RESULT:      -8.4      1.517      1.817
REMARK  Name = 
REMARK  7 active torsions:
REMARK  status: ('A' for Active; 'I' for Inactive)
REMARK    1  A    between atoms: C_2  and  C_3
REMARK    2  A    between atoms: C_3  and  O_4
REMARK    3  A    between atoms: O_4  and  C_5
REMARK    4  A    between atoms: C_5  and  C_7
REMARK    5  A    between atoms: N_10  and  S_11
REMARK    6  A    between atoms: S_11  and  C_14
REMARK    7  A    between atoms: N_21  and  C_22
REMARK                            x       y       z     vdW  Elec       q    Type
REMARK                         _______ _______ _______ _____ _____    ______ ____
ROOT
ATOM      1  C   UNL     1       6.795   7.015  16.934  0.00  0.00    +0.000 C 
ATOM      2  O   UNL     1       5.707   7.434  17.306  0.00  0.00    +0.000 OA
ENDROOT
BRANCH   1   3
ATOM      3  C   UNL     1       7.056   5.599  16.436  0.00  0.00    +0.000 C 
ATOM      4  C   UNL     1       6.001   5.105  15.446  0.00  0.00    +0.000 C 
ATOM      5  C   UNL     1       4.673   4.766  16.119  0.00  0.00    +0.000 C 
ATOM      6  N   UNL     1       4.891   3.787  17.220  0.00  0.00    +0.000 NA
ATOM      7  C   UNL     1       5.830   4.308  18.251  0.00  0.00    +0.000 C 
ATOM      8  C   UNL     1       7.181   4.617  17.609  0.00  0.00    +0.000 C 
BRANCH   6   9
ATOM      9  S   UNL     1       3.428   3.202  17.917  0.00  0.00    +0.000 S 
ATOM     10  O   UNL     1       2.453   3.016  16.865  0.00  0.00    +0.000 OA
ATOM     11  O   UNL     1       3.769   2.123  18.821  0.00  0.00    +0.000 OA
BRANCH   9  12
ATOM     12  C   UNL     1       2.754   4.475  18.963  0.00  0.00    +0.000 A 
ATOM     13  C   UNL     1       2.801   5.854  18.895  0.00  0.00    +0.000 A 
ATOM     14  C   UNL     1       2.124   6.475  19.984  0.00  0.00    +0.000 A 
ATOM     15  C   UNL     1       1.583   5.548  20.847  0.00  0.00    +0.000 A 
ATOM     16  S   UNL     1       1.879   3.941  20.333  0.00  0.00    +0.000 S 
ENDBRANCH   9  12
ENDBRANCH   6   9
ENDBRANCH   1   3
BRANCH   1  17
ATOM     17  O   UNL     1       7.954   7.729  17.001  0.00  0.00    +0.000 OA
BRANCH  17  18
ATOM     18  C   UNL     1       8.343   8.080  18.331  0.00  0.00    +0.000 C 
BRANCH  18  20
ATOM     19  O   UNL     1       8.152  10.410  17.722  0.00  0.00    +0.000 OA
ATOM     20  C   UNL     1       8.596   9.584  18.515  0.00  0.00    +0.000 C 
ATOM     21  N   UNL     1       9.397   9.867  19.614  0.00  0.00    +0.000 N 
ATOM     22  H   UNL     1       9.879   9.095  20.067  0.00  0.00    +0.000 HD
BRANCH  21  23
ATOM     23  C   UNL     1       9.749  11.156  20.082  0.00  0.00    +0.000 A 
ATOM     24  C   UNL     1       9.073  11.816  21.114  0.00  0.00    +0.000 A 
ATOM     25  C   UNL     1       9.466  13.099  21.511  0.00  0.00    +0.000 A 
ATOM     26  C   UNL     1      10.535  13.725  20.877  0.00  0.00    +0.000 A 
ATOM     27  F   UNL     1      10.887  14.962  21.252  0.00  0.00    +0.000 F 
ATOM     28  C   UNL     1      11.229  13.076  19.868  0.00  0.00    +0.000 A 
ATOM     29  F   UNL     1      12.259  13.681  19.261  0.00  0.00    +0.000 F 
ATOM     30  C   UNL     1      10.845  11.794  19.482  0.00  0.00    +0.000 A 
ATOM     31  F   UNL     1      11.517  11.168  18.502  0.00  0.00    +0.000 F 
ENDBRANCH  21  23
ENDBRANCH  18  20
ENDBRANCH  17  18
ENDBRANCH   1  17
TORSDOF 7
ENDMDL
MODEL 4
REMARK VINA RESULT:      -8.4      1.009      1.229
REMARK  Name = 
REMARK  7 active torsions:
REMARK  status: ('A' for Active; 'I' for Inactive)
REMARK    1  A    between atoms: C_2  and  C_3
REMARK    2  A    between atoms: C_3  and  O_4
REMARK    3  A    between atoms: O_4  and  C_5
REMARK    4  A    between atoms: C_5  and  C_7
REMARK    5  A    between atoms: N_10  and  S_11
REMARK    6  A    between atoms: S_11  and  C_14
REMARK    7  A    between atoms: N_21  and  C_22
REMARK                            x       y       z     vdW  Elec       q    Type
REMARK                         _______ _______ _______ _____ _____    ______ ____
ROOT
ATOM      1  C   UNL     1       6.407   6.668  17.625  0.00  0.00    +0.000 C 
ATOM      2  O   UNL     1       6.571   5.904  18.567  0.00  0.00    +0.000 OA
ENDROOT
BRANCH   1   3
ATOM      3  C   UNL     1       5.204   6.648  16.691  0.00  0.00    +0.000 C 
ATOM      4  C   UNL     1       3.866   6.648  17.431  0.00  0.00    +0.000 C 
ATOM      5  C   UNL     1       3.551   5.303  18.081  0.00  0.00    +0.000 C 
ATOM      6  N   UNL     1       3.614   4.215  17.066  0.00  0.00    +0.000 NA
ATOM      7  C   UNL     1       4.953   4.132  16.420  0.00  0.00    +0.000 C 
ATOM      8  C   UNL     1       5.273   5.455  15.727  0.00  0.00    +0.000 C 
BRANCH   6   9
ATOM      9  S   UNL     1       3.092   2.687  17.665  0.00  0.00    +0.000 S 
ATOM     10  O   UNL     1       1.976   2.229  16.865  0.00  0.00    +0.000 OA
ATOM     11  O   UNL     1       4.266   1.860  17.854  0.00  0.00    +0.000 OA
BRANCH   9  12
ATOM     12  C   UNL     1       2.432   2.919  19.302  0.00  0.00    +0.000 A 
ATOM     13  C   UNL     1       1.167   3.239  19.756  0.00  0.00    +0.000 A 
ATOM     14  C   UNL     1       1.110   3.342  21.176  0.00  0.00    +0.000 A 
ATOM     15  C   UNL     1       2.334   3.096  21.758  0.00  0.00    +0.000 A 
ATOM     16  S   UNL     1       3.537   2.730  20.595  0.00  0.00    +0.000 S 
ENDBRANCH   9  12
ENDBRANCH   6   9
ENDBRANCH   1   3
BRANCH   1  17
ATOM     17  O   UNL     1       7.325   7.589  17.217  0.00  0.00    +0.000 OA
BRANCH  17  18
ATOM     18  C   UNL     1       8.314   7.897  18.202  0.00  0.00    +0.000 C 
BRANCH  18  20
ATOM     19  O   UNL     1       7.939  10.233  17.713  0.00  0.00    +0.000 OA
ATOM     20  C   UNL     1       8.506   9.405  18.420  0.00  0.00    +0.000 C 
ATOM     21  N   UNL     1       9.404   9.694  19.440  0.00  0.00    +0.000 N 
ATOM     22  H   UNL     1       9.971   8.934  19.809  0.00  0.00    +0.000 HD
BRANCH  21  23
ATOM     23  C   UNL     1       9.736  10.983  19.922  0.00  0.00    +0.000 A 
ATOM     24  C   UNL     1       9.262  11.503  21.130  0.00  0.00    +0.000 A 
ATOM     25  C   UNL     1       9.617  12.796  21.533  0.00  0.00    +0.000 A 
ATOM     26  C   UNL     1      10.448  13.569  20.729  0.00  0.00    +0.000 A 
ATOM     27  F   UNL     1      10.763  14.813  21.116  0.00  0.00    +0.000 F 
ATOM     28  C   UNL     1      10.945  13.060  19.539  0.00  0.00    +0.000 A 
ATOM     29  F   UNL     1      11.746  13.808  18.768  0.00  0.00    +0.000 F 
ATOM     30  C   UNL     1      10.600  11.770  19.145  0.00  0.00    +0.000 A 
ATOM     31  F   UNL     1      11.080  11.279  17.991  0.00  0.00    +0.000 F 
ENDBRANCH  21  23
ENDBRANCH  18  20
ENDBRANCH  17  18
ENDBRANCH   1  17
TORSDOF 7
ENDMDL
MODEL 5
REMARK VINA RESULT:      -8.4      1.517      2.035
REMARK  Name = 
REMARK  7 active torsions:
REMARK  status: ('A' for Active; 'I' for Inactive)
REMARK    1  A    between atoms: C_2  and  C_3
REMARK    2  A    between atoms: C_3  and  O_4
REMARK    3  A    between atoms: O_4  and  C_5
REMARK    4  A    between atoms: C_5  and  C_7
REMARK    5  A    between atoms: N_10  and  S_11
REMARK    6  A    between atoms: S_11  and  C_14
REMARK    7  A    between atoms: N_21  and  C_22
REMARK                            x       y       z     vdW  Elec       q    Type
REMARK                         _______ _______ _______ _____ _____    ______ ____
ROOT
ATOM      1  C   UNL     1       7.412   5.141  17.433  0.00  0.00    +0.000 C 
ATOM      2  O   UNL     1       7.886   4.379  18.264  0.00  0.00    +0.000 OA
ENDROOT
BRANCH   1   3
ATOM      3  C   UNL     1       6.370   4.750  16.391  0.00  0.00    +0.000 C 
ATOM      4  C   UNL     1       5.544   5.936  15.891  0.00  0.00    +0.000 C 
ATOM      5  C   UNL     1       4.526   6.422  16.920  0.00  0.00    +0.000 C 
ATOM      6  N   UNL     1       3.656   5.293  17.355  0.00  0.00    +0.000 NA
ATOM      7  C   UNL     1       4.445   4.180  17.951  0.00  0.00    +0.000 C 
ATOM      8  C   UNL     1       5.444   3.649  16.924  0.00  0.00    +0.000 C 
BRANCH   6   9
ATOM      9  S   UNL     1       2.357   5.783  18.375  0.00  0.00    +0.000 S 
ATOM     10  O   UNL     1       2.744   6.987  19.077  0.00  0.00    +0.000 OA
ATOM     11  O   UNL     1       1.138   5.729  17.595  0.00  0.00    +0.000 OA
BRANCH   9  12
ATOM     12  C   UNL     1       2.140   4.551  19.641  0.00  0.00    +0.000 A 
ATOM     13  C   UNL     1       2.555   4.490  20.958  0.00  0.00    +0.000 A 
ATOM     14  C   UNL     1       2.162   3.278  21.595  0.00  0.00    +0.000 A 
ATOM     15  C   UNL     1       1.459   2.455  20.743  0.00  0.00    +0.000 A 
ATOM     16  S   UNL     1       1.266   3.151  19.191  0.00  0.00    +0.000 S 
ENDBRANCH   9  12
ENDBRANCH   6   9
ENDBRANCH   1   3
BRANCH   1  17
ATOM     17  O   UNL     1       7.817   6.430  17.255  0.00  0.00    +0.000 OA
BRANCH  17  18
ATOM     18  C   UNL     1       8.038   7.141  18.476  0.00  0.00    +0.000 C 
BRANCH  18  20
ATOM     19  O   UNL     1       7.505   9.271  17.469  0.00  0.00    +0.000 OA
ATOM     20  C   UNL     1       8.194   8.656  18.278  0.00  0.00    +0.000 C 
ATOM     21  N   UNL     1       9.204   9.203  19.060  0.00  0.00    +0.000 N 
ATOM     22  H   UNL     1       9.844   8.567  19.528  0.00  0.00    +0.000 HD
BRANCH  21  23
ATOM     23  C   UNL     1       9.541  10.574  19.151  0.00  0.00    +0.000 A 
ATOM     24  C   UNL     1       9.912  11.354  18.050  0.00  0.00    +0.000 A 
ATOM     25  C   UNL     1      10.252  12.701  18.220  0.00  0.00    +0.000 A 
ATOM     26  C   UNL     1      10.221  13.271  19.488  0.00  0.00    +0.000 A 
ATOM     27  F   UNL     1      10.570  14.556  19.639  0.00  0.00    +0.000 F 
ATOM     28  C   UNL     1       9.834  12.518  20.586  0.00  0.00    +0.000 A 
ATOM     29  F   UNL     1       9.804  13.070  21.807  0.00  0.00    +0.000 F 
ATOM     30  C   UNL     1       9.485  11.180  20.415  0.00  0.00    +0.000 A 
ATOM     31  F   UNL     1       9.113  10.452  21.479  0.00  0.00    +0.000 F 
ENDBRANCH  21  23
ENDBRANCH  18  20
ENDBRANCH  17  18
ENDBRANCH   1  17
TORSDOF 7
ENDMDL
MODEL 6
REMARK VINA RESULT:      -8.3      1.297      1.766
REMARK  Name = 
REMARK  7 active torsions:
REMARK  status: ('A' for Active; 'I' for Inactive)
REMARK    1  A    between atoms: C_2  and  C_3
REMARK    2  A    between atoms: C_3  and  O_4
REMARK    3  A    between atoms: O_4  and  C_5
REMARK    4  A    between atoms: C_5  and  C_7
REMARK    5  A    between atoms: N_10  and  S_11
REMARK    6  A    between atoms: S_11  and  C_14
REMARK    7  A    between atoms: N_21  and  C_22
REMARK                            x       y       z     vdW  Elec       q    Type
REMARK                         _______ _______ _______ _____ _____    ______ ____
ROOT
ATOM      1  C   UNL     1       6.469   6.048  18.176  0.00  0.00    +0.000 C 
ATOM      2  O   UNL     1       6.185   5.394  19.170  0.00  0.00    +0.000 OA
ENDROOT
BRANCH   1   3
ATOM      3  C   UNL     1       5.482   6.438  17.082  0.00  0.00    +0.000 C 
ATOM      4  C   UNL     1       4.139   6.926  17.629  0.00  0.00    +0.000 C 
ATOM      5  C   UNL     1       3.281   5.791  18.183  0.00  0.00    +0.000 C 
ATOM      6  N   UNL     1       3.100   4.732  17.152  0.00  0.00    +0.000 NA
ATOM      7  C   UNL     1       4.401   4.169  16.697  0.00  0.00    +0.000 C 
ATOM      8  C   UNL     1       5.262   5.280  16.099  0.00  0.00    +0.000 C 
BRANCH   6   9
ATOM      9  S   UNL     1       1.992   3.499  17.622  0.00  0.00    +0.000 S 
ATOM     10  O   UNL     1       0.644   3.975  17.399  0.00  0.00    +0.000 OA
ATOM     11  O   UNL     1       2.450   2.251  17.047  0.00  0.00    +0.000 OA
BRANCH   9  12
ATOM     12  C   UNL     1       2.123   3.265  19.381  0.00  0.00    +0.000 A 
ATOM     13  C   UNL     1       1.300   3.629  20.430  0.00  0.00    +0.000 A 
ATOM     14  C   UNL     1       1.830   3.243  21.695  0.00  0.00    +0.000 A 
ATOM     15  C   UNL     1       3.040   2.596  21.568  0.00  0.00    +0.000 A 
ATOM     16  S   UNL     1       3.521   2.446  19.932  0.00  0.00    +0.000 S 
ENDBRANCH   9  12
ENDBRANCH   6   9
ENDBRANCH   1   3
BRANCH   1  17
ATOM     17  O   UNL     1       7.733   6.444  17.854  0.00  0.00    +0.000 OA
BRANCH  17  18
ATOM     18  C   UNL     1       8.356   7.260  18.849  0.00  0.00    +0.000 C 
BRANCH  18  20
ATOM     19  O   UNL     1       7.651   9.215  17.619  0.00  0.00    +0.000 OA
ATOM     20  C   UNL     1       8.394   8.749  18.478  0.00  0.00    +0.000 C 
ATOM     21  N   UNL     1       9.369   9.455  19.172  0.00  0.00    +0.000 N 
ATOM     22  H   UNL     1      10.062   8.925  19.695  0.00  0.00    +0.000 HD
BRANCH  21  23
ATOM     23  C   UNL     1       9.603  10.849  19.100  0.00  0.00    +0.000 A 
ATOM     24  C   UNL     1      10.005  11.507  17.933  0.00  0.00    +0.000 A 
ATOM     25  C   UNL     1      10.237  12.887  17.942  0.00  0.00    +0.000 A 
ATOM     26  C   UNL     1      10.066  13.612  19.117  0.00  0.00    +0.000 A 
ATOM     27  F   UNL     1      10.312  14.929  19.117  0.00  0.00    +0.000 F 
ATOM     28  C   UNL     1       9.647  12.979  20.277  0.00  0.00    +0.000 A 
ATOM     29  F   UNL     1       9.482  13.681  21.406  0.00  0.00    +0.000 F 
ATOM     30  C   UNL     1       9.405  11.607  20.264  0.00  0.00    +0.000 A 
ATOM     31  F   UNL     1       9.001  10.995  21.388  0.00  0.00    +0.000 F 
ENDBRANCH  21  23
ENDBRANCH  18  20
ENDBRANCH  17  18
ENDBRANCH   1  17
TORSDOF 7
ENDMDL
MODEL 7
REMARK VINA RESULT:      -8.2      1.711      2.261
REMARK  Name = 
REMARK  7 active torsions:
REMARK  status: ('A' for Active; 'I' for Inactive)
REMARK    1  A    between atoms: C_2  and  C_3
REMARK    2  A    between atoms: C_3  and  O_4
REMARK    3  A    between atoms: O_4  and  C_5
REMARK    4  A    between atoms: C_5  and  C_7
REMARK    5  A    between atoms: N_10  and  S_11
REMARK    6  A    between atoms: S_11  and  C_14
REMARK    7  A    between atoms: N_21  and  C_22
REMARK                            x       y       z     vdW  Elec       q    Type
REMARK                         _______ _______ _______ _____ _____    ______ ____
ROOT
ATOM      1  C   UNL     1       6.793   6.860  16.611  0.00  0.00    +0.000 C 
ATOM      2  O   UNL     1       7.773   6.394  16.046  0.00  0.00    +0.000 OA
ENDROOT
BRANCH   1   3
ATOM      3  C   UNL     1       5.350   6.616  16.190  0.00  0.00    +0.000 C 
ATOM      4  C   UNL     1       4.360   6.700  17.353  0.00  0.00    +0.000 C 
ATOM      5  C   UNL     1       4.434   5.489  18.279  0.00  0.00    +0.000 C 
ATOM      6  N   UNL     1       4.255   4.233  17.498  0.00  0.00    +0.000 NA
ATOM      7  C   UNL     1       5.287   4.086  16.436  0.00  0.00    +0.000 C 
ATOM      8  C   UNL     1       5.205   5.267  15.471  0.00  0.00    +0.000 C 
BRANCH   6   9
ATOM      9  S   UNL     1       4.137   2.825  18.483  0.00  0.00    +0.000 S 
ATOM     10  O   UNL     1       4.024   1.665  17.626  0.00  0.00    +0.000 OA
ATOM     11  O   UNL     1       5.166   2.908  19.499  0.00  0.00    +0.000 OA
BRANCH   9  12
ATOM     12  C   UNL     1       2.604   2.894  19.385  0.00  0.00    +0.000 A 
ATOM     13  C   UNL     1       1.288   2.738  18.992  0.00  0.00    +0.000 A 
ATOM     14  C   UNL     1       0.375   2.903  20.073  0.00  0.00    +0.000 A 
ATOM     15  C   UNL     1       1.026   3.178  21.255  0.00  0.00    +0.000 A 
ATOM     16  S   UNL     1       2.726   3.222  21.059  0.00  0.00    +0.000 S 
ENDBRANCH   9  12
ENDBRANCH   6   9
ENDBRANCH   1   3
BRANCH   1  17
ATOM     17  O   UNL     1       6.855   7.745  17.646  0.00  0.00    +0.000 OA
BRANCH  17  18
ATOM     18  C   UNL     1       8.185   8.024  18.091  0.00  0.00    +0.000 C 
BRANCH  18  20
ATOM     19  O   UNL     1       7.943  10.365  17.545  0.00  0.00    +0.000 OA
ATOM     20  C   UNL     1       8.463   9.523  18.273  0.00  0.00    +0.000 C 
ATOM     21  N   UNL     1       9.377   9.785  19.285  0.00  0.00    +0.000 N 
ATOM     22  H   UNL     1       9.900   9.004  19.672  0.00  0.00    +0.000 HD
BRANCH  21  23
ATOM     23  C   UNL     1       9.783  11.064  19.736  0.00  0.00    +0.000 A 
ATOM     24  C   UNL     1      10.598  11.924  18.991  0.00  0.00    +0.000 A 
ATOM     25  C   UNL     1      10.975  13.168  19.510  0.00  0.00    +0.000 A 
ATOM     26  C   UNL     1      10.539  13.555  20.773  0.00  0.00    +0.000 A 
ATOM     27  F   UNL     1      10.925  14.739  21.267  0.00  0.00    +0.000 F 
ATOM     28  C   UNL     1       9.713  12.723  21.514  0.00  0.00    +0.000 A 
ATOM     29  F   UNL     1       9.294  13.100  22.730  0.00  0.00    +0.000 F 
ATOM     30  C   UNL     1       9.329  11.491  20.992  0.00  0.00    +0.000 A 
ATOM     31  F   UNL     1       8.531  10.686  21.713  0.00  0.00    +0.000 F 
ENDBRANCH  21  23
ENDBRANCH  18  20
ENDBRANCH  17  18
ENDBRANCH   1  17
TORSDOF 7
ENDMDL
MODEL 8
REMARK VINA RESULT:      -8.0      2.198      2.964
REMARK  Name = 
REMARK  7 active torsions:
REMARK  status: ('A' for Active; 'I' for Inactive)
REMARK    1  A    between atoms: C_2  and  C_3
REMARK    2  A    between atoms: C_3  and  O_4
REMARK    3  A    between atoms: O_4  and  C_5
REMARK    4  A    between atoms: C_5  and  C_7
REMARK    5  A    between atoms: N_10  and  S_11
REMARK    6  A    between atoms: S_11  and  C_14
REMARK    7  A    between atoms: N_21  and  C_22
REMARK                            x       y       z     vdW  Elec       q    Type
REMARK                         _______ _______ _______ _____ _____    ______ ____
ROOT
ATOM      1  C   UNL     1       7.024   7.588  17.400  0.00  0.00    +0.000 C 
ATOM      2  O   UNL     1       5.814   7.715  17.266  0.00  0.00    +0.000 OA
ENDROOT
BRANCH   1   3
ATOM      3  C   UNL     1       7.744   6.255  17.568  0.00  0.00    +0.000 C 
ATOM      4  C   UNL     1       7.238   5.173  16.613  0.00  0.00    +0.000 C 
ATOM      5  C   UNL     1       5.866   4.632  17.009  0.00  0.00    +0.000 C 
ATOM      6  N   UNL     1       5.890   4.151  18.418  0.00  0.00    +0.000 NA
ATOM      7  C   UNL     1       6.270   5.232  19.369  0.00  0.00    +0.000 C 
ATOM      8  C   UNL     1       7.660   5.761  19.018  0.00  0.00    +0.000 C 
BRANCH   6   9
ATOM      9  S   UNL     1       4.440   3.353  18.895  0.00  0.00    +0.000 S 
ATOM     10  O   UNL     1       3.803   2.801  17.719  0.00  0.00    +0.000 OA
ATOM     11  O   UNL     1       4.749   2.520  20.039  0.00  0.00    +0.000 OA
BRANCH   9  12
ATOM     12  C   UNL     1       3.303   4.573  19.516  0.00  0.00    +0.000 A 
ATOM     13  C   UNL     1       3.083   5.895  19.176  0.00  0.00    +0.000 A 
ATOM     14  C   UNL     1       2.066   6.497  19.971  0.00  0.00    +0.000 A 
ATOM     15  C   UNL     1       1.543   5.615  20.891  0.00  0.00    +0.000 A 
ATOM     16  S   UNL     1       2.268   4.067  20.781  0.00  0.00    +0.000 S 
ENDBRANCH   9  12
ENDBRANCH   6   9
ENDBRANCH   1   3
BRANCH   1  17
ATOM     17  O   UNL     1       7.895   8.630  17.515  0.00  0.00    +0.000 OA
BRANCH  17  18
ATOM     18  C   UNL     1       8.526   8.720  18.794  0.00  0.00    +0.000 C 
BRANCH  18  20
ATOM     19  O   UNL     1       9.334  10.517  20.192  0.00  0.00    +0.000 OA
ATOM     20  C   UNL     1       9.187  10.081  19.053  0.00  0.00    +0.000 C 
ATOM     21  N   UNL     1       9.532  10.746  17.883  0.00  0.00    +0.000 N 
ATOM     22  H   UNL     1       9.170  10.387  17.004  0.00  0.00    +0.000 HD
BRANCH  21  23
ATOM     23  C   UNL     1      10.215  11.983  17.794  0.00  0.00    +0.000 A 
ATOM     24  C   UNL     1      11.608  12.094  17.727  0.00  0.00    +0.000 A 
ATOM     25  C   UNL     1      12.215  13.354  17.661  0.00  0.00    +0.000 A 
ATOM     26  C   UNL     1      11.431  14.503  17.660  0.00  0.00    +0.000 A 
ATOM     27  F   UNL     1      12.026  15.703  17.618  0.00  0.00    +0.000 F 
ATOM     28  C   UNL     1      10.048  14.409  17.704  0.00  0.00    +0.000 A 
ATOM     29  F   UNL     1       9.296  15.518  17.702  0.00  0.00    +0.000 F 
ATOM     30  C   UNL     1       9.445  13.155  17.758  0.00  0.00    +0.000 A 
ATOM     31  F   UNL     1       8.106  13.065  17.802  0.00  0.00    +0.000 F 
ENDBRANCH  21  23
ENDBRANCH  18  20
ENDBRANCH  17  18
ENDBRANCH   1  17
TORSDOF 7
ENDMDL
MODEL 9
REMARK VINA RESULT:      -8.0      1.984      2.465
REMARK  Name = 
REMARK  7 active torsions:
REMARK  status: ('A' for Active; 'I' for Inactive)
REMARK    1  A    between atoms: C_2  and  C_3
REMARK    2  A    between atoms: C_3  and  O_4
REMARK    3  A    between atoms: O_4  and  C_5
REMARK    4  A    between atoms: C_5  and  C_7
REMARK    5  A    between atoms: N_10  and  S_11
REMARK    6  A    between atoms: S_11  and  C_14
REMARK    7  A    between atoms: N_21  and  C_22
REMARK                            x       y       z     vdW  Elec       q    Type
REMARK                         _______ _______ _______ _____ _____    ______ ____
ROOT
ATOM      1  C   UNL     1       7.000   7.171  16.855  0.00  0.00    +0.000 C 
ATOM      2  O   UNL     1       7.887   6.417  16.478  0.00  0.00    +0.000 OA
ENDROOT
BRANCH   1   3
ATOM      3  C   UNL     1       5.526   7.027  16.498  0.00  0.00    +0.000 C 
ATOM      4  C   UNL     1       4.606   7.044  17.719  0.00  0.00    +0.000 C 
ATOM      5  C   UNL     1       4.673   5.751  18.527  0.00  0.00    +0.000 C 
ATOM      6  N   UNL     1       4.394   4.581  17.648  0.00  0.00    +0.000 NA
ATOM      7  C   UNL     1       5.360   4.490  16.519  0.00  0.00    +0.000 C 
ATOM      8  C   UNL     1       5.281   5.757  15.670  0.00  0.00    +0.000 C 
BRANCH   6   9
ATOM      9  S   UNL     1       4.264   3.093  18.508  0.00  0.00    +0.000 S 
ATOM     10  O   UNL     1       3.992   2.032  17.564  0.00  0.00    +0.000 OA
ATOM     11  O   UNL     1       5.384   3.012  19.423  0.00  0.00    +0.000 OA
BRANCH   9  12
ATOM     12  C   UNL     1       2.827   3.171  19.555  0.00  0.00    +0.000 A 
ATOM     13  C   UNL     1       2.682   3.283  20.925  0.00  0.00    +0.000 A 
ATOM     14  C   UNL     1       1.315   3.285  21.326  0.00  0.00    +0.000 A 
ATOM     15  C   UNL     1       0.463   3.176  20.249  0.00  0.00    +0.000 A 
ATOM     16  S   UNL     1       1.312   3.086  18.765  0.00  0.00    +0.000 S 
ENDBRANCH   9  12
ENDBRANCH   6   9
ENDBRANCH   1   3
BRANCH   1  17
ATOM     17  O   UNL     1       7.217   8.309  17.575  0.00  0.00    +0.000 OA
BRANCH  17  18
ATOM     18  C   UNL     1       8.362   8.245  18.428  0.00  0.00    +0.000 C 
BRANCH  18  20
ATOM     19  O   UNL     1       8.888  10.006  19.995  0.00  0.00    +0.000 OA
ATOM     20  C   UNL     1       8.901   9.625  18.828  0.00  0.00    +0.000 C 
ATOM     21  N   UNL     1       9.337  10.372  17.740  0.00  0.00    +0.000 N 
ATOM     22  H   UNL     1       9.102  10.041  16.808  0.00  0.00    +0.000 HD
BRANCH  21  23
ATOM     23  C   UNL     1       9.946  11.648  17.791  0.00  0.00    +0.000 A 
ATOM     24  C   UNL     1      11.328  11.843  17.893  0.00  0.00    +0.000 A 
ATOM     25  C   UNL     1      11.858  13.136  17.960  0.00  0.00    +0.000 A 
ATOM     26  C   UNL     1      11.008  14.237  17.922  0.00  0.00    +0.000 A 
ATOM     27  F   UNL     1      11.527  15.470  18.009  0.00  0.00    +0.000 F 
ATOM     28  C   UNL     1       9.639  14.062  17.799  0.00  0.00    +0.000 A 
ATOM     29  F   UNL     1       8.823  15.125  17.763  0.00  0.00    +0.000 F 
ATOM     30  C   UNL     1       9.113  12.775  17.722  0.00  0.00    +0.000 A 
ATOM     31  F   UNL     1       7.786  12.607  17.605  0.00  0.00    +0.000 F 
ENDBRANCH  21  23
ENDBRANCH  18  20
ENDBRANCH  17  18
ENDBRANCH   1  17
TORSDOF 7
ENDMDL
