MODEL 1
REMARK VINA RESULT:      -7.7      0.000      0.000
REMARK  Name = 
REMARK  5 active torsions:
REMARK  status: ('A' for Active; 'I' for Inactive)
REMARK    1  A    between atoms: C_3  and  C_4
REMARK    2  A    between atoms: N_6  and  C_7
REMARK    3  A    between atoms: C_7  and  C_8
REMARK    4  A    between atoms: N_25  and  C_26
REMARK    5  A    between atoms: C_26  and  C_27
REMARK                            x       y       z     vdW  Elec       q    Type
REMARK                         _______ _______ _______ _____ _____    ______ ____
ROOT
ATOM      1  N   UNL     1       2.256  10.523  17.493  0.00  0.00    +0.000 NA
ATOM      2  C   UNL     1       1.554  10.504  18.592  0.00  0.00    +0.000 A 
ATOM      3  C   UNL     1       1.489   9.256  19.431  0.00  0.00    +0.000 A 
ATOM      4  C   UNL     1       0.708   9.314  20.525  0.00  0.00    +0.000 A 
ATOM      5  C   UNL     1      -0.018  10.514  20.909  0.00  0.00    +0.000 A 
ATOM      6  C   UNL     1      -0.858  10.501  22.144  0.00  0.00    +0.000 A 
ATOM      7  O   UNL     1      -0.914   9.482  22.837  0.00  0.00    +0.000 OA
ATOM      8  N   UNL     1      -1.542  11.669  22.430  0.00  0.00    +0.000 N 
ATOM      9  C   UNL     1      -2.341  11.736  23.566  0.00  0.00    +0.000 A 
ATOM     10  C   UNL     1      -3.028  12.843  23.882  0.00  0.00    +0.000 A 
ATOM     11  C   UNL     1      -2.953  14.000  23.028  0.00  0.00    +0.000 A 
ATOM     12  C   UNL     1      -2.200  13.973  21.923  0.00  0.00    +0.000 A 
ATOM     13  C   UNL     1      -1.423  12.748  21.576  0.00  0.00    +0.000 A 
ATOM     14  N   UNL     1      -0.696  12.755  20.508  0.00  0.00    +0.000 NA
ATOM     15  C   UNL     1       0.029  11.639  20.158  0.00  0.00    +0.000 A 
ATOM     16  N   UNL     1       0.828  11.639  18.984  0.00  0.00    +0.000 N 
ATOM     17  H   UNL     1       2.661   9.604  17.287  0.00  0.00    +0.000 HD
ENDROOT
BRANCH   3  18
ATOM     18  C   UNL     1       2.126   7.954  19.099  0.00  0.00    +0.000 C 
ATOM     19  O   UNL     1       2.623   7.740  17.998  0.00  0.00    +0.000 OA
ATOM     20  N   UNL     1       2.101   7.018  20.107  0.00  0.00    +0.000 N 
ATOM     21  H   UNL     1       1.397   7.089  20.837  0.00  0.00    +0.000 HD
BRANCH  20  22
ATOM     22  C   UNL     1       2.725   5.710  19.955  0.00  0.00    +0.000 C 
BRANCH  22  23
ATOM     23  C   UNL     1       1.831   4.719  19.208  0.00  0.00    +0.000 C 
ATOM     24  C   UNL     1       0.955   3.844  20.093  0.00  0.00    +0.000 C 
ATOM     25  C   UNL     1       0.832   2.585  19.274  0.00  0.00    +0.000 C 
ATOM     26  C   UNL     1       2.191   2.489  18.621  0.00  0.00    +0.000 C 
ATOM     27  O   UNL     1       2.657   3.830  18.424  0.00  0.00    +0.000 OA
ENDBRANCH  22  23
ENDBRANCH  20  22
ENDBRANCH   3  18
BRANCH  16  28
ATOM     28  C   UNL     1       0.762  12.796  18.060  0.00  0.00    +0.000 C 
BRANCH  28  29
ATOM     29  C   UNL     1       1.683  13.919  18.490  0.00  0.00    +0.000 A 
ATOM     30  C   UNL     1       3.072  13.684  18.523  0.00  0.00    +0.000 A 
ATOM     31  C   UNL     1       3.957  14.651  19.003  0.00  0.00    +0.000 A 
ATOM     32  C   UNL     1       3.471  15.874  19.452  0.00  0.00    +0.000 A 
ATOM     33  C   UNL     1       2.108  16.148  19.369  0.00  0.00    +0.000 A 
ATOM     34  C   UNL     1       1.219  15.188  18.872  0.00  0.00    +0.000 A 
ATOM     35 CL   UNL     1      -0.434  15.667  18.711  0.00  0.00    +0.000 Cl
ENDBRANCH  28  29
ENDBRANCH  16  28
TORSDOF 5
ENDMDL
MODEL 2
REMARK VINA RESULT:      -7.7      3.190      3.904
REMARK  Name = 
REMARK  5 active torsions:
REMARK  status: ('A' for Active; 'I' for Inactive)
REMARK    1  A    between atoms: C_3  and  C_4
REMARK    2  A    between atoms: N_6  and  C_7
REMARK    3  A    between atoms: C_7  and  C_8
REMARK    4  A    between atoms: N_25  and  C_26
REMARK    5  A    between atoms: C_26  and  C_27
REMARK                            x       y       z     vdW  Elec       q    Type
REMARK                         _______ _______ _______ _____ _____    ______ ____
ROOT
ATOM      1  N   UNL     1       1.437  12.159  20.318  0.00  0.00    +0.000 NA
ATOM      2  C   UNL     1       0.322  11.764  19.768  0.00  0.00    +0.000 A 
ATOM      3  C   UNL     1       0.335  10.689  18.714  0.00  0.00    +0.000 A 
ATOM      4  C   UNL     1      -0.856  10.374  18.172  0.00  0.00    +0.000 A 
ATOM      5  C   UNL     1      -2.099  11.004  18.587  0.00  0.00    +0.000 A 
ATOM      6  C   UNL     1      -3.382  10.593  17.941  0.00  0.00    +0.000 A 
ATOM      7  O   UNL     1      -3.380   9.710  17.078  0.00  0.00    +0.000 OA
ATOM      8  N   UNL     1      -4.520  11.257  18.366  0.00  0.00    +0.000 N 
ATOM      9  C   UNL     1      -5.753  10.925  17.815  0.00  0.00    +0.000 A 
ATOM     10  C   UNL     1      -6.882  11.544  18.188  0.00  0.00    +0.000 A 
ATOM     11  C   UNL     1      -6.832  12.586  19.181  0.00  0.00    +0.000 A 
ATOM     12  C   UNL     1      -5.664  12.938  19.730  0.00  0.00    +0.000 A 
ATOM     13  C   UNL     1      -4.408  12.242  19.326  0.00  0.00    +0.000 A 
ATOM     14  N   UNL     1      -3.296  12.595  19.881  0.00  0.00    +0.000 NA
ATOM     15  C   UNL     1      -2.119  11.976  19.528  0.00  0.00    +0.000 A 
ATOM     16  N   UNL     1      -0.893  12.362  20.132  0.00  0.00    +0.000 N 
ATOM     17  H   UNL     1       2.251  11.699  19.897  0.00  0.00    +0.000 HD
ENDROOT
BRANCH   3  18
ATOM     18  C   UNL     1       1.547  10.030  18.161  0.00  0.00    +0.000 C 
ATOM     19  O   UNL     1       2.422  10.667  17.583  0.00  0.00    +0.000 OA
ATOM     20  N   UNL     1       1.601   8.666  18.335  0.00  0.00    +0.000 N 
ATOM     21  H   UNL     1       0.740   8.147  18.480  0.00  0.00    +0.000 HD
BRANCH  20  22
ATOM     22  C   UNL     1       2.746   7.881  17.891  0.00  0.00    +0.000 C 
BRANCH  22  23
ATOM     23  C   UNL     1       2.670   6.424  18.352  0.00  0.00    +0.000 C 
ATOM     24  C   UNL     1       2.263   6.226  19.804  0.00  0.00    +0.000 C 
ATOM     25  C   UNL     1       2.980   4.951  20.165  0.00  0.00    +0.000 C 
ATOM     26  C   UNL     1       4.267   5.070  19.382  0.00  0.00    +0.000 C 
ATOM     27  O   UNL     1       3.965   5.806  18.190  0.00  0.00    +0.000 OA
ENDBRANCH  22  23
ENDBRANCH  20  22
ENDBRANCH   3  18
BRANCH  16  28
ATOM     28  C   UNL     1      -0.867  13.535  21.038  0.00  0.00    +0.000 C 
BRANCH  28  29
ATOM     29  C   UNL     1      -1.036  14.838  20.283  0.00  0.00    +0.000 A 
ATOM     30  C   UNL     1      -0.199  15.100  19.181  0.00  0.00    +0.000 A 
ATOM     31  C   UNL     1      -0.247  16.322  18.511  0.00  0.00    +0.000 A 
ATOM     32  C   UNL     1      -1.140  17.305  18.926  0.00  0.00    +0.000 A 
ATOM     33  C   UNL     1      -2.020  17.042  19.973  0.00  0.00    +0.000 A 
ATOM     34  C   UNL     1      -1.986  15.810  20.636  0.00  0.00    +0.000 A 
ATOM     35 CL   UNL     1      -3.190  15.546  21.848  0.00  0.00    +0.000 Cl
ENDBRANCH  28  29
ENDBRANCH  16  28
TORSDOF 5
ENDMDL
MODEL 3
REMARK VINA RESULT:      -7.5      4.923      8.711
REMARK  Name = 
REMARK  5 active torsions:
REMARK  status: ('A' for Active; 'I' for Inactive)
REMARK    1  A    between atoms: C_3  and  C_4
REMARK    2  A    between atoms: N_6  and  C_7
REMARK    3  A    between atoms: C_7  and  C_8
REMARK    4  A    between atoms: N_25  and  C_26
REMARK    5  A    between atoms: C_26  and  C_27
REMARK                            x       y       z     vdW  Elec       q    Type
REMARK                         _______ _______ _______ _____ _____    ______ ____
ROOT
ATOM      1  N   UNL     1       6.058   3.446  17.541  0.00  0.00    +0.000 NA
ATOM      2  C   UNL     1       5.338   4.533  17.579  0.00  0.00    +0.000 A 
ATOM      3  C   UNL     1       5.490   5.583  16.512  0.00  0.00    +0.000 A 
ATOM      4  C   UNL     1       4.737   6.690  16.655  0.00  0.00    +0.000 A 
ATOM      5  C   UNL     1       3.802   6.867  17.754  0.00  0.00    +0.000 A 
ATOM      6  C   UNL     1       2.996   8.122  17.837  0.00  0.00    +0.000 A 
ATOM      7  O   UNL     1       3.114   8.986  16.965  0.00  0.00    +0.000 OA
ATOM      8  N   UNL     1       2.149   8.232  18.927  0.00  0.00    +0.000 N 
ATOM      9  C   UNL     1       1.362   9.369  19.070  0.00  0.00    +0.000 A 
ATOM     10  C   UNL     1       0.531   9.527  20.111  0.00  0.00    +0.000 A 
ATOM     11  C   UNL     1       0.446   8.502  21.119  0.00  0.00    +0.000 A 
ATOM     12  C   UNL     1       1.192   7.396  21.019  0.00  0.00    +0.000 A 
ATOM     13  C   UNL     1       2.106   7.212  19.855  0.00  0.00    +0.000 A 
ATOM     14  N   UNL     1       2.807   6.128  19.780  0.00  0.00    +0.000 NA
ATOM     15  C   UNL     1       3.663   5.931  18.722  0.00  0.00    +0.000 A 
ATOM     16  N   UNL     1       4.438   4.744  18.635  0.00  0.00    +0.000 N 
ATOM     17  H   UNL     1       6.730   3.464  16.766  0.00  0.00    +0.000 HD
ENDROOT
BRANCH   3  18
ATOM     18  C   UNL     1       6.462   5.543  15.388  0.00  0.00    +0.000 C 
ATOM     19  O   UNL     1       7.396   6.336  15.313  0.00  0.00    +0.000 OA
ATOM     20  N   UNL     1       6.225   4.571  14.445  0.00  0.00    +0.000 N 
ATOM     21  H   UNL     1       5.288   4.192  14.344  0.00  0.00    +0.000 HD
BRANCH  20  22
ATOM     22  C   UNL     1       7.114   4.372  13.307  0.00  0.00    +0.000 C 
BRANCH  22  23
ATOM     23  C   UNL     1       6.370   3.887  12.062  0.00  0.00    +0.000 C 
ATOM     24  C   UNL     1       4.866   3.731  12.227  0.00  0.00    +0.000 C 
ATOM     25  C   UNL     1       4.554   2.612  11.266  0.00  0.00    +0.000 C 
ATOM     26  C   UNL     1       5.778   1.734  11.384  0.00  0.00    +0.000 C 
ATOM     27  O   UNL     1       6.887   2.596  11.671  0.00  0.00    +0.000 OA
ENDBRANCH  22  23
ENDBRANCH  20  22
ENDBRANCH   3  18
BRANCH  16  28
ATOM     28  C   UNL     1       4.428   3.785  19.765  0.00  0.00    +0.000 C 
BRANCH  28  29
ATOM     29  C   UNL     1       3.029   3.298  20.083  0.00  0.00    +0.000 A 
ATOM     30  C   UNL     1       2.563   3.384  21.409  0.00  0.00    +0.000 A 
ATOM     31  C   UNL     1       1.322   2.863  21.775  0.00  0.00    +0.000 A 
ATOM     32  C   UNL     1       0.518   2.252  20.819  0.00  0.00    +0.000 A 
ATOM     33  C   UNL     1       0.933   2.213  19.490  0.00  0.00    +0.000 A 
ATOM     34  C   UNL     1       2.170   2.750  19.116  0.00  0.00    +0.000 A 
ATOM     35 CL   UNL     1       2.542   2.746  17.428  0.00  0.00    +0.000 Cl
ENDBRANCH  28  29
ENDBRANCH  16  28
TORSDOF 5
ENDMDL
MODEL 4
REMARK VINA RESULT:      -7.5      3.047      3.900
REMARK  Name = 
REMARK  5 active torsions:
REMARK  status: ('A' for Active; 'I' for Inactive)
REMARK    1  A    between atoms: C_3  and  C_4
REMARK    2  A    between atoms: N_6  and  C_7
REMARK    3  A    between atoms: C_7  and  C_8
REMARK    4  A    between atoms: N_25  and  C_26
REMARK    5  A    between atoms: C_26  and  C_27
REMARK                            x       y       z     vdW  Elec       q    Type
REMARK                         _______ _______ _______ _____ _____    ______ ____
ROOT
ATOM      1  N   UNL     1       1.469   9.598  20.999  0.00  0.00    +0.000 NA
ATOM      2  C   UNL     1       0.548   9.840  20.107  0.00  0.00    +0.000 A 
ATOM      3  C   UNL     1       0.752   9.427  18.674  0.00  0.00    +0.000 A 
ATOM      4  C   UNL     1      -0.232   9.754  17.816  0.00  0.00    +0.000 A 
ATOM      5  C   UNL     1      -1.444  10.440  18.235  0.00  0.00    +0.000 A 
ATOM      6  C   UNL     1      -2.494  10.760  17.222  0.00  0.00    +0.000 A 
ATOM      7  O   UNL     1      -2.335  10.423  16.045  0.00  0.00    +0.000 OA
ATOM      8  N   UNL     1      -3.606  11.440  17.688  0.00  0.00    +0.000 N 
ATOM      9  C   UNL     1      -4.629  11.768  16.806  0.00  0.00    +0.000 A 
ATOM     10  C   UNL     1      -5.723  12.431  17.208  0.00  0.00    +0.000 A 
ATOM     11  C   UNL     1      -5.853  12.827  18.587  0.00  0.00    +0.000 A 
ATOM     12  C   UNL     1      -4.886  12.535  19.465  0.00  0.00    +0.000 A 
ATOM     13  C   UNL     1      -3.675  11.784  19.023  0.00  0.00    +0.000 A 
ATOM     14  N   UNL     1      -2.764  11.507  19.896  0.00  0.00    +0.000 NA
ATOM     15  C   UNL     1      -1.633  10.820  19.520  0.00  0.00    +0.000 A 
ATOM     16  N   UNL     1      -0.626  10.514  20.473  0.00  0.00    +0.000 N 
ATOM     17  H   UNL     1       2.305   9.179  20.576  0.00  0.00    +0.000 HD
ENDROOT
BRANCH   3  18
ATOM     18  C   UNL     1       1.975   8.790  18.119  0.00  0.00    +0.000 C 
ATOM     19  O   UNL     1       2.692   9.367  17.308  0.00  0.00    +0.000 OA
ATOM     20  N   UNL     1       2.226   7.516  18.572  0.00  0.00    +0.000 N 
ATOM     21  H   UNL     1       1.460   6.956  18.937  0.00  0.00    +0.000 HD
BRANCH  20  22
ATOM     22  C   UNL     1       3.410   6.773  18.159  0.00  0.00    +0.000 C 
BRANCH  22  23
ATOM     23  C   UNL     1       3.103   5.309  17.843  0.00  0.00    +0.000 C 
ATOM     24  C   UNL     1       1.632   4.929  17.907  0.00  0.00    +0.000 C 
ATOM     25  C   UNL     1       1.693   3.481  18.321  0.00  0.00    +0.000 C 
ATOM     26  C   UNL     1       2.884   3.462  19.252  0.00  0.00    +0.000 C 
ATOM     27  O   UNL     1       3.797   4.463  18.785  0.00  0.00    +0.000 OA
ENDBRANCH  22  23
ENDBRANCH  20  22
ENDBRANCH   3  18
BRANCH  16  28
ATOM     28  C   UNL     1      -0.732  11.066  21.845  0.00  0.00    +0.000 C 
BRANCH  28  29
ATOM     29  C   UNL     1      -0.443  12.553  21.881  0.00  0.00    +0.000 A 
ATOM     30  C   UNL     1       0.717  13.037  21.246  0.00  0.00    +0.000 A 
ATOM     31  C   UNL     1       1.080  14.381  21.330  0.00  0.00    +0.000 A 
ATOM     32  C   UNL     1       0.286  15.270  22.046  0.00  0.00    +0.000 A 
ATOM     33  C   UNL     1      -0.899  14.824  22.628  0.00  0.00    +0.000 A 
ATOM     34  C   UNL     1      -1.276  13.480  22.530  0.00  0.00    +0.000 A 
ATOM     35 CL   UNL     1      -2.813  13.053  23.195  0.00  0.00    +0.000 Cl
ENDBRANCH  28  29
ENDBRANCH  16  28
TORSDOF 5
ENDMDL
MODEL 5
REMARK VINA RESULT:      -7.4      3.164      4.893
REMARK  Name = 
REMARK  5 active torsions:
REMARK  status: ('A' for Active; 'I' for Inactive)
REMARK    1  A    between atoms: C_3  and  C_4
REMARK    2  A    between atoms: N_6  and  C_7
REMARK    3  A    between atoms: C_7  and  C_8
REMARK    4  A    between atoms: N_25  and  C_26
REMARK    5  A    between atoms: C_26  and  C_27
REMARK                            x       y       z     vdW  Elec       q    Type
REMARK                         _______ _______ _______ _____ _____    ______ ____
ROOT
ATOM      1  N   UNL     1       1.380  11.913  20.515  0.00  0.00    +0.000 NA
ATOM      2  C   UNL     1       0.282  11.590  19.890  0.00  0.00    +0.000 A 
ATOM      3  C   UNL     1       0.313  10.585  18.769  0.00  0.00    +0.000 A 
ATOM      4  C   UNL     1      -0.859  10.344  18.154  0.00  0.00    +0.000 A 
ATOM      5  C   UNL     1      -2.102  10.985  18.553  0.00  0.00    +0.000 A 
ATOM      6  C   UNL     1      -3.364  10.656  17.824  0.00  0.00    +0.000 A 
ATOM      7  O   UNL     1      -3.346   9.832  16.906  0.00  0.00    +0.000 OA
ATOM      8  N   UNL     1      -4.501  11.327  18.239  0.00  0.00    +0.000 N 
ATOM      9  C   UNL     1      -5.716  11.071  17.613  0.00  0.00    +0.000 A 
ATOM     10  C   UNL     1      -6.844  11.699  17.975  0.00  0.00    +0.000 A 
ATOM     11  C   UNL     1      -6.811  12.674  19.035  0.00  0.00    +0.000 A 
ATOM     12  C   UNL     1      -5.660  12.952  19.658  0.00  0.00    +0.000 A 
ATOM     13  C   UNL     1      -4.407  12.244  19.267  0.00  0.00    +0.000 A 
ATOM     14  N   UNL     1      -3.313  12.526  19.894  0.00  0.00    +0.000 NA
ATOM     15  C   UNL     1      -2.139  11.894  19.554  0.00  0.00    +0.000 A 
ATOM     16  N   UNL     1      -0.932  12.201  20.237  0.00  0.00    +0.000 N 
ATOM     17  H   UNL     1       2.199  11.455  20.102  0.00  0.00    +0.000 HD
ENDROOT
BRANCH   3  18
ATOM     18  C   UNL     1       1.531   9.924  18.230  0.00  0.00    +0.000 C 
ATOM     19  O   UNL     1       2.401  10.558  17.640  0.00  0.00    +0.000 OA
ATOM     20  N   UNL     1       1.595   8.565  18.429  0.00  0.00    +0.000 N 
ATOM     21  H   UNL     1       0.737   8.042  18.583  0.00  0.00    +0.000 HD
BRANCH  20  22
ATOM     22  C   UNL     1       2.746   7.780  18.000  0.00  0.00    +0.000 C 
BRANCH  22  23
ATOM     23  C   UNL     1       2.909   6.492  18.808  0.00  0.00    +0.000 C 
ATOM     24  C   UNL     1       2.169   5.283  18.254  0.00  0.00    +0.000 C 
ATOM     25  C   UNL     1       1.861   4.498  19.503  0.00  0.00    +0.000 C 
ATOM     26  C   UNL     1       1.599   5.590  20.515  0.00  0.00    +0.000 C 
ATOM     27  O   UNL     1       2.420   6.706  20.150  0.00  0.00    +0.000 OA
ENDBRANCH  22  23
ENDBRANCH  20  22
ENDBRANCH   3  18
BRANCH  16  28
ATOM     28  C   UNL     1      -0.915  13.311  21.219  0.00  0.00    +0.000 C 
BRANCH  28  29
ATOM     29  C   UNL     1      -2.055  13.208  22.211  0.00  0.00    +0.000 A 
ATOM     30  C   UNL     1      -3.010  14.243  22.261  0.00  0.00    +0.000 A 
ATOM     31  C   UNL     1      -4.024  14.245  23.219  0.00  0.00    +0.000 A 
ATOM     32  C   UNL     1      -4.108  13.209  24.142  0.00  0.00    +0.000 A 
ATOM     33  C   UNL     1      -3.212  12.145  24.070  0.00  0.00    +0.000 A 
ATOM     34  C   UNL     1      -2.204  12.130  23.099  0.00  0.00    +0.000 A 
ATOM     35 CL   UNL     1      -1.213  10.716  23.028  0.00  0.00    +0.000 Cl
ENDBRANCH  28  29
ENDBRANCH  16  28
TORSDOF 5
ENDMDL
MODEL 6
REMARK VINA RESULT:      -7.4      2.251      7.267
REMARK  Name = 
REMARK  5 active torsions:
REMARK  status: ('A' for Active; 'I' for Inactive)
REMARK    1  A    between atoms: C_3  and  C_4
REMARK    2  A    between atoms: N_6  and  C_7
REMARK    3  A    between atoms: C_7  and  C_8
REMARK    4  A    between atoms: N_25  and  C_26
REMARK    5  A    between atoms: C_26  and  C_27
REMARK                            x       y       z     vdW  Elec       q    Type
REMARK                         _______ _______ _______ _____ _____    ______ ____
ROOT
ATOM      1  N   UNL     1      -1.890  14.319  20.407  0.00  0.00    +0.000 NA
ATOM      2  C   UNL     1      -1.393  13.131  20.616  0.00  0.00    +0.000 A 
ATOM      3  C   UNL     1      -1.657  12.415  21.913  0.00  0.00    +0.000 A 
ATOM      4  C   UNL     1      -1.072  11.212  22.059  0.00  0.00    +0.000 A 
ATOM      5  C   UNL     1      -0.251  10.608  21.021  0.00  0.00    +0.000 A 
ATOM      6  C   UNL     1       0.358   9.264  21.257  0.00  0.00    +0.000 A 
ATOM      7  O   UNL     1       0.144   8.670  22.317  0.00  0.00    +0.000 OA
ATOM      8  N   UNL     1       1.150   8.766  20.237  0.00  0.00    +0.000 N 
ATOM      9  C   UNL     1       1.747   7.518  20.380  0.00  0.00    +0.000 A 
ATOM     10  C   UNL     1       2.528   6.995  19.424  0.00  0.00    +0.000 A 
ATOM     11  C   UNL     1       2.771   7.736  18.214  0.00  0.00    +0.000 A 
ATOM     12  C   UNL     1       2.218   8.943  18.042  0.00  0.00    +0.000 A 
ATOM     13  C   UNL     1       1.338   9.521  19.097  0.00  0.00    +0.000 A 
ATOM     14  N   UNL     1       0.810  10.684  18.898  0.00  0.00    +0.000 NA
ATOM     15  C   UNL     1      -0.003  11.247  19.855  0.00  0.00    +0.000 A 
ATOM     16  N   UNL     1      -0.583  12.525  19.644  0.00  0.00    +0.000 N 
ATOM     17  H   UNL     1      -2.387  14.672  21.232  0.00  0.00    +0.000 HD
ENDROOT
BRANCH   3  18
ATOM     18  C   UNL     1      -2.416  12.964  23.069  0.00  0.00    +0.000 C 
ATOM     19  O   UNL     1      -2.057  13.981  23.652  0.00  0.00    +0.000 OA
ATOM     20  N   UNL     1      -3.528  12.241  23.433  0.00  0.00    +0.000 N 
ATOM     21  H   UNL     1      -3.588  11.258  23.183  0.00  0.00    +0.000 HD
BRANCH  20  22
ATOM     22  C   UNL     1      -4.403  12.672  24.516  0.00  0.00    +0.000 C 
BRANCH  22  23
ATOM     23  C   UNL     1      -5.653  13.390  24.007  0.00  0.00    +0.000 C 
ATOM     24  C   UNL     1      -6.185  12.895  22.671  0.00  0.00    +0.000 C 
ATOM     25  C   UNL     1      -6.812  14.139  22.096  0.00  0.00    +0.000 C 
ATOM     26  C   UNL     1      -5.882  15.225  22.584  0.00  0.00    +0.000 C 
ATOM     27  O   UNL     1      -5.364  14.797  23.850  0.00  0.00    +0.000 OA
ENDBRANCH  22  23
ENDBRANCH  20  22
ENDBRANCH   3  18
BRANCH  16  28
ATOM     28  C   UNL     1      -0.192  13.314  18.451  0.00  0.00    +0.000 C 
BRANCH  28  29
ATOM     29  C   UNL     1       1.015  14.189  18.722  0.00  0.00    +0.000 A 
ATOM     30  C   UNL     1       2.256  13.575  18.982  0.00  0.00    +0.000 A 
ATOM     31  C   UNL     1       3.377  14.330  19.331  0.00  0.00    +0.000 A 
ATOM     32  C   UNL     1       3.280  15.714  19.421  0.00  0.00    +0.000 A 
ATOM     33  C   UNL     1       2.078  16.344  19.107  0.00  0.00    +0.000 A 
ATOM     34  C   UNL     1       0.957  15.592  18.739  0.00  0.00    +0.000 A 
ATOM     35 CL   UNL     1      -0.452  16.476  18.266  0.00  0.00    +0.000 Cl
ENDBRANCH  28  29
ENDBRANCH  16  28
TORSDOF 5
ENDMDL
MODEL 7
REMARK VINA RESULT:      -7.4      3.030      4.711
REMARK  Name = 
REMARK  5 active torsions:
REMARK  status: ('A' for Active; 'I' for Inactive)
REMARK    1  A    between atoms: C_3  and  C_4
REMARK    2  A    between atoms: N_6  and  C_7
REMARK    3  A    between atoms: C_7  and  C_8
REMARK    4  A    between atoms: N_25  and  C_26
REMARK    5  A    between atoms: C_26  and  C_27
REMARK                            x       y       z     vdW  Elec       q    Type
REMARK                         _______ _______ _______ _____ _____    ______ ____
ROOT
ATOM      1  N   UNL     1       1.392  12.230  20.364  0.00  0.00    +0.000 NA
ATOM      2  C   UNL     1       0.291  11.830  19.793  0.00  0.00    +0.000 A 
ATOM      3  C   UNL     1       0.328  10.756  18.738  0.00  0.00    +0.000 A 
ATOM      4  C   UNL     1      -0.851  10.436  18.173  0.00  0.00    +0.000 A 
ATOM      5  C   UNL     1      -2.105  11.058  18.567  0.00  0.00    +0.000 A 
ATOM      6  C   UNL     1      -3.374  10.640  17.898  0.00  0.00    +0.000 A 
ATOM      7  O   UNL     1      -3.351   9.760  17.034  0.00  0.00    +0.000 OA
ATOM      8  N   UNL     1      -4.523  11.297  18.303  0.00  0.00    +0.000 N 
ATOM      9  C   UNL     1      -5.744  10.959  17.730  0.00  0.00    +0.000 A 
ATOM     10  C   UNL     1      -6.883  11.570  18.085  0.00  0.00    +0.000 A 
ATOM     11  C   UNL     1      -6.857  12.611  19.080  0.00  0.00    +0.000 A 
ATOM     12  C   UNL     1      -5.701  12.968  19.650  0.00  0.00    +0.000 A 
ATOM     13  C   UNL     1      -4.434  12.280  19.268  0.00  0.00    +0.000 A 
ATOM     14  N   UNL     1      -3.334  12.639  19.844  0.00  0.00    +0.000 NA
ATOM     15  C   UNL     1      -2.148  12.028  19.510  0.00  0.00    +0.000 A 
ATOM     16  N   UNL     1      -0.935  12.420  20.137  0.00  0.00    +0.000 N 
ATOM     17  H   UNL     1       2.217  11.775  19.956  0.00  0.00    +0.000 HD
ENDROOT
BRANCH   3  18
ATOM     18  C   UNL     1       1.554  10.105  18.205  0.00  0.00    +0.000 C 
ATOM     19  O   UNL     1       2.450  10.753  17.674  0.00  0.00    +0.000 OA
ATOM     20  N   UNL     1       1.595   8.737  18.341  0.00  0.00    +0.000 N 
ATOM     21  H   UNL     1       0.725   8.220  18.442  0.00  0.00    +0.000 HD
BRANCH  20  22
ATOM     22  C   UNL     1       2.748   7.957  17.911  0.00  0.00    +0.000 C 
BRANCH  22  23
ATOM     23  C   UNL     1       2.663   6.496  18.352  0.00  0.00    +0.000 C 
ATOM     24  C   UNL     1       2.252   6.280  19.801  0.00  0.00    +0.000 C 
ATOM     25  C   UNL     1       2.960   4.996  20.147  0.00  0.00    +0.000 C 
ATOM     26  C   UNL     1       4.250   5.119  19.369  0.00  0.00    +0.000 C 
ATOM     27  O   UNL     1       3.956   5.872  18.186  0.00  0.00    +0.000 OA
ENDBRANCH  22  23
ENDBRANCH  20  22
ENDBRANCH   3  18
BRANCH  16  28
ATOM     28  C   UNL     1      -0.931  13.591  21.045  0.00  0.00    +0.000 C 
BRANCH  28  29
ATOM     29  C   UNL     1      -1.913  13.425  22.187  0.00  0.00    +0.000 A 
ATOM     30  C   UNL     1      -1.974  12.187  22.858  0.00  0.00    +0.000 A 
ATOM     31  C   UNL     1      -2.924  11.950  23.852  0.00  0.00    +0.000 A 
ATOM     32  C   UNL     1      -3.828  12.948  24.199  0.00  0.00    +0.000 A 
ATOM     33  C   UNL     1      -3.743  14.199  23.592  0.00  0.00    +0.000 A 
ATOM     34  C   UNL     1      -2.780  14.447  22.608  0.00  0.00    +0.000 A 
ATOM     35 CL   UNL     1      -2.691  16.061  21.995  0.00  0.00    +0.000 Cl
ENDBRANCH  28  29
ENDBRANCH  16  28
TORSDOF 5
ENDMDL
MODEL 8
REMARK VINA RESULT:      -7.3      4.505      8.090
REMARK  Name = 
REMARK  5 active torsions:
REMARK  status: ('A' for Active; 'I' for Inactive)
REMARK    1  A    between atoms: C_3  and  C_4
REMARK    2  A    between atoms: N_6  and  C_7
REMARK    3  A    between atoms: C_7  and  C_8
REMARK    4  A    between atoms: N_25  and  C_26
REMARK    5  A    between atoms: C_26  and  C_27
REMARK                            x       y       z     vdW  Elec       q    Type
REMARK                         _______ _______ _______ _____ _____    ______ ____
ROOT
ATOM      1  N   UNL     1       4.879   4.473  18.347  0.00  0.00    +0.000 NA
ATOM      2  C   UNL     1       4.270   5.624  18.276  0.00  0.00    +0.000 A 
ATOM      3  C   UNL     1       4.652   6.621  17.214  0.00  0.00    +0.000 A 
ATOM      4  C   UNL     1       4.000   7.798  17.242  0.00  0.00    +0.000 A 
ATOM      5  C   UNL     1       2.962   8.099  18.216  0.00  0.00    +0.000 A 
ATOM      6  C   UNL     1       2.279   9.427  18.175  0.00  0.00    +0.000 A 
ATOM      7  O   UNL     1       2.585  10.248  17.306  0.00  0.00    +0.000 OA
ATOM      8  N   UNL     1       1.324   9.652  19.151  0.00  0.00    +0.000 N 
ATOM      9  C   UNL     1       0.641  10.863  19.174  0.00  0.00    +0.000 A 
ATOM     10  C   UNL     1      -0.288  11.132  20.103  0.00  0.00    +0.000 A 
ATOM     11  C   UNL     1      -0.593  10.152  21.114  0.00  0.00    +0.000 A 
ATOM     12  C   UNL     1       0.047   8.977  21.127  0.00  0.00    +0.000 A 
ATOM     13  C   UNL     1       1.071   8.670  20.087  0.00  0.00    +0.000 A 
ATOM     14  N   UNL     1       1.665   7.523  20.120  0.00  0.00    +0.000 NA
ATOM     15  C   UNL     1       2.618   7.211  19.177  0.00  0.00    +0.000 A 
ATOM     16  N   UNL     1       3.276   5.954  19.209  0.00  0.00    +0.000 N 
ATOM     17  H   UNL     1       5.637   4.403  17.659  0.00  0.00    +0.000 HD
ENDROOT
BRANCH   3  18
ATOM     18  C   UNL     1       5.742   6.453  16.218  0.00  0.00    +0.000 C 
ATOM     19  O   UNL     1       6.779   7.106  16.279  0.00  0.00    +0.000 OA
ATOM     20  N   UNL     1       5.492   5.531  15.228  0.00  0.00    +0.000 N 
ATOM     21  H   UNL     1       4.531   5.290  15.002  0.00  0.00    +0.000 HD
BRANCH  20  22
ATOM     22  C   UNL     1       6.480   5.218  14.203  0.00  0.00    +0.000 C 
BRANCH  22  23
ATOM     23  C   UNL     1       6.227   3.863  13.541  0.00  0.00    +0.000 C 
ATOM     24  C   UNL     1       7.006   3.615  12.258  0.00  0.00    +0.000 C 
ATOM     25  C   UNL     1       6.077   2.711  11.490  0.00  0.00    +0.000 C 
ATOM     26  C   UNL     1       4.716   3.243  11.874  0.00  0.00    +0.000 C 
ATOM     27  O   UNL     1       4.826   3.749  13.210  0.00  0.00    +0.000 OA
ENDBRANCH  22  23
ENDBRANCH  20  22
ENDBRANCH   3  18
BRANCH  16  28
ATOM     28  C   UNL     1       3.037   5.036  20.349  0.00  0.00    +0.000 C 
BRANCH  28  29
ATOM     29  C   UNL     1       2.323   3.772  19.918  0.00  0.00    +0.000 A 
ATOM     30  C   UNL     1       1.089   3.882  19.247  0.00  0.00    +0.000 A 
ATOM     31  C   UNL     1       0.344   2.751  18.914  0.00  0.00    +0.000 A 
ATOM     32  C   UNL     1       0.822   1.486  19.238  0.00  0.00    +0.000 A 
ATOM     33  C   UNL     1       2.069   1.352  19.844  0.00  0.00    +0.000 A 
ATOM     34  C   UNL     1       2.827   2.484  20.164  0.00  0.00    +0.000 A 
ATOM     35 CL   UNL     1       4.404   2.206  20.815  0.00  0.00    +0.000 Cl
ENDBRANCH  28  29
ENDBRANCH  16  28
TORSDOF 5
ENDMDL
MODEL 9
REMARK VINA RESULT:      -7.3      2.103      4.657
REMARK  Name = 
REMARK  5 active torsions:
REMARK  status: ('A' for Active; 'I' for Inactive)
REMARK    1  A    between atoms: C_3  and  C_4
REMARK    2  A    between atoms: N_6  and  C_7
REMARK    3  A    between atoms: C_7  and  C_8
REMARK    4  A    between atoms: N_25  and  C_26
REMARK    5  A    between atoms: C_26  and  C_27
REMARK                            x       y       z     vdW  Elec       q    Type
REMARK                         _______ _______ _______ _____ _____    ______ ____
ROOT
ATOM      1  N   UNL     1      -0.952   9.457  18.590  0.00  0.00    +0.000 NA
ATOM      2  C   UNL     1      -0.161  10.491  18.533  0.00  0.00    +0.000 A 
ATOM      3  C   UNL     1       1.317  10.306  18.312  0.00  0.00    +0.000 A 
ATOM      4  C   UNL     1       2.063  11.426  18.309  0.00  0.00    +0.000 A 
ATOM      5  C   UNL     1       1.490  12.752  18.479  0.00  0.00    +0.000 A 
ATOM      6  C   UNL     1       2.386  13.947  18.454  0.00  0.00    +0.000 A 
ATOM      7  O   UNL     1       3.597  13.803  18.272  0.00  0.00    +0.000 OA
ATOM      8  N   UNL     1       1.773  15.173  18.652  0.00  0.00    +0.000 N 
ATOM      9  C   UNL     1       2.540  16.332  18.638  0.00  0.00    +0.000 A 
ATOM     10  C   UNL     1       1.995  17.542  18.830  0.00  0.00    +0.000 A 
ATOM     11  C   UNL     1       0.579  17.659  19.066  0.00  0.00    +0.000 A 
ATOM     12  C   UNL     1      -0.191  16.565  19.093  0.00  0.00    +0.000 A 
ATOM     13  C   UNL     1       0.410  15.220  18.865  0.00  0.00    +0.000 A 
ATOM     14  N   UNL     1      -0.361  14.183  18.886  0.00  0.00    +0.000 NA
ATOM     15  C   UNL     1       0.164  12.928  18.684  0.00  0.00    +0.000 A 
ATOM     16  N   UNL     1      -0.677  11.784  18.709  0.00  0.00    +0.000 N 
ATOM     17  H   UNL     1      -0.430   8.576  18.531  0.00  0.00    +0.000 HD
ENDROOT
BRANCH   3  18
ATOM     18  C   UNL     1       2.021   9.001  18.200  0.00  0.00    +0.000 C 
ATOM     19  O   UNL     1       2.605   8.668  17.174  0.00  0.00    +0.000 OA
ATOM     20  N   UNL     1       1.953   8.203  19.319  0.00  0.00    +0.000 N 
ATOM     21  H   UNL     1       1.194   8.338  19.982  0.00  0.00    +0.000 HD
BRANCH  20  22
ATOM     22  C   UNL     1       2.629   6.914  19.385  0.00  0.00    +0.000 C 
BRANCH  22  23
ATOM     23  C   UNL     1       1.653   5.748  19.543  0.00  0.00    +0.000 C 
ATOM     24  C   UNL     1       1.784   4.967  20.842  0.00  0.00    +0.000 C 
ATOM     25  C   UNL     1       1.351   3.584  20.428  0.00  0.00    +0.000 C 
ATOM     26  C   UNL     1       1.886   3.486  19.018  0.00  0.00    +0.000 C 
ATOM     27  O   UNL     1       1.855   4.808  18.465  0.00  0.00    +0.000 OA
ENDBRANCH  22  23
ENDBRANCH  20  22
ENDBRANCH   3  18
BRANCH  16  28
ATOM     28  C   UNL     1      -2.099  11.935  19.099  0.00  0.00    +0.000 C 
BRANCH  28  29
ATOM     29  C   UNL     1      -2.261  12.108  20.595  0.00  0.00    +0.000 A 
ATOM     30  C   UNL     1      -1.230  11.665  21.447  0.00  0.00    +0.000 A 
ATOM     31  C   UNL     1      -1.368  11.712  22.834  0.00  0.00    +0.000 A 
ATOM     32  C   UNL     1      -2.538  12.210  23.398  0.00  0.00    +0.000 A 
ATOM     33  C   UNL     1      -3.543  12.711  22.574  0.00  0.00    +0.000 A 
ATOM     34  C   UNL     1      -3.400  12.682  21.182  0.00  0.00    +0.000 A 
ATOM     35 CL   UNL     1      -4.657  13.425  20.255  0.00  0.00    +0.000 Cl
ENDBRANCH  28  29
ENDBRANCH  16  28
TORSDOF 5
ENDMDL
