MODEL 1
REMARK VINA RESULT:      -7.4      0.000      0.000
REMARK  Name = 
REMARK  3 active torsions:
REMARK  status: ('A' for Active; 'I' for Inactive)
REMARK    1  A    between atoms: C_1  and  C_2
REMARK    2  A    between atoms: C_11  and  S_12
REMARK    3  A    between atoms: S_12  and  C_14
REMARK                            x       y       z     vdW  Elec       q    Type
REMARK                         _______ _______ _______ _____ _____    ______ ____
ROOT
ATOM      1  C   UNL     1       6.227   3.673  13.037  0.00  0.00    +0.000 C 
ATOM      2  C   UNL     1       6.092   3.990  14.491  0.00  0.00    +0.000 A 
ATOM      3  C   UNL     1       5.208   3.307  15.310  0.00  0.00    +0.000 A 
ATOM      4  N   UNL     1       5.049   3.555  16.629  0.00  0.00    +0.000 NA
ATOM      5  C   UNL     1       5.773   4.560  17.180  0.00  0.00    +0.000 A 
ATOM      6  C   UNL     1       6.717   5.288  16.442  0.00  0.00    +0.000 A 
ATOM      7  C   UNL     1       6.868   4.986  15.082  0.00  0.00    +0.000 A 
ATOM      8  C   UNL     1       7.634   6.302  17.069  0.00  0.00    +0.000 C 
ATOM      9  C   UNL     1       7.237   6.704  18.486  0.00  0.00    +0.000 C 
ATOM     10  C   UNL     1       6.763   5.488  19.281  0.00  0.00    +0.000 C 
ATOM     11  C   UNL     1       5.510   4.860  18.648  0.00  0.00    +0.000 C 
ENDROOT
BRANCH  11  12
ATOM     12  S   UNL     1       4.033   5.972  18.809  0.00  0.00    +0.000 S 
ATOM     13  O   UNL     1       3.633   6.510  17.387  0.00  0.00    +0.000 OA
BRANCH  12  14
ATOM     14  C   UNL     1       2.780   4.735  19.229  0.00  0.00    +0.000 A 
ATOM     15  C   UNL     1       2.468   4.494  20.572  0.00  0.00    +0.000 A 
ATOM     16  C   UNL     1       1.479   3.568  20.910  0.00  0.00    +0.000 A 
ATOM     17  C   UNL     1       0.782   2.895  19.908  0.00  0.00    +0.000 A 
ATOM     18  C   UNL     1       1.072   3.148  18.568  0.00  0.00    +0.000 A 
ATOM     19  C   UNL     1       2.068   4.065  18.229  0.00  0.00    +0.000 A 
ENDBRANCH  12  14
ENDBRANCH  11  12
TORSDOF 2
ENDMDL
MODEL 2
REMARK VINA RESULT:      -7.3      0.192      1.122
REMARK  Name = 
REMARK  3 active torsions:
REMARK  status: ('A' for Active; 'I' for Inactive)
REMARK    1  A    between atoms: C_1  and  C_2
REMARK    2  A    between atoms: C_11  and  S_12
REMARK    3  A    between atoms: S_12  and  C_14
REMARK                            x       y       z     vdW  Elec       q    Type
REMARK                         _______ _______ _______ _____ _____    ______ ____
ROOT
ATOM      1  C   UNL     1       6.439   3.902  12.935  0.00  0.00    +0.000 C 
ATOM      2  C   UNL     1       6.240   4.163  14.394  0.00  0.00    +0.000 A 
ATOM      3  C   UNL     1       5.288   3.481  15.134  0.00  0.00    +0.000 A 
ATOM      4  N   UNL     1       5.069   3.679  16.454  0.00  0.00    +0.000 NA
ATOM      5  C   UNL     1       5.800   4.630  17.085  0.00  0.00    +0.000 A 
ATOM      6  C   UNL     1       6.809   5.350  16.430  0.00  0.00    +0.000 A 
ATOM      7  C   UNL     1       7.020   5.100  15.067  0.00  0.00    +0.000 A 
ATOM      8  C   UNL     1       7.728   6.299  17.148  0.00  0.00    +0.000 C 
ATOM      9  C   UNL     1       7.272   6.656  18.558  0.00  0.00    +0.000 C 
ATOM     10  C   UNL     1       6.711   5.427  19.273  0.00  0.00    +0.000 C 
ATOM     11  C   UNL     1       5.471   4.877  18.549  0.00  0.00    +0.000 C 
ENDROOT
BRANCH  11  12
ATOM     12  S   UNL     1       4.030   6.039  18.683  0.00  0.00    +0.000 S 
ATOM     13  O   UNL     1       3.670   6.584  17.253  0.00  0.00    +0.000 OA
BRANCH  12  14
ATOM     14  C   UNL     1       2.730   4.848  19.090  0.00  0.00    +0.000 A 
ATOM     15  C   UNL     1       2.142   4.090  18.072  0.00  0.00    +0.000 A 
ATOM     16  C   UNL     1       1.161   3.143  18.375  0.00  0.00    +0.000 A 
ATOM     17  C   UNL     1       0.781   2.932  19.700  0.00  0.00    +0.000 A 
ATOM     18  C   UNL     1       1.380   3.667  20.721  0.00  0.00    +0.000 A 
ATOM     19  C   UNL     1       2.352   4.623  20.418  0.00  0.00    +0.000 A 
ENDBRANCH  12  14
ENDBRANCH  11  12
TORSDOF 2
ENDMDL
MODEL 3
REMARK VINA RESULT:      -6.8      2.095      6.098
REMARK  Name = 
REMARK  3 active torsions:
REMARK  status: ('A' for Active; 'I' for Inactive)
REMARK    1  A    between atoms: C_1  and  C_2
REMARK    2  A    between atoms: C_11  and  S_12
REMARK    3  A    between atoms: S_12  and  C_14
REMARK                            x       y       z     vdW  Elec       q    Type
REMARK                         _______ _______ _______ _____ _____    ______ ____
ROOT
ATOM      1  C   UNL     1       0.934   8.390  20.707  0.00  0.00    +0.000 C 
ATOM      2  C   UNL     1       1.714   7.153  20.398  0.00  0.00    +0.000 A 
ATOM      3  C   UNL     1       2.892   7.195  19.669  0.00  0.00    +0.000 A 
ATOM      4  N   UNL     1       3.633   6.107  19.364  0.00  0.00    +0.000 NA
ATOM      5  C   UNL     1       3.179   4.894  19.763  0.00  0.00    +0.000 A 
ATOM      6  C   UNL     1       2.016   4.751  20.533  0.00  0.00    +0.000 A 
ATOM      7  C   UNL     1       1.287   5.906  20.848  0.00  0.00    +0.000 A 
ATOM      8  C   UNL     1       1.579   3.433  21.111  0.00  0.00    +0.000 C 
ATOM      9  C   UNL     1       2.312   2.228  20.529  0.00  0.00    +0.000 C 
ATOM     10  C   UNL     1       3.796   2.538  20.336  0.00  0.00    +0.000 C 
ATOM     11  C   UNL     1       4.001   3.687  19.334  0.00  0.00    +0.000 C 
ENDROOT
BRANCH  11  12
ATOM     12  S   UNL     1       3.528   3.184  17.611  0.00  0.00    +0.000 S 
ATOM     13  O   UNL     1       2.265   4.005  17.161  0.00  0.00    +0.000 OA
BRANCH  12  14
ATOM     14  C   UNL     1       4.920   3.900  16.705  0.00  0.00    +0.000 A 
ATOM     15  C   UNL     1       6.071   4.291  17.398  0.00  0.00    +0.000 A 
ATOM     16  C   UNL     1       7.167   4.814  16.707  0.00  0.00    +0.000 A 
ATOM     17  C   UNL     1       7.126   4.926  15.318  0.00  0.00    +0.000 A 
ATOM     18  C   UNL     1       5.992   4.516  14.619  0.00  0.00    +0.000 A 
ATOM     19  C   UNL     1       4.891   4.005  15.310  0.00  0.00    +0.000 A 
ENDBRANCH  12  14
ENDBRANCH  11  12
TORSDOF 2
ENDMDL
MODEL 4
REMARK VINA RESULT:      -6.8      2.130      6.114
REMARK  Name = 
REMARK  3 active torsions:
REMARK  status: ('A' for Active; 'I' for Inactive)
REMARK    1  A    between atoms: C_1  and  C_2
REMARK    2  A    between atoms: C_11  and  S_12
REMARK    3  A    between atoms: S_12  and  C_14
REMARK                            x       y       z     vdW  Elec       q    Type
REMARK                         _______ _______ _______ _____ _____    ______ ____
ROOT
ATOM      1  C   UNL     1       1.169   8.615  20.292  0.00  0.00    +0.000 C 
ATOM      2  C   UNL     1       1.855   7.300  20.104  0.00  0.00    +0.000 A 
ATOM      3  C   UNL     1       3.078   7.201  19.461  0.00  0.00    +0.000 A 
ATOM      4  N   UNL     1       3.740   6.037  19.266  0.00  0.00    +0.000 NA
ATOM      5  C   UNL     1       3.154   4.892  19.693  0.00  0.00    +0.000 A 
ATOM      6  C   UNL     1       1.933   4.893  20.383  0.00  0.00    +0.000 A 
ATOM      7  C   UNL     1       1.289   6.121  20.585  0.00  0.00    +0.000 A 
ATOM      8  C   UNL     1       1.343   3.652  20.995  0.00  0.00    +0.000 C 
ATOM      9  C   UNL     1       2.004   2.358  20.530  0.00  0.00    +0.000 C 
ATOM     10  C   UNL     1       3.519   2.530  20.429  0.00  0.00    +0.000 C 
ATOM     11  C   UNL     1       3.892   3.598  19.387  0.00  0.00    +0.000 C 
ENDROOT
BRANCH  11  12
ATOM     12  S   UNL     1       3.494   3.039  17.663  0.00  0.00    +0.000 S 
ATOM     13  O   UNL     1       2.215   3.799  17.155  0.00  0.00    +0.000 OA
BRANCH  12  14
ATOM     14  C   UNL     1       4.886   3.790  16.783  0.00  0.00    +0.000 A 
ATOM     15  C   UNL     1       4.752   4.124  15.431  0.00  0.00    +0.000 A 
ATOM     16  C   UNL     1       5.805   4.735  14.748  0.00  0.00    +0.000 A 
ATOM     17  C   UNL     1       6.990   5.036  15.419  0.00  0.00    +0.000 A 
ATOM     18  C   UNL     1       7.121   4.728  16.772  0.00  0.00    +0.000 A 
ATOM     19  C   UNL     1       6.073   4.106  17.453  0.00  0.00    +0.000 A 
ENDBRANCH  12  14
ENDBRANCH  11  12
TORSDOF 2
ENDMDL
MODEL 5
REMARK VINA RESULT:      -6.7      2.748      4.046
REMARK  Name = 
REMARK  3 active torsions:
REMARK  status: ('A' for Active; 'I' for Inactive)
REMARK    1  A    between atoms: C_1  and  C_2
REMARK    2  A    between atoms: C_11  and  S_12
REMARK    3  A    between atoms: S_12  and  C_14
REMARK                            x       y       z     vdW  Elec       q    Type
REMARK                         _______ _______ _______ _____ _____    ______ ____
ROOT
ATOM      1  C   UNL     1       7.247   4.792  14.870  0.00  0.00    +0.000 C 
ATOM      2  C   UNL     1       5.981   4.816  15.663  0.00  0.00    +0.000 A 
ATOM      3  C   UNL     1       5.282   5.991  15.888  0.00  0.00    +0.000 A 
ATOM      4  N   UNL     1       4.133   6.065  16.598  0.00  0.00    +0.000 NA
ATOM      5  C   UNL     1       3.654   4.927  17.156  0.00  0.00    +0.000 A 
ATOM      6  C   UNL     1       4.271   3.684  16.958  0.00  0.00    +0.000 A 
ATOM      7  C   UNL     1       5.448   3.645  16.198  0.00  0.00    +0.000 A 
ATOM      8  C   UNL     1       3.673   2.391  17.442  0.00  0.00    +0.000 C 
ATOM      9  C   UNL     1       2.528   2.571  18.432  0.00  0.00    +0.000 C 
ATOM     10  C   UNL     1       1.629   3.735  18.015  0.00  0.00    +0.000 C 
ATOM     11  C   UNL     1       2.403   5.065  18.010  0.00  0.00    +0.000 C 
ENDROOT
BRANCH  11  12
ATOM     12  S   UNL     1       2.869   5.590  19.728  0.00  0.00    +0.000 S 
ATOM     13  O   UNL     1       4.416   5.865  19.783  0.00  0.00    +0.000 OA
BRANCH  12  14
ATOM     14  C   UNL     1       2.085   7.221  19.759  0.00  0.00    +0.000 A 
ATOM     15  C   UNL     1       1.488   7.681  20.937  0.00  0.00    +0.000 A 
ATOM     16  C   UNL     1       0.909   8.951  20.985  0.00  0.00    +0.000 A 
ATOM     17  C   UNL     1       0.946   9.777  19.862  0.00  0.00    +0.000 A 
ATOM     18  C   UNL     1       1.561   9.334  18.692  0.00  0.00    +0.000 A 
ATOM     19  C   UNL     1       2.129   8.060  18.639  0.00  0.00    +0.000 A 
ENDBRANCH  12  14
ENDBRANCH  11  12
TORSDOF 2
ENDMDL
MODEL 6
REMARK VINA RESULT:      -6.7      1.802      6.018
REMARK  Name = 
REMARK  3 active torsions:
REMARK  status: ('A' for Active; 'I' for Inactive)
REMARK    1  A    between atoms: C_1  and  C_2
REMARK    2  A    between atoms: C_11  and  S_12
REMARK    3  A    between atoms: S_12  and  C_14
REMARK                            x       y       z     vdW  Elec       q    Type
REMARK                         _______ _______ _______ _____ _____    ______ ____
ROOT
ATOM      1  C   UNL     1       1.323   2.313  22.208  0.00  0.00    +0.000 C 
ATOM      2  C   UNL     1       1.803   3.163  21.077  0.00  0.00    +0.000 A 
ATOM      3  C   UNL     1       2.375   2.612  19.941  0.00  0.00    +0.000 A 
ATOM      4  N   UNL     1       2.824   3.336  18.891  0.00  0.00    +0.000 NA
ATOM      5  C   UNL     1       2.745   4.687  18.968  0.00  0.00    +0.000 A 
ATOM      6  C   UNL     1       2.154   5.337  20.061  0.00  0.00    +0.000 A 
ATOM      7  C   UNL     1       1.680   4.551  21.120  0.00  0.00    +0.000 A 
ATOM      8  C   UNL     1       1.923   6.823  20.096  0.00  0.00    +0.000 C 
ATOM      9  C   UNL     1       2.666   7.592  19.009  0.00  0.00    +0.000 C 
ATOM     10  C   UNL     1       2.627   6.830  17.684  0.00  0.00    +0.000 C 
ATOM     11  C   UNL     1       3.331   5.468  17.801  0.00  0.00    +0.000 C 
ENDROOT
BRANCH  11  12
ATOM     12  S   UNL     1       5.162   5.663  18.031  0.00  0.00    +0.000 S 
ATOM     13  O   UNL     1       5.681   4.552  19.015  0.00  0.00    +0.000 OA
BRANCH  12  14
ATOM     14  C   UNL     1       5.719   5.153  16.387  0.00  0.00    +0.000 A 
ATOM     15  C   UNL     1       6.977   5.558  15.925  0.00  0.00    +0.000 A 
ATOM     16  C   UNL     1       7.434   5.143  14.672  0.00  0.00    +0.000 A 
ATOM     17  C   UNL     1       6.647   4.304  13.885  0.00  0.00    +0.000 A 
ATOM     18  C   UNL     1       5.403   3.878  14.349  0.00  0.00    +0.000 A 
ATOM     19  C   UNL     1       4.940   4.301  15.597  0.00  0.00    +0.000 A 
ENDBRANCH  12  14
ENDBRANCH  11  12
TORSDOF 2
ENDMDL
MODEL 7
REMARK VINA RESULT:      -6.5      2.396      3.673
REMARK  Name = 
REMARK  3 active torsions:
REMARK  status: ('A' for Active; 'I' for Inactive)
REMARK    1  A    between atoms: C_1  and  C_2
REMARK    2  A    between atoms: C_11  and  S_12
REMARK    3  A    between atoms: S_12  and  C_14
REMARK                            x       y       z     vdW  Elec       q    Type
REMARK                         _______ _______ _______ _____ _____    ______ ____
ROOT
ATOM      1  C   UNL     1       1.930   9.098  18.283  0.00  0.00    +0.000 C 
ATOM      2  C   UNL     1       2.565   7.788  17.946  0.00  0.00    +0.000 A 
ATOM      3  C   UNL     1       1.914   6.583  18.159  0.00  0.00    +0.000 A 
ATOM      4  N   UNL     1       2.444   5.373  17.870  0.00  0.00    +0.000 NA
ATOM      5  C   UNL     1       3.706   5.332  17.377  0.00  0.00    +0.000 A 
ATOM      6  C   UNL     1       4.434   6.496  17.097  0.00  0.00    +0.000 A 
ATOM      7  C   UNL     1       3.841   7.732  17.389  0.00  0.00    +0.000 A 
ATOM      8  C   UNL     1       5.773   6.474  16.412  0.00  0.00    +0.000 C 
ATOM      9  C   UNL     1       6.411   5.091  16.343  0.00  0.00    +0.000 C 
ATOM     10  C   UNL     1       5.361   4.025  16.032  0.00  0.00    +0.000 C 
ATOM     11  C   UNL     1       4.295   3.950  17.139  0.00  0.00    +0.000 C 
ENDROOT
BRANCH  11  12
ATOM     12  S   UNL     1       5.001   3.285  18.722  0.00  0.00    +0.000 S 
ATOM     13  O   UNL     1       5.781   4.431  19.462  0.00  0.00    +0.000 OA
BRANCH  12  14
ATOM     14  C   UNL     1       3.466   3.062  19.655  0.00  0.00    +0.000 A 
ATOM     15  C   UNL     1       3.250   3.806  20.821  0.00  0.00    +0.000 A 
ATOM     16  C   UNL     1       2.056   3.670  21.532  0.00  0.00    +0.000 A 
ATOM     17  C   UNL     1       1.063   2.807  21.070  0.00  0.00    +0.000 A 
ATOM     18  C   UNL     1       1.262   2.082  19.896  0.00  0.00    +0.000 A 
ATOM     19  C   UNL     1       2.460   2.208  19.190  0.00  0.00    +0.000 A 
ENDBRANCH  12  14
ENDBRANCH  11  12
TORSDOF 2
ENDMDL
MODEL 8
REMARK VINA RESULT:      -6.5      1.399      1.912
REMARK  Name = 
REMARK  3 active torsions:
REMARK  status: ('A' for Active; 'I' for Inactive)
REMARK    1  A    between atoms: C_1  and  C_2
REMARK    2  A    between atoms: C_11  and  S_12
REMARK    3  A    between atoms: S_12  and  C_14
REMARK                            x       y       z     vdW  Elec       q    Type
REMARK                         _______ _______ _______ _____ _____    ______ ____
ROOT
ATOM      1  C   UNL     1       7.834   5.362  12.997  0.00  0.00    +0.000 C 
ATOM      2  C   UNL     1       7.089   4.923  14.216  0.00  0.00    +0.000 A 
ATOM      3  C   UNL     1       6.192   3.868  14.184  0.00  0.00    +0.000 A 
ATOM      4  N   UNL     1       5.495   3.432  15.258  0.00  0.00    +0.000 NA
ATOM      5  C   UNL     1       5.655   4.092  16.431  0.00  0.00    +0.000 A 
ATOM      6  C   UNL     1       6.563   5.150  16.573  0.00  0.00    +0.000 A 
ATOM      7  C   UNL     1       7.283   5.558  15.442  0.00  0.00    +0.000 A 
ATOM      8  C   UNL     1       6.863   5.794  17.898  0.00  0.00    +0.000 C 
ATOM      9  C   UNL     1       5.876   5.428  19.002  0.00  0.00    +0.000 C 
ATOM     10  C   UNL     1       5.500   3.949  18.924  0.00  0.00    +0.000 C 
ATOM     11  C   UNL     1       4.796   3.621  17.596  0.00  0.00    +0.000 C 
ENDROOT
BRANCH  11  12
ATOM     12  S   UNL     1       3.118   4.408  17.499  0.00  0.00    +0.000 S 
ATOM     13  O   UNL     1       2.230   3.607  16.478  0.00  0.00    +0.000 OA
BRANCH  12  14
ATOM     14  C   UNL     1       2.492   3.965  19.138  0.00  0.00    +0.000 A 
ATOM     15  C   UNL     1       2.068   2.655  19.387  0.00  0.00    +0.000 A 
ATOM     16  C   UNL     1       1.615   2.291  20.657  0.00  0.00    +0.000 A 
ATOM     17  C   UNL     1       1.605   3.228  21.689  0.00  0.00    +0.000 A 
ATOM     18  C   UNL     1       2.048   4.529  21.454  0.00  0.00    +0.000 A 
ATOM     19  C   UNL     1       2.490   4.897  20.181  0.00  0.00    +0.000 A 
ENDBRANCH  12  14
ENDBRANCH  11  12
TORSDOF 2
ENDMDL
MODEL 9
REMARK VINA RESULT:      -6.5      2.422      3.819
REMARK  Name = 
REMARK  3 active torsions:
REMARK  status: ('A' for Active; 'I' for Inactive)
REMARK    1  A    between atoms: C_1  and  C_2
REMARK    2  A    between atoms: C_11  and  S_12
REMARK    3  A    between atoms: S_12  and  C_14
REMARK                            x       y       z     vdW  Elec       q    Type
REMARK                         _______ _______ _______ _____ _____    ______ ____
ROOT
ATOM      1  C   UNL     1       1.894   9.190  18.272  0.00  0.00    +0.000 C 
ATOM      2  C   UNL     1       2.543   7.886  17.934  0.00  0.00    +0.000 A 
ATOM      3  C   UNL     1       1.895   6.677  18.127  0.00  0.00    +0.000 A 
ATOM      4  N   UNL     1       2.436   5.472  17.838  0.00  0.00    +0.000 NA
ATOM      5  C   UNL     1       3.706   5.442  17.364  0.00  0.00    +0.000 A 
ATOM      6  C   UNL     1       4.432   6.612  17.104  0.00  0.00    +0.000 A 
ATOM      7  C   UNL     1       3.827   7.843  17.396  0.00  0.00    +0.000 A 
ATOM      8  C   UNL     1       5.781   6.603  16.439  0.00  0.00    +0.000 C 
ATOM      9  C   UNL     1       6.428   5.224  16.369  0.00  0.00    +0.000 C 
ATOM     10  C   UNL     1       5.388   4.155  16.033  0.00  0.00    +0.000 C 
ATOM     11  C   UNL     1       4.307   4.065  17.123  0.00  0.00    +0.000 C 
ENDROOT
BRANCH  11  12
ATOM     12  S   UNL     1       4.992   3.391  18.711  0.00  0.00    +0.000 S 
ATOM     13  O   UNL     1       5.782   4.527  19.457  0.00  0.00    +0.000 OA
BRANCH  12  14
ATOM     14  C   UNL     1       3.448   3.189  19.634  0.00  0.00    +0.000 A 
ATOM     15  C   UNL     1       2.466   2.312  19.158  0.00  0.00    +0.000 A 
ATOM     16  C   UNL     1       1.284   2.120  19.877  0.00  0.00    +0.000 A 
ATOM     17  C   UNL     1       1.088   2.786  21.086  0.00  0.00    +0.000 A 
ATOM     18  C   UNL     1       2.072   3.643  21.578  0.00  0.00    +0.000 A 
ATOM     19  C   UNL     1       3.249   3.844  20.854  0.00  0.00    +0.000 A 
ENDBRANCH  12  14
ENDBRANCH  11  12
TORSDOF 2
ENDMDL
