MODEL 1
REMARK VINA RESULT:      -8.3      0.000      0.000
REMARK  Name = 
REMARK  4 active torsions:
REMARK  status: ('A' for Active; 'I' for Inactive)
REMARK    1  A    between atoms: C_3  and  C_4
REMARK    2  A    between atoms: C_7  and  C_8
REMARK    3  A    between atoms: C_15  and  C_16
REMARK    4  A    between atoms: C_18  and  C_19
REMARK                            x       y       z     vdW  Elec       q    Type
REMARK                         _______ _______ _______ _____ _____    ______ ____
ROOT
ATOM      1  C   UNL     1       2.210   8.930  17.511  0.00  0.00    +0.000 C 
ATOM      2  C   UNL     1       1.972   8.383  18.720  0.00  0.00    +0.000 C 
ATOM      3  C   UNL     1       2.495   7.012  18.928  0.00  0.00    +0.000 C 
ATOM      4  C   UNL     1       2.192   6.332  20.044  0.00  0.00    +0.000 C 
ATOM      5  C   UNL     1       1.346   6.866  21.141  0.00  0.00    +0.000 C 
ATOM      6  C   UNL     1       0.898   8.300  20.981  0.00  0.00    +0.000 A 
ATOM      7  C   UNL     1       0.159   8.827  22.067  0.00  0.00    +0.000 A 
ATOM      8  C   UNL     1      -0.305  10.135  22.048  0.00  0.00    +0.000 A 
ATOM      9  C   UNL     1      -1.095  10.711  23.183  0.00  0.00    +0.000 C 
ATOM     10  C   UNL     1      -0.018  10.915  20.936  0.00  0.00    +0.000 A 
ATOM     11  C   UNL     1       0.720  10.422  19.832  0.00  0.00    +0.000 A 
ATOM     12  C   UNL     1       0.933  11.426  18.732  0.00  0.00    +0.000 C 
ATOM     13  C   UNL     1       1.188   9.080  19.825  0.00  0.00    +0.000 A 
ENDROOT
BRANCH   3  14
ATOM     14  C   UNL     1       3.336   6.248  17.977  0.00  0.00    +0.000 A 
ATOM     15  C   UNL     1       3.046   4.903  17.712  0.00  0.00    +0.000 A 
ATOM     16  C   UNL     1       3.904   4.143  16.916  0.00  0.00    +0.000 A 
ATOM     17  C   UNL     1       5.056   4.718  16.366  0.00  0.00    +0.000 A 
ATOM     18  C   UNL     1       6.016   3.894  15.563  0.00  0.00    +0.000 C 
ATOM     19  C   UNL     1       5.314   6.078  16.586  0.00  0.00    +0.000 A 
ATOM     20  C   UNL     1       4.459   6.839  17.387  0.00  0.00    +0.000 A 
ENDBRANCH   3  14
TORSDOF 1
ENDMDL
MODEL 2
REMARK VINA RESULT:      -8.1      0.276      1.115
REMARK  Name = 
REMARK  4 active torsions:
REMARK  status: ('A' for Active; 'I' for Inactive)
REMARK    1  A    between atoms: C_3  and  C_4
REMARK    2  A    between atoms: C_7  and  C_8
REMARK    3  A    between atoms: C_15  and  C_16
REMARK    4  A    between atoms: C_18  and  C_19
REMARK                            x       y       z     vdW  Elec       q    Type
REMARK                         _______ _______ _______ _____ _____    ______ ____
ROOT
ATOM      1  C   UNL     1       2.406   8.756  17.520  0.00  0.00    +0.000 C 
ATOM      2  C   UNL     1       2.141   8.204  18.720  0.00  0.00    +0.000 C 
ATOM      3  C   UNL     1       2.667   6.834  18.935  0.00  0.00    +0.000 C 
ATOM      4  C   UNL     1       2.341   6.148  20.041  0.00  0.00    +0.000 C 
ATOM      5  C   UNL     1       1.466   6.673  21.119  0.00  0.00    +0.000 C 
ATOM      6  C   UNL     1       1.014   8.105  20.954  0.00  0.00    +0.000 A 
ATOM      7  C   UNL     1       0.247   8.624  22.024  0.00  0.00    +0.000 A 
ATOM      8  C   UNL     1      -0.224   9.930  21.999  0.00  0.00    +0.000 A 
ATOM      9  C   UNL     1      -1.044  10.497  23.117  0.00  0.00    +0.000 C 
ATOM     10  C   UNL     1       0.086  10.716  20.897  0.00  0.00    +0.000 A 
ATOM     11  C   UNL     1       0.853  10.231  19.810  0.00  0.00    +0.000 A 
ATOM     12  C   UNL     1       1.087  11.241  18.719  0.00  0.00    +0.000 C 
ATOM     13  C   UNL     1       1.328   8.892  19.808  0.00  0.00    +0.000 A 
ENDROOT
BRANCH   3  14
ATOM     14  C   UNL     1       3.534   6.078  18.002  0.00  0.00    +0.000 A 
ATOM     15  C   UNL     1       4.601   6.721  17.362  0.00  0.00    +0.000 A 
ATOM     16  C   UNL     1       5.345   6.051  16.390  0.00  0.00    +0.000 A 
ATOM     17  C   UNL     1       5.038   4.728  16.050  0.00  0.00    +0.000 A 
ATOM     18  C   UNL     1       5.789   4.022  14.962  0.00  0.00    +0.000 C 
ATOM     19  C   UNL     1       4.005   4.069  16.730  0.00  0.00    +0.000 A 
ATOM     20  C   UNL     1       3.257   4.739  17.701  0.00  0.00    +0.000 A 
ENDBRANCH   3  14
TORSDOF 1
ENDMDL
MODEL 3
REMARK VINA RESULT:      -8.0      1.059      7.308
REMARK  Name = 
REMARK  4 active torsions:
REMARK  status: ('A' for Active; 'I' for Inactive)
REMARK    1  A    between atoms: C_3  and  C_4
REMARK    2  A    between atoms: C_7  and  C_8
REMARK    3  A    between atoms: C_15  and  C_16
REMARK    4  A    between atoms: C_18  and  C_19
REMARK                            x       y       z     vdW  Elec       q    Type
REMARK                         _______ _______ _______ _____ _____    ______ ____
ROOT
ATOM      1  C   UNL     1       1.645   5.748  20.708  0.00  0.00    +0.000 C 
ATOM      2  C   UNL     1       2.294   6.371  19.705  0.00  0.00    +0.000 C 
ATOM      3  C   UNL     1       1.988   7.811  19.528  0.00  0.00    +0.000 C 
ATOM      4  C   UNL     1       2.477   8.485  18.476  0.00  0.00    +0.000 C 
ATOM      5  C   UNL     1       3.345   7.883  17.432  0.00  0.00    +0.000 C 
ATOM      6  C   UNL     1       3.745   6.445  17.664  0.00  0.00    +0.000 A 
ATOM      7  C   UNL     1       4.637   5.903  16.709  0.00  0.00    +0.000 A 
ATOM      8  C   UNL     1       5.087   4.594  16.812  0.00  0.00    +0.000 A 
ATOM      9  C   UNL     1       6.024   3.998  15.807  0.00  0.00    +0.000 C 
ATOM     10  C   UNL     1       4.642   3.832  17.884  0.00  0.00    +0.000 A 
ATOM     11  C   UNL     1       3.752   4.341  18.861  0.00  0.00    +0.000 A 
ATOM     12  C   UNL     1       3.399   3.362  19.947  0.00  0.00    +0.000 C 
ATOM     13  C   UNL     1       3.266   5.673  18.762  0.00  0.00    +0.000 A 
ENDROOT
BRANCH   3  14
ATOM     14  C   UNL     1       1.128   8.633  20.411  0.00  0.00    +0.000 A 
ATOM     15  C   UNL     1       0.210   9.531  19.854  0.00  0.00    +0.000 A 
ATOM     16  C   UNL     1      -0.514  10.396  20.676  0.00  0.00    +0.000 A 
ATOM     17  C   UNL     1      -0.337  10.369  22.064  0.00  0.00    +0.000 A 
ATOM     18  C   UNL     1      -1.062  11.338  22.948  0.00  0.00    +0.000 C 
ATOM     19  C   UNL     1       0.541   9.431  22.623  0.00  0.00    +0.000 A 
ATOM     20  C   UNL     1       1.270   8.567  21.802  0.00  0.00    +0.000 A 
ENDBRANCH   3  14
TORSDOF 1
ENDMDL
MODEL 4
REMARK VINA RESULT:      -8.0      1.057      7.292
REMARK  Name = 
REMARK  4 active torsions:
REMARK  status: ('A' for Active; 'I' for Inactive)
REMARK    1  A    between atoms: C_3  and  C_4
REMARK    2  A    between atoms: C_7  and  C_8
REMARK    3  A    between atoms: C_15  and  C_16
REMARK    4  A    between atoms: C_18  and  C_19
REMARK                            x       y       z     vdW  Elec       q    Type
REMARK                         _______ _______ _______ _____ _____    ______ ____
ROOT
ATOM      1  C   UNL     1       1.630   5.812  20.754  0.00  0.00    +0.000 C 
ATOM      2  C   UNL     1       2.286   6.389  19.727  0.00  0.00    +0.000 C 
ATOM      3  C   UNL     1       2.052   7.840  19.540  0.00  0.00    +0.000 C 
ATOM      4  C   UNL     1       2.549   8.475  18.468  0.00  0.00    +0.000 C 
ATOM      5  C   UNL     1       3.358   7.817  17.411  0.00  0.00    +0.000 C 
ATOM      6  C   UNL     1       3.686   6.362  17.651  0.00  0.00    +0.000 A 
ATOM      7  C   UNL     1       4.523   5.762  16.680  0.00  0.00    +0.000 A 
ATOM      8  C   UNL     1       4.905   4.432  16.788  0.00  0.00    +0.000 A 
ATOM      9  C   UNL     1       5.784   3.776  15.768  0.00  0.00    +0.000 C 
ATOM     10  C   UNL     1       4.448   3.707  17.881  0.00  0.00    +0.000 A 
ATOM     11  C   UNL     1       3.612   4.274  18.873  0.00  0.00    +0.000 A 
ATOM     12  C   UNL     1       3.235   3.327  19.980  0.00  0.00    +0.000 C 
ATOM     13  C   UNL     1       3.195   5.629  18.770  0.00  0.00    +0.000 A 
ENDROOT
BRANCH   3  14
ATOM     14  C   UNL     1       1.260   8.717  20.434  0.00  0.00    +0.000 A 
ATOM     15  C   UNL     1       1.418   8.626  21.823  0.00  0.00    +0.000 A 
ATOM     16  C   UNL     1       0.588   9.357  22.674  0.00  0.00    +0.000 A 
ATOM     17  C   UNL     1      -0.402  10.195  22.150  0.00  0.00    +0.000 A 
ATOM     18  C   UNL     1      -1.339  10.935  23.056  0.00  0.00    +0.000 C 
ATOM     19  C   UNL     1      -0.522  10.327  20.759  0.00  0.00    +0.000 A 
ATOM     20  C   UNL     1       0.304   9.593  19.906  0.00  0.00    +0.000 A 
ENDBRANCH   3  14
TORSDOF 1
ENDMDL
MODEL 5
REMARK VINA RESULT:      -7.9      1.646      2.914
REMARK  Name = 
REMARK  4 active torsions:
REMARK  status: ('A' for Active; 'I' for Inactive)
REMARK    1  A    between atoms: C_3  and  C_4
REMARK    2  A    between atoms: C_7  and  C_8
REMARK    3  A    between atoms: C_15  and  C_16
REMARK    4  A    between atoms: C_18  and  C_19
REMARK                            x       y       z     vdW  Elec       q    Type
REMARK                         _______ _______ _______ _____ _____    ______ ____
ROOT
ATOM      1  C   UNL     1       1.457   6.959  21.067  0.00  0.00    +0.000 C 
ATOM      2  C   UNL     1       1.530   7.830  20.041  0.00  0.00    +0.000 C 
ATOM      3  C   UNL     1       2.156   7.319  18.799  0.00  0.00    +0.000 C 
ATOM      4  C   UNL     1       2.399   8.146  17.771  0.00  0.00    +0.000 C 
ATOM      5  C   UNL     1       2.070   9.594  17.772  0.00  0.00    +0.000 C 
ATOM      6  C   UNL     1       1.338  10.097  18.994  0.00  0.00    +0.000 A 
ATOM      7  C   UNL     1       0.957  11.459  18.953  0.00  0.00    +0.000 A 
ATOM      8  C   UNL     1       0.271  12.042  20.010  0.00  0.00    +0.000 A 
ATOM      9  C   UNL     1      -0.135  13.483  19.991  0.00  0.00    +0.000 C 
ATOM     10  C   UNL     1      -0.037  11.248  21.107  0.00  0.00    +0.000 A 
ATOM     11  C   UNL     1       0.326   9.881  21.182  0.00  0.00    +0.000 A 
ATOM     12  C   UNL     1      -0.108   9.194  22.448  0.00  0.00    +0.000 C 
ATOM     13  C   UNL     1       1.044   9.271  20.118  0.00  0.00    +0.000 A 
ENDROOT
BRANCH   3  14
ATOM     14  C   UNL     1       2.601   5.926  18.557  0.00  0.00    +0.000 A 
ATOM     15  C   UNL     1       1.764   5.032  17.877  0.00  0.00    +0.000 A 
ATOM     16  C   UNL     1       2.121   3.689  17.755  0.00  0.00    +0.000 A 
ATOM     17  C   UNL     1       3.323   3.223  18.301  0.00  0.00    +0.000 A 
ATOM     18  C   UNL     1       3.684   1.770  18.231  0.00  0.00    +0.000 C 
ATOM     19  C   UNL     1       4.185   4.130  18.933  0.00  0.00    +0.000 A 
ATOM     20  C   UNL     1       3.826   5.474  19.061  0.00  0.00    +0.000 A 
ENDBRANCH   3  14
TORSDOF 1
ENDMDL
MODEL 6
REMARK VINA RESULT:      -7.6      1.643      3.039
REMARK  Name = 
REMARK  4 active torsions:
REMARK  status: ('A' for Active; 'I' for Inactive)
REMARK    1  A    between atoms: C_3  and  C_4
REMARK    2  A    between atoms: C_7  and  C_8
REMARK    3  A    between atoms: C_15  and  C_16
REMARK    4  A    between atoms: C_18  and  C_19
REMARK                            x       y       z     vdW  Elec       q    Type
REMARK                         _______ _______ _______ _____ _____    ______ ____
ROOT
ATOM      1  C   UNL     1       1.370   7.110  21.169  0.00  0.00    +0.000 C 
ATOM      2  C   UNL     1       1.485   7.927  20.103  0.00  0.00    +0.000 C 
ATOM      3  C   UNL     1       2.106   7.335  18.895  0.00  0.00    +0.000 C 
ATOM      4  C   UNL     1       2.389   8.103  17.831  0.00  0.00    +0.000 C 
ATOM      5  C   UNL     1       2.110   9.559  17.758  0.00  0.00    +0.000 C 
ATOM      6  C   UNL     1       1.382  10.145  18.945  0.00  0.00    +0.000 A 
ATOM      7  C   UNL     1       1.048  11.516  18.834  0.00  0.00    +0.000 A 
ATOM      8  C   UNL     1       0.372  12.173  19.853  0.00  0.00    +0.000 A 
ATOM      9  C   UNL     1       0.016  13.624  19.759  0.00  0.00    +0.000 C 
ATOM     10  C   UNL     1       0.025  11.444  20.983  0.00  0.00    +0.000 A 
ATOM     11  C   UNL     1       0.339  10.071  21.128  0.00  0.00    +0.000 A 
ATOM     12  C   UNL     1      -0.132   9.461  22.420  0.00  0.00    +0.000 C 
ATOM     13  C   UNL     1       1.048   9.386  20.104  0.00  0.00    +0.000 A 
ENDROOT
BRANCH   3  14
ATOM     14  C   UNL     1       2.506   5.918  18.726  0.00  0.00    +0.000 A 
ATOM     15  C   UNL     1       3.745   5.479  19.208  0.00  0.00    +0.000 A 
ATOM     16  C   UNL     1       4.181   4.180  18.945  0.00  0.00    +0.000 A 
ATOM     17  C   UNL     1       3.382   3.300  18.205  0.00  0.00    +0.000 A 
ATOM     18  C   UNL     1       3.870   1.925  17.863  0.00  0.00    +0.000 C 
ATOM     19  C   UNL     1       2.119   3.724  17.771  0.00  0.00    +0.000 A 
ATOM     20  C   UNL     1       1.682   5.026  18.030  0.00  0.00    +0.000 A 
ENDBRANCH   3  14
TORSDOF 1
ENDMDL
MODEL 7
REMARK VINA RESULT:      -7.5      1.205      2.885
REMARK  Name = 
REMARK  4 active torsions:
REMARK  status: ('A' for Active; 'I' for Inactive)
REMARK    1  A    between atoms: C_3  and  C_4
REMARK    2  A    between atoms: C_7  and  C_8
REMARK    3  A    between atoms: C_15  and  C_16
REMARK    4  A    between atoms: C_18  and  C_19
REMARK                            x       y       z     vdW  Elec       q    Type
REMARK                         _______ _______ _______ _____ _____    ______ ____
ROOT
ATOM      1  C   UNL     1       1.825   7.737  21.147  0.00  0.00    +0.000 C 
ATOM      2  C   UNL     1       1.333   8.588  20.224  0.00  0.00    +0.000 C 
ATOM      3  C   UNL     1       1.751   8.340  18.824  0.00  0.00    +0.000 C 
ATOM      4  C   UNL     1       1.428   9.210  17.855  0.00  0.00    +0.000 C 
ATOM      5  C   UNL     1       0.643  10.450  18.078  0.00  0.00    +0.000 C 
ATOM      6  C   UNL     1       0.125  10.653  19.483  0.00  0.00    +0.000 A 
ATOM      7  C   UNL     1      -0.688  11.795  19.669  0.00  0.00    +0.000 A 
ATOM      8  C   UNL     1      -1.233  12.091  20.911  0.00  0.00    +0.000 A 
ATOM      9  C   UNL     1      -2.090  13.298  21.133  0.00  0.00    +0.000 C 
ATOM     10  C   UNL     1      -0.961  11.229  21.966  0.00  0.00    +0.000 A 
ATOM     11  C   UNL     1      -0.154  10.076  21.816  0.00  0.00    +0.000 A 
ATOM     12  C   UNL     1       0.011   9.268  23.075  0.00  0.00    +0.000 C 
ATOM     13  C   UNL     1       0.427   9.766  20.557  0.00  0.00    +0.000 A 
ENDROOT
BRANCH   3  14
ATOM     14  C   UNL     1       2.560   7.194  18.347  0.00  0.00    +0.000 A 
ATOM     15  C   UNL     1       3.801   7.420  17.738  0.00  0.00    +0.000 A 
ATOM     16  C   UNL     1       4.511   6.358  17.176  0.00  0.00    +0.000 A 
ATOM     17  C   UNL     1       3.996   5.058  17.221  0.00  0.00    +0.000 A 
ATOM     18  C   UNL     1       4.721   3.923  16.564  0.00  0.00    +0.000 C 
ATOM     19  C   UNL     1       2.781   4.826  17.879  0.00  0.00    +0.000 A 
ATOM     20  C   UNL     1       2.066   5.888  18.439  0.00  0.00    +0.000 A 
ENDBRANCH   3  14
TORSDOF 1
ENDMDL
MODEL 8
REMARK VINA RESULT:      -7.4      1.150      2.722
REMARK  Name = 
REMARK  4 active torsions:
REMARK  status: ('A' for Active; 'I' for Inactive)
REMARK    1  A    between atoms: C_3  and  C_4
REMARK    2  A    between atoms: C_7  and  C_8
REMARK    3  A    between atoms: C_15  and  C_16
REMARK    4  A    between atoms: C_18  and  C_19
REMARK                            x       y       z     vdW  Elec       q    Type
REMARK                         _______ _______ _______ _____ _____    ______ ____
ROOT
ATOM      1  C   UNL     1       1.650   7.576  20.985  0.00  0.00    +0.000 C 
ATOM      2  C   UNL     1       1.389   8.597  20.146  0.00  0.00    +0.000 C 
ATOM      3  C   UNL     1       1.887   8.443  18.759  0.00  0.00    +0.000 C 
ATOM      4  C   UNL     1       1.799   9.460  17.888  0.00  0.00    +0.000 C 
ATOM      5  C   UNL     1       1.207  10.783  18.210  0.00  0.00    +0.000 C 
ATOM      6  C   UNL     1       0.604  10.910  19.590  0.00  0.00    +0.000 A 
ATOM      7  C   UNL     1      -0.029  12.146  19.862  0.00  0.00    +0.000 A 
ATOM      8  C   UNL     1      -0.629  12.387  21.090  0.00  0.00    +0.000 A 
ATOM      9  C   UNL     1      -1.297  13.691  21.402  0.00  0.00    +0.000 C 
ATOM     10  C   UNL     1      -0.598  11.378  22.043  0.00  0.00    +0.000 A 
ATOM     11  C   UNL     1       0.023  10.128  21.805  0.00  0.00    +0.000 A 
ATOM     12  C   UNL     1      -0.060   9.166  22.959  0.00  0.00    +0.000 C 
ATOM     13  C   UNL     1       0.659   9.868  20.561  0.00  0.00    +0.000 A 
ENDROOT
BRANCH   3  14
ATOM     14  C   UNL     1       2.541   7.237  18.198  0.00  0.00    +0.000 A 
ATOM     15  C   UNL     1       1.898   5.995  18.271  0.00  0.00    +0.000 A 
ATOM     16  C   UNL     1       2.558   4.837  17.858  0.00  0.00    +0.000 A 
ATOM     17  C   UNL     1       3.863   4.904  17.360  0.00  0.00    +0.000 A 
ATOM     18  C   UNL     1       4.603   3.659  16.975  0.00  0.00    +0.000 C 
ATOM     19  C   UNL     1       4.485   6.155  17.236  0.00  0.00    +0.000 A 
ATOM     20  C   UNL     1       3.828   7.315  17.652  0.00  0.00    +0.000 A 
ENDBRANCH   3  14
TORSDOF 1
ENDMDL
MODEL 9
REMARK VINA RESULT:      -7.3      1.401      2.578
REMARK  Name = 
REMARK  4 active torsions:
REMARK  status: ('A' for Active; 'I' for Inactive)
REMARK    1  A    between atoms: C_3  and  C_4
REMARK    2  A    between atoms: C_7  and  C_8
REMARK    3  A    between atoms: C_15  and  C_16
REMARK    4  A    between atoms: C_18  and  C_19
REMARK                            x       y       z     vdW  Elec       q    Type
REMARK                         _______ _______ _______ _____ _____    ______ ____
ROOT
ATOM      1  C   UNL     1       0.190   9.828  18.231  0.00  0.00    +0.000 C 
ATOM      2  C   UNL     1       0.287   9.777  19.574  0.00  0.00    +0.000 C 
ATOM      3  C   UNL     1       1.179   8.727  20.122  0.00  0.00    +0.000 C 
ATOM      4  C   UNL     1       1.236   8.508  21.445  0.00  0.00    +0.000 C 
ATOM      5  C   UNL     1       0.453   9.269  22.450  0.00  0.00    +0.000 C 
ATOM      6  C   UNL     1      -0.377  10.408  21.905  0.00  0.00    +0.000 A 
ATOM      7  C   UNL     1      -1.057  11.179  22.877  0.00  0.00    +0.000 A 
ATOM      8  C   UNL     1      -1.848  12.260  22.508  0.00  0.00    +0.000 A 
ATOM      9  C   UNL     1      -2.583  13.084  23.519  0.00  0.00    +0.000 C 
ATOM     10  C   UNL     1      -1.946  12.567  21.158  0.00  0.00    +0.000 A 
ATOM     11  C   UNL     1      -1.277  11.820  20.158  0.00  0.00    +0.000 A 
ATOM     12  C   UNL     1      -1.504  12.319  18.757  0.00  0.00    +0.000 C 
ATOM     13  C   UNL     1      -0.479  10.700  20.514  0.00  0.00    +0.000 A 
ENDROOT
BRANCH   3  14
ATOM     14  C   UNL     1       2.039   7.817  19.331  0.00  0.00    +0.000 A 
ATOM     15  C   UNL     1       2.297   6.520  19.794  0.00  0.00    +0.000 A 
ATOM     16  C   UNL     1       3.203   5.701  19.121  0.00  0.00    +0.000 A 
ATOM     17  C   UNL     1       3.857   6.161  17.973  0.00  0.00    +0.000 A 
ATOM     18  C   UNL     1       4.880   5.312  17.280  0.00  0.00    +0.000 C 
ATOM     19  C   UNL     1       3.557   7.438  17.480  0.00  0.00    +0.000 A 
ATOM     20  C   UNL     1       2.653   8.262  18.155  0.00  0.00    +0.000 A 
ENDBRANCH   3  14
TORSDOF 1
ENDMDL
