MODEL 1
REMARK VINA RESULT:      -8.2      0.000      0.000
REMARK  Name = 
REMARK  4 active torsions:
REMARK  status: ('A' for Active; 'I' for Inactive)
REMARK    1  A    between atoms: C_1  and  O_2
REMARK    2  A    between atoms: O_2  and  C_3
REMARK    3  A    between atoms: C_6  and  N_7
REMARK    4  A    between atoms: N_12  and  C_13
REMARK                            x       y       z     vdW  Elec       q    Type
REMARK                         _______ _______ _______ _____ _____    ______ ____
ROOT
ATOM      1  N   UNL     1       4.667   5.036  16.576  0.00  0.00    +0.000 N 
ATOM      2  C   UNL     1       5.978   4.960  16.949  0.00  0.00    +0.000 A 
ATOM      3  N   UNL     1       6.504   5.049  18.155  0.00  0.00    +0.000 NA
ATOM      4  N   UNL     1       7.799   4.628  18.050  0.00  0.00    +0.000 NA
ATOM      5  N   UNL     1       8.091   4.275  16.812  0.00  0.00    +0.000 NA
ATOM      6  N   UNL     1       6.999   4.596  16.070  0.00  0.00    +0.000 N 
ATOM      7  H   UNL     1       4.401   5.898  16.107  0.00  0.00    +0.000 HD
ENDROOT
BRANCH   6   8
ATOM      8  C   UNL     1       7.017   4.535  14.661  0.00  0.00    +0.000 A 
ATOM      9  C   UNL     1       7.825   5.421  13.931  0.00  0.00    +0.000 A 
ATOM     10  C   UNL     1       7.850   5.350  12.536  0.00  0.00    +0.000 A 
ATOM     11  C   UNL     1       7.028   4.442  11.865  0.00  0.00    +0.000 A 
ATOM     12  C   UNL     1       6.194   3.596  12.593  0.00  0.00    +0.000 A 
ATOM     13 CL   UNL     1       5.128   2.525  11.771  0.00  0.00    +0.000 Cl
ATOM     14  C   UNL     1       6.197   3.623  13.986  0.00  0.00    +0.000 A 
ENDBRANCH   6   8
BRANCH   1  18
ATOM     15  C   UNL     1       1.642   3.744  19.252  0.00  0.00    +0.000 A 
ATOM     16  C   UNL     1       2.384   2.826  18.510  0.00  0.00    +0.000 A 
ATOM     17  C   UNL     1       3.386   3.263  17.638  0.00  0.00    +0.000 A 
ATOM     18  C   UNL     1       3.618   4.629  17.440  0.00  0.00    +0.000 A 
ATOM     19  C   UNL     1       2.868   5.541  18.199  0.00  0.00    +0.000 A 
ATOM     20  C   UNL     1       1.884   5.106  19.091  0.00  0.00    +0.000 A 
BRANCH  15  22
ATOM     21  C   UNL     1       1.180   2.706  21.320  0.00  0.00    +0.000 C 
ATOM     22  O   UNL     1       0.695   3.206  20.078  0.00  0.00    +0.000 OA
ENDBRANCH  15  22
ENDBRANCH   1  18
TORSDOF 3
ENDMDL
MODEL 2
REMARK VINA RESULT:      -7.9      0.220      1.061
REMARK  Name = 
REMARK  4 active torsions:
REMARK  status: ('A' for Active; 'I' for Inactive)
REMARK    1  A    between atoms: C_1  and  O_2
REMARK    2  A    between atoms: O_2  and  C_3
REMARK    3  A    between atoms: C_6  and  N_7
REMARK    4  A    between atoms: N_12  and  C_13
REMARK                            x       y       z     vdW  Elec       q    Type
REMARK                         _______ _______ _______ _____ _____    ______ ____
ROOT
ATOM      1  N   UNL     1       4.647   4.822  16.597  0.00  0.00    +0.000 N 
ATOM      2  C   UNL     1       5.964   4.832  16.957  0.00  0.00    +0.000 A 
ATOM      3  N   UNL     1       6.495   4.942  18.159  0.00  0.00    +0.000 NA
ATOM      4  N   UNL     1       7.815   4.612  18.035  0.00  0.00    +0.000 NA
ATOM      5  N   UNL     1       8.117   4.297  16.790  0.00  0.00    +0.000 NA
ATOM      6  N   UNL     1       6.998   4.550  16.063  0.00  0.00    +0.000 N 
ATOM      7  H   UNL     1       4.317   5.670  16.142  0.00  0.00    +0.000 HD
ENDROOT
BRANCH   6   8
ATOM      8  C   UNL     1       7.005   4.510  14.653  0.00  0.00    +0.000 A 
ATOM      9  C   UNL     1       7.819   5.395  13.930  0.00  0.00    +0.000 A 
ATOM     10  C   UNL     1       7.834   5.343  12.534  0.00  0.00    +0.000 A 
ATOM     11  C   UNL     1       6.995   4.455  11.856  0.00  0.00    +0.000 A 
ATOM     12  C   UNL     1       6.155   3.610  12.578  0.00  0.00    +0.000 A 
ATOM     13 CL   UNL     1       5.070   2.564  11.750  0.00  0.00    +0.000 Cl
ATOM     14  C   UNL     1       6.169   3.617  13.971  0.00  0.00    +0.000 A 
ENDBRANCH   6   8
BRANCH   1  18
ATOM     15  C   UNL     1       1.524   3.459  19.122  0.00  0.00    +0.000 A 
ATOM     16  C   UNL     1       1.966   4.781  19.176  0.00  0.00    +0.000 A 
ATOM     17  C   UNL     1       2.990   5.221  18.331  0.00  0.00    +0.000 A 
ATOM     18  C   UNL     1       3.637   4.332  17.466  0.00  0.00    +0.000 A 
ATOM     19  C   UNL     1       3.177   3.007  17.419  0.00  0.00    +0.000 A 
ATOM     20  C   UNL     1       2.137   2.571  18.243  0.00  0.00    +0.000 A 
BRANCH  15  22
ATOM     21  C   UNL     1       0.926   2.773  21.299  0.00  0.00    +0.000 C 
ATOM     22  O   UNL     1       0.514   3.140  19.987  0.00  0.00    +0.000 OA
ENDBRANCH  15  22
ENDBRANCH   1  18
TORSDOF 3
ENDMDL
MODEL 3
REMARK VINA RESULT:      -7.8      3.449      4.971
REMARK  Name = 
REMARK  4 active torsions:
REMARK  status: ('A' for Active; 'I' for Inactive)
REMARK    1  A    between atoms: C_1  and  O_2
REMARK    2  A    between atoms: O_2  and  C_3
REMARK    3  A    between atoms: C_6  and  N_7
REMARK    4  A    between atoms: N_12  and  C_13
REMARK                            x       y       z     vdW  Elec       q    Type
REMARK                         _______ _______ _______ _____ _____    ______ ____
ROOT
ATOM      1  N   UNL     1       3.190   6.391  18.715  0.00  0.00    +0.000 N 
ATOM      2  C   UNL     1       2.715   5.164  18.349  0.00  0.00    +0.000 A 
ATOM      3  N   UNL     1       1.544   4.616  18.608  0.00  0.00    +0.000 NA
ATOM      4  N   UNL     1       1.436   3.522  17.797  0.00  0.00    +0.000 NA
ATOM      5  N   UNL     1       2.506   3.378  17.038  0.00  0.00    +0.000 NA
ATOM      6  N   UNL     1       3.384   4.326  17.456  0.00  0.00    +0.000 N 
ATOM      7  H   UNL     1       3.894   6.379  19.449  0.00  0.00    +0.000 HD
ENDROOT
BRANCH   6   8
ATOM      8  C   UNL     1       4.718   4.353  16.998  0.00  0.00    +0.000 A 
ATOM      9  C   UNL     1       5.768   4.556  17.907  0.00  0.00    +0.000 A 
ATOM     10  C   UNL     1       7.089   4.570  17.452  0.00  0.00    +0.000 A 
ATOM     11  C   UNL     1       7.362   4.442  16.088  0.00  0.00    +0.000 A 
ATOM     12  C   UNL     1       6.314   4.286  15.185  0.00  0.00    +0.000 A 
ATOM     13 CL   UNL     1       6.638   4.199  13.498  0.00  0.00    +0.000 Cl
ATOM     14  C   UNL     1       4.996   4.221  15.632  0.00  0.00    +0.000 A 
ENDBRANCH   6   8
BRANCH   1  18
ATOM     15  C   UNL     1       0.718   9.768  19.402  0.00  0.00    +0.000 A 
ATOM     16  C   UNL     1       1.039   8.890  20.438  0.00  0.00    +0.000 A 
ATOM     17  C   UNL     1       1.862   7.785  20.201  0.00  0.00    +0.000 A 
ATOM     18  C   UNL     1       2.325   7.499  18.912  0.00  0.00    +0.000 A 
ATOM     19  C   UNL     1       2.001   8.396  17.882  0.00  0.00    +0.000 A 
ATOM     20  C   UNL     1       1.199   9.515  18.121  0.00  0.00    +0.000 A 
BRANCH  15  22
ATOM     21  C   UNL     1      -1.269  10.963  18.967  0.00  0.00    +0.000 C 
ATOM     22  O   UNL     1      -0.087  10.817  19.748  0.00  0.00    +0.000 OA
ENDBRANCH  15  22
ENDBRANCH   1  18
TORSDOF 3
ENDMDL
MODEL 4
REMARK VINA RESULT:      -7.6      3.476      4.983
REMARK  Name = 
REMARK  4 active torsions:
REMARK  status: ('A' for Active; 'I' for Inactive)
REMARK    1  A    between atoms: C_1  and  O_2
REMARK    2  A    between atoms: O_2  and  C_3
REMARK    3  A    between atoms: C_6  and  N_7
REMARK    4  A    between atoms: N_12  and  C_13
REMARK                            x       y       z     vdW  Elec       q    Type
REMARK                         _______ _______ _______ _____ _____    ______ ____
ROOT
ATOM      1  N   UNL     1       3.200   6.388  18.867  0.00  0.00    +0.000 N 
ATOM      2  C   UNL     1       2.685   5.192  18.457  0.00  0.00    +0.000 A 
ATOM      3  N   UNL     1       1.496   4.674  18.698  0.00  0.00    +0.000 NA
ATOM      4  N   UNL     1       1.351   3.614  17.848  0.00  0.00    +0.000 NA
ATOM      5  N   UNL     1       2.414   3.462  17.083  0.00  0.00    +0.000 NA
ATOM      6  N   UNL     1       3.324   4.365  17.533  0.00  0.00    +0.000 N 
ATOM      7  H   UNL     1       3.904   6.326  19.598  0.00  0.00    +0.000 HD
ENDROOT
BRANCH   6   8
ATOM      8  C   UNL     1       4.659   4.364  17.073  0.00  0.00    +0.000 A 
ATOM      9  C   UNL     1       5.712   4.568  17.978  0.00  0.00    +0.000 A 
ATOM     10  C   UNL     1       7.032   4.555  17.522  0.00  0.00    +0.000 A 
ATOM     11  C   UNL     1       7.302   4.398  16.160  0.00  0.00    +0.000 A 
ATOM     12  C   UNL     1       6.251   4.240  15.260  0.00  0.00    +0.000 A 
ATOM     13 CL   UNL     1       6.572   4.117  13.575  0.00  0.00    +0.000 Cl
ATOM     14  C   UNL     1       4.932   4.203  15.710  0.00  0.00    +0.000 A 
ENDBRANCH   6   8
BRANCH   1  18
ATOM     15  C   UNL     1       0.620   9.698  19.478  0.00  0.00    +0.000 A 
ATOM     16  C   UNL     1       1.177   9.442  18.225  0.00  0.00    +0.000 A 
ATOM     17  C   UNL     1       2.018   8.342  18.033  0.00  0.00    +0.000 A 
ATOM     18  C   UNL     1       2.374   7.517  19.105  0.00  0.00    +0.000 A 
ATOM     19  C   UNL     1       1.800   7.782  20.359  0.00  0.00    +0.000 A 
ATOM     20  C   UNL     1       0.938   8.865  20.547  0.00  0.00    +0.000 A 
BRANCH  15  22
ATOM     21  C   UNL     1      -0.565  11.195  20.864  0.00  0.00    +0.000 C 
ATOM     22  O   UNL     1      -0.193  10.794  19.550  0.00  0.00    +0.000 OA
ENDBRANCH  15  22
ENDBRANCH   1  18
TORSDOF 3
ENDMDL
MODEL 5
REMARK VINA RESULT:      -7.6      1.169      1.573
REMARK  Name = 
REMARK  4 active torsions:
REMARK  status: ('A' for Active; 'I' for Inactive)
REMARK    1  A    between atoms: C_1  and  O_2
REMARK    2  A    between atoms: O_2  and  C_3
REMARK    3  A    between atoms: C_6  and  N_7
REMARK    4  A    between atoms: N_12  and  C_13
REMARK                            x       y       z     vdW  Elec       q    Type
REMARK                         _______ _______ _______ _____ _____    ______ ____
ROOT
ATOM      1  N   UNL     1       4.631   5.082  16.858  0.00  0.00    +0.000 N 
ATOM      2  C   UNL     1       5.956   4.979  17.167  0.00  0.00    +0.000 A 
ATOM      3  N   UNL     1       6.544   5.067  18.344  0.00  0.00    +0.000 NA
ATOM      4  N   UNL     1       7.821   4.613  18.180  0.00  0.00    +0.000 NA
ATOM      5  N   UNL     1       8.043   4.240  16.933  0.00  0.00    +0.000 NA
ATOM      6  N   UNL     1       6.923   4.580  16.243  0.00  0.00    +0.000 N 
ATOM      7  H   UNL     1       4.363   5.946  16.393  0.00  0.00    +0.000 HD
ENDROOT
BRANCH   6   8
ATOM      8  C   UNL     1       6.870   4.504  14.835  0.00  0.00    +0.000 A 
ATOM      9  C   UNL     1       6.134   3.482  14.215  0.00  0.00    +0.000 A 
ATOM     10  C   UNL     1       6.073   3.418  12.821  0.00  0.00    +0.000 A 
ATOM     11  C   UNL     1       6.792   4.331  12.044  0.00  0.00    +0.000 A 
ATOM     12  C   UNL     1       7.557   5.315  12.665  0.00  0.00    +0.000 A 
ATOM     13 CL   UNL     1       8.498   6.397  11.717  0.00  0.00    +0.000 Cl
ATOM     14  C   UNL     1       7.585   5.420  14.054  0.00  0.00    +0.000 A 
ENDBRANCH   6   8
BRANCH   1  18
ATOM     15  C   UNL     1       1.706   3.871  19.679  0.00  0.00    +0.000 A 
ATOM     16  C   UNL     1       2.237   2.965  18.761  0.00  0.00    +0.000 A 
ATOM     17  C   UNL     1       3.208   3.374  17.842  0.00  0.00    +0.000 A 
ATOM     18  C   UNL     1       3.616   4.710  17.778  0.00  0.00    +0.000 A 
ATOM     19  C   UNL     1       3.078   5.609  18.713  0.00  0.00    +0.000 A 
ATOM     20  C   UNL     1       2.127   5.197  19.650  0.00  0.00    +0.000 A 
BRANCH  15  22
ATOM     21  C   UNL     1       1.288   2.676  21.670  0.00  0.00    +0.000 C 
ATOM     22  O   UNL     1       0.769   3.362  20.535  0.00  0.00    +0.000 OA
ENDBRANCH  15  22
ENDBRANCH   1  18
TORSDOF 3
ENDMDL
MODEL 6
REMARK VINA RESULT:      -7.5      3.984      5.522
REMARK  Name = 
REMARK  4 active torsions:
REMARK  status: ('A' for Active; 'I' for Inactive)
REMARK    1  A    between atoms: C_1  and  O_2
REMARK    2  A    between atoms: O_2  and  C_3
REMARK    3  A    between atoms: C_6  and  N_7
REMARK    4  A    between atoms: N_12  and  C_13
REMARK                            x       y       z     vdW  Elec       q    Type
REMARK                         _______ _______ _______ _____ _____    ______ ____
ROOT
ATOM      1  N   UNL     1       3.024   6.533  18.898  0.00  0.00    +0.000 N 
ATOM      2  C   UNL     1       2.578   5.323  18.451  0.00  0.00    +0.000 A 
ATOM      3  N   UNL     1       1.386   4.776  18.588  0.00  0.00    +0.000 NA
ATOM      4  N   UNL     1       1.343   3.710  17.736  0.00  0.00    +0.000 NA
ATOM      5  N   UNL     1       2.475   3.582  17.069  0.00  0.00    +0.000 NA
ATOM      6  N   UNL     1       3.318   4.509  17.593  0.00  0.00    +0.000 N 
ATOM      7  H   UNL     1       3.661   6.492  19.690  0.00  0.00    +0.000 HD
ENDROOT
BRANCH   6   8
ATOM      8  C   UNL     1       4.688   4.539  17.256  0.00  0.00    +0.000 A 
ATOM      9  C   UNL     1       5.111   4.088  15.996  0.00  0.00    +0.000 A 
ATOM     10  C   UNL     1       6.466   4.131  15.661  0.00  0.00    +0.000 A 
ATOM     11  C   UNL     1       7.407   4.566  16.598  0.00  0.00    +0.000 A 
ATOM     12  C   UNL     1       6.987   4.970  17.863  0.00  0.00    +0.000 A 
ATOM     13 CL   UNL     1       8.146   5.440  19.044  0.00  0.00    +0.000 Cl
ATOM     14  C   UNL     1       5.633   4.979  18.192  0.00  0.00    +0.000 A 
ENDBRANCH   6   8
BRANCH   1  18
ATOM     15  C   UNL     1       0.527   9.913  19.465  0.00  0.00    +0.000 A 
ATOM     16  C   UNL     1       0.832   9.060  20.525  0.00  0.00    +0.000 A 
ATOM     17  C   UNL     1       1.665   7.954  20.328  0.00  0.00    +0.000 A 
ATOM     18  C   UNL     1       2.152   7.642  19.054  0.00  0.00    +0.000 A 
ATOM     19  C   UNL     1       1.842   8.514  17.999  0.00  0.00    +0.000 A 
ATOM     20  C   UNL     1       1.032   9.634  18.198  0.00  0.00    +0.000 A 
BRANCH  15  22
ATOM     21  C   UNL     1      -0.642  11.806  18.678  0.00  0.00    +0.000 C 
ATOM     22  O   UNL     1      -0.289  10.966  19.772  0.00  0.00    +0.000 OA
ENDBRANCH  15  22
ENDBRANCH   1  18
TORSDOF 3
ENDMDL
MODEL 7
REMARK VINA RESULT:      -7.4      3.952      5.486
REMARK  Name = 
REMARK  4 active torsions:
REMARK  status: ('A' for Active; 'I' for Inactive)
REMARK    1  A    between atoms: C_1  and  O_2
REMARK    2  A    between atoms: O_2  and  C_3
REMARK    3  A    between atoms: C_6  and  N_7
REMARK    4  A    between atoms: N_12  and  C_13
REMARK                            x       y       z     vdW  Elec       q    Type
REMARK                         _______ _______ _______ _____ _____    ______ ____
ROOT
ATOM      1  N   UNL     1       3.056   6.562  18.960  0.00  0.00    +0.000 N 
ATOM      2  C   UNL     1       2.579   5.371  18.493  0.00  0.00    +0.000 A 
ATOM      3  N   UNL     1       1.375   4.849  18.627  0.00  0.00    +0.000 NA
ATOM      4  N   UNL     1       1.303   3.801  17.755  0.00  0.00    +0.000 NA
ATOM      5  N   UNL     1       2.428   3.660  17.079  0.00  0.00    +0.000 NA
ATOM      6  N   UNL     1       3.295   4.557  17.615  0.00  0.00    +0.000 N 
ATOM      7  H   UNL     1       3.697   6.492  19.746  0.00  0.00    +0.000 HD
ENDROOT
BRANCH   6   8
ATOM      8  C   UNL     1       4.663   4.563  17.269  0.00  0.00    +0.000 A 
ATOM      9  C   UNL     1       5.072   4.087  16.014  0.00  0.00    +0.000 A 
ATOM     10  C   UNL     1       6.425   4.106  15.670  0.00  0.00    +0.000 A 
ATOM     11  C   UNL     1       7.378   4.540  16.595  0.00  0.00    +0.000 A 
ATOM     12  C   UNL     1       6.971   4.969  17.856  0.00  0.00    +0.000 A 
ATOM     13 CL   UNL     1       8.144   5.438  19.023  0.00  0.00    +0.000 Cl
ATOM     14  C   UNL     1       5.620   5.002  18.193  0.00  0.00    +0.000 A 
ENDBRANCH   6   8
BRANCH   1  18
ATOM     15  C   UNL     1       0.421   9.855  19.407  0.00  0.00    +0.000 A 
ATOM     16  C   UNL     1       0.994   9.557  18.171  0.00  0.00    +0.000 A 
ATOM     17  C   UNL     1       1.854   8.462  18.034  0.00  0.00    +0.000 A 
ATOM     18  C   UNL     1       2.210   7.687  19.143  0.00  0.00    +0.000 A 
ATOM     19  C   UNL     1       1.620   7.996  20.379  0.00  0.00    +0.000 A 
ATOM     20  C   UNL     1       0.740   9.072  20.513  0.00  0.00    +0.000 A 
BRANCH  15  22
ATOM     21  C   UNL     1      -1.351  11.008  18.359  0.00  0.00    +0.000 C 
ATOM     22  O   UNL     1      -0.409  10.942  19.424  0.00  0.00    +0.000 OA
ENDBRANCH  15  22
ENDBRANCH   1  18
TORSDOF 3
ENDMDL
MODEL 8
REMARK VINA RESULT:      -7.4      1.201      1.909
REMARK  Name = 
REMARK  4 active torsions:
REMARK  status: ('A' for Active; 'I' for Inactive)
REMARK    1  A    between atoms: C_1  and  O_2
REMARK    2  A    between atoms: O_2  and  C_3
REMARK    3  A    between atoms: C_6  and  N_7
REMARK    4  A    between atoms: N_12  and  C_13
REMARK                            x       y       z     vdW  Elec       q    Type
REMARK                         _______ _______ _______ _____ _____    ______ ____
ROOT
ATOM      1  N   UNL     1       4.624   4.730  16.951  0.00  0.00    +0.000 N 
ATOM      2  C   UNL     1       5.960   4.765  17.231  0.00  0.00    +0.000 A 
ATOM      3  N   UNL     1       6.561   4.884  18.398  0.00  0.00    +0.000 NA
ATOM      4  N   UNL     1       7.877   4.579  18.194  0.00  0.00    +0.000 NA
ATOM      5  N   UNL     1       8.109   4.271  16.932  0.00  0.00    +0.000 NA
ATOM      6  N   UNL     1       6.943   4.504  16.275  0.00  0.00    +0.000 N 
ATOM      7  H   UNL     1       4.251   5.572  16.519  0.00  0.00    +0.000 HD
ENDROOT
BRANCH   6   8
ATOM      8  C   UNL     1       6.865   4.464  14.867  0.00  0.00    +0.000 A 
ATOM      9  C   UNL     1       6.092   3.478  14.234  0.00  0.00    +0.000 A 
ATOM     10  C   UNL     1       6.008   3.450  12.840  0.00  0.00    +0.000 A 
ATOM     11  C   UNL     1       6.739   4.362  12.075  0.00  0.00    +0.000 A 
ATOM     12  C   UNL     1       7.540   5.309  12.706  0.00  0.00    +0.000 A 
ATOM     13 CL   UNL     1       8.496   6.389  11.769  0.00  0.00    +0.000 Cl
ATOM     14  C   UNL     1       7.593   5.379  14.097  0.00  0.00    +0.000 A 
ENDBRANCH   6   8
BRANCH   1  18
ATOM     15  C   UNL     1       1.685   3.298  19.652  0.00  0.00    +0.000 A 
ATOM     16  C   UNL     1       2.041   4.646  19.628  0.00  0.00    +0.000 A 
ATOM     17  C   UNL     1       3.005   5.108  18.726  0.00  0.00    +0.000 A 
ATOM     18  C   UNL     1       3.679   4.220  17.880  0.00  0.00    +0.000 A 
ATOM     19  C   UNL     1       3.303   2.868  17.911  0.00  0.00    +0.000 A 
ATOM     20  C   UNL     1       2.323   2.408  18.792  0.00  0.00    +0.000 A 
BRANCH  15  22
ATOM     21  C   UNL     1       1.214   2.606  21.858  0.00  0.00    +0.000 C 
ATOM     22  O   UNL     1       0.728   2.958  20.568  0.00  0.00    +0.000 OA
ENDBRANCH  15  22
ENDBRANCH   1  18
TORSDOF 3
ENDMDL
MODEL 9
REMARK VINA RESULT:      -7.3      4.514      6.101
REMARK  Name = 
REMARK  4 active torsions:
REMARK  status: ('A' for Active; 'I' for Inactive)
REMARK    1  A    between atoms: C_1  and  O_2
REMARK    2  A    between atoms: O_2  and  C_3
REMARK    3  A    between atoms: C_6  and  N_7
REMARK    4  A    between atoms: N_12  and  C_13
REMARK                            x       y       z     vdW  Elec       q    Type
REMARK                         _______ _______ _______ _____ _____    ______ ____
ROOT
ATOM      1  N   UNL     1       2.711   6.887  20.043  0.00  0.00    +0.000 N 
ATOM      2  C   UNL     1       2.318   5.581  19.997  0.00  0.00    +0.000 A 
ATOM      3  N   UNL     1       1.271   5.009  20.558  0.00  0.00    +0.000 NA
ATOM      4  N   UNL     1       1.149   3.772  19.993  0.00  0.00    +0.000 NA
ATOM      5  N   UNL     1       2.090   3.561  19.092  0.00  0.00    +0.000 NA
ATOM      6  N   UNL     1       2.918   4.635  19.165  0.00  0.00    +0.000 N 
ATOM      7  H   UNL     1       3.523   7.073  20.627  0.00  0.00    +0.000 HD
ENDROOT
BRANCH   6   8
ATOM      8  C   UNL     1       4.149   4.670  18.477  0.00  0.00    +0.000 A 
ATOM      9  C   UNL     1       4.229   4.200  17.157  0.00  0.00    +0.000 A 
ATOM     10  C   UNL     1       5.447   4.247  16.474  0.00  0.00    +0.000 A 
ATOM     11  C   UNL     1       6.597   4.704  17.123  0.00  0.00    +0.000 A 
ATOM     12  C   UNL     1       6.522   5.127  18.448  0.00  0.00    +0.000 A 
ATOM     13 CL   UNL     1       7.946   5.623  19.273  0.00  0.00    +0.000 Cl
ATOM     14  C   UNL     1       5.303   5.131  19.123  0.00  0.00    +0.000 A 
ENDBRANCH   6   8
BRANCH   1  18
ATOM     15  C   UNL     1       0.024  10.124  20.575  0.00  0.00    +0.000 A 
ATOM     16  C   UNL     1       0.376   9.300  21.644  0.00  0.00    +0.000 A 
ATOM     17  C   UNL     1       1.270   8.241  21.458  0.00  0.00    +0.000 A 
ATOM     18  C   UNL     1       1.777   7.946  20.188  0.00  0.00    +0.000 A 
ATOM     19  C   UNL     1       1.419   8.789  19.124  0.00  0.00    +0.000 A 
ATOM     20  C   UNL     1       0.546   9.863  19.312  0.00  0.00    +0.000 A 
BRANCH  15  22
ATOM     21  C   UNL     1      -1.066  11.366  22.260  0.00  0.00    +0.000 C 
ATOM     22  O   UNL     1      -0.852  11.132  20.872  0.00  0.00    +0.000 OA
ENDBRANCH  15  22
ENDBRANCH   1  18
TORSDOF 3
ENDMDL
