MODEL 1
REMARK VINA RESULT:      -8.4      0.000      0.000
REMARK  Name = 
REMARK  5 active torsions:
REMARK  status: ('A' for Active; 'I' for Inactive)
REMARK    1  A    between atoms: N_2  and  C_4
REMARK    2  A    between atoms: C_6  and  S_7
REMARK    3  A    between atoms: S_7  and  C_10
REMARK    4  A    between atoms: C_16  and  S_17
REMARK    5  A    between atoms: S_17  and  C_18
REMARK                            x       y       z     vdW  Elec       q    Type
REMARK                         _______ _______ _______ _____ _____    ______ ____
ROOT
ATOM      1  C   UNL     1       5.038   4.915  18.774  0.00  0.00    +0.000 A 
ATOM      2  C   UNL     1       4.161   3.989  19.365  0.00  0.00    +0.000 A 
ATOM      3  C   UNL     1       2.798   4.093  19.100  0.00  0.00    +0.000 A 
ATOM      4  C   UNL     1       2.316   5.149  18.319  0.00  0.00    +0.000 A 
ATOM      5  C   UNL     1       3.215   6.053  17.722  0.00  0.00    +0.000 A 
ATOM      6  C   UNL     1       4.602   5.947  17.916  0.00  0.00    +0.000 A 
ENDROOT
BRANCH   1   8
ATOM      7  O   UNL     1       6.900   5.321  20.046  0.00  0.00    +0.000 OA
ATOM      8  N   UNL     1       6.449   4.727  19.058  0.00  0.00    +0.000 N 
ATOM      9  O   UNL     1       7.105   4.038  18.266  0.00  0.00    +0.000 OA
ENDBRANCH   1   8
BRANCH   3  10
ATOM     10  S   UNL     1       1.673   2.901  19.826  0.00  0.00    +0.000 S 
ATOM     11  O   UNL     1       0.339   3.442  19.598  0.00  0.00    +0.000 OA
ATOM     12  O   UNL     1       2.030   1.617  19.243  0.00  0.00    +0.000 OA
BRANCH  10  13
ATOM     13  C   UNL     1       2.095   2.951  21.609  0.00  0.00    +0.000 C 
ATOM     14  F   UNL     1       2.350   4.218  22.049  0.00  0.00    +0.000 F 
ATOM     15  F   UNL     1       1.091   2.472  22.399  0.00  0.00    +0.000 F 
ATOM     16  F   UNL     1       3.202   2.214  21.907  0.00  0.00    +0.000 F 
ENDBRANCH  10  13
ENDBRANCH   3  10
BRANCH   6  17
ATOM     17  S   UNL     1       5.768   6.864  16.907  0.00  0.00    +0.000 S 
BRANCH  17  18
ATOM     18  C   UNL     1       6.142   5.866  15.551  0.00  0.00    +0.000 A 
ATOM     19  N   UNL     1       7.235   5.781  14.833  0.00  0.00    +0.000 NA
ATOM     20  C   UNL     1       6.923   4.888  13.824  0.00  0.00    +0.000 A 
ATOM     21  C   UNL     1       7.700   4.425  12.750  0.00  0.00    +0.000 A 
ATOM     22  C   UNL     1       7.130   3.523  11.837  0.00  0.00    +0.000 A 
ATOM     23  C   UNL     1       5.811   3.087  11.988  0.00  0.00    +0.000 A 
ATOM     24  C   UNL     1       5.020   3.530  13.054  0.00  0.00    +0.000 A 
ATOM     25  C   UNL     1       5.614   4.427  13.948  0.00  0.00    +0.000 A 
ATOM     26  N   UNL     1       5.152   5.054  15.073  0.00  0.00    +0.000 N 
ATOM     27  H   UNL     1       4.232   4.964  15.475  0.00  0.00    +0.000 HD
ENDBRANCH  17  18
ENDBRANCH   6  17
TORSDOF 5
ENDMDL
MODEL 2
REMARK VINA RESULT:      -8.3      0.889      1.279
REMARK  Name = 
REMARK  5 active torsions:
REMARK  status: ('A' for Active; 'I' for Inactive)
REMARK    1  A    between atoms: N_2  and  C_4
REMARK    2  A    between atoms: C_6  and  S_7
REMARK    3  A    between atoms: S_7  and  C_10
REMARK    4  A    between atoms: C_16  and  S_17
REMARK    5  A    between atoms: S_17  and  C_18
REMARK                            x       y       z     vdW  Elec       q    Type
REMARK                         _______ _______ _______ _____ _____    ______ ____
ROOT
ATOM      1  C   UNL     1       5.656   4.886  18.784  0.00  0.00    +0.000 A 
ATOM      2  C   UNL     1       4.954   3.919  19.524  0.00  0.00    +0.000 A 
ATOM      3  C   UNL     1       3.586   3.774  19.312  0.00  0.00    +0.000 A 
ATOM      4  C   UNL     1       2.921   4.633  18.430  0.00  0.00    +0.000 A 
ATOM      5  C   UNL     1       3.648   5.582  17.685  0.00  0.00    +0.000 A 
ATOM      6  C   UNL     1       5.039   5.719  17.827  0.00  0.00    +0.000 A 
ENDROOT
BRANCH   1   8
ATOM      7  O   UNL     1       7.817   4.393  18.199  0.00  0.00    +0.000 OA
ATOM      8  N   UNL     1       7.086   4.959  19.024  0.00  0.00    +0.000 N 
ATOM      9  O   UNL     1       7.464   5.528  20.056  0.00  0.00    +0.000 OA
ENDBRANCH   1   8
BRANCH   3  10
ATOM     10  S   UNL     1       2.686   2.525  20.229  0.00  0.00    +0.000 S 
ATOM     11  O   UNL     1       2.005   1.722  19.221  0.00  0.00    +0.000 OA
ATOM     12  O   UNL     1       3.665   1.893  21.101  0.00  0.00    +0.000 OA
BRANCH  10  13
ATOM     13  C   UNL     1       1.478   3.502  21.201  0.00  0.00    +0.000 C 
ATOM     14  F   UNL     1       2.053   4.573  21.822  0.00  0.00    +0.000 F 
ATOM     15  F   UNL     1       0.471   4.007  20.431  0.00  0.00    +0.000 F 
ATOM     16  F   UNL     1       0.879   2.769  22.182  0.00  0.00    +0.000 F 
ENDBRANCH  10  13
ENDBRANCH   3  10
BRANCH   6  17
ATOM     17  S   UNL     1       6.016   6.669  16.660  0.00  0.00    +0.000 S 
BRANCH  17  18
ATOM     18  C   UNL     1       6.274   5.655  15.290  0.00  0.00    +0.000 A 
ATOM     19  N   UNL     1       7.322   5.524  14.513  0.00  0.00    +0.000 NA
ATOM     20  C   UNL     1       6.919   4.644  13.526  0.00  0.00    +0.000 A 
ATOM     21  C   UNL     1       7.617   4.148  12.412  0.00  0.00    +0.000 A 
ATOM     22  C   UNL     1       6.961   3.271  11.534  0.00  0.00    +0.000 A 
ATOM     23  C   UNL     1       5.636   2.890  11.757  0.00  0.00    +0.000 A 
ATOM     24  C   UNL     1       4.922   3.366  12.864  0.00  0.00    +0.000 A 
ATOM     25  C   UNL     1       5.601   4.239  13.722  0.00  0.00    +0.000 A 
ATOM     26  N   UNL     1       5.226   4.885  14.868  0.00  0.00    +0.000 N 
ATOM     27  H   UNL     1       4.326   4.833  15.319  0.00  0.00    +0.000 HD
ENDBRANCH  17  18
ENDBRANCH   6  17
TORSDOF 5
ENDMDL
MODEL 3
REMARK VINA RESULT:      -8.3      1.551      1.828
REMARK  Name = 
REMARK  5 active torsions:
REMARK  status: ('A' for Active; 'I' for Inactive)
REMARK    1  A    between atoms: N_2  and  C_4
REMARK    2  A    between atoms: C_6  and  S_7
REMARK    3  A    between atoms: S_7  and  C_10
REMARK    4  A    between atoms: C_16  and  S_17
REMARK    5  A    between atoms: S_17  and  C_18
REMARK                            x       y       z     vdW  Elec       q    Type
REMARK                         _______ _______ _______ _____ _____    ______ ____
ROOT
ATOM      1  C   UNL     1       5.516   5.189  18.867  0.00  0.00    +0.000 A 
ATOM      2  C   UNL     1       4.572   4.415  19.563  0.00  0.00    +0.000 A 
ATOM      3  C   UNL     1       3.221   4.593  19.284  0.00  0.00    +0.000 A 
ATOM      4  C   UNL     1       2.818   5.581  18.378  0.00  0.00    +0.000 A 
ATOM      5  C   UNL     1       3.782   6.332  17.678  0.00  0.00    +0.000 A 
ATOM      6  C   UNL     1       5.158   6.141  17.888  0.00  0.00    +0.000 A 
ENDROOT
BRANCH   1   8
ATOM      7  O   UNL     1       7.357   5.447  20.207  0.00  0.00    +0.000 OA
ATOM      8  N   UNL     1       6.910   4.927  19.176  0.00  0.00    +0.000 N 
ATOM      9  O   UNL     1       7.558   4.254  18.365  0.00  0.00    +0.000 OA
ENDBRANCH   1   8
BRANCH   3  10
ATOM     10  S   UNL     1       2.009   3.591  20.145  0.00  0.00    +0.000 S 
ATOM     11  O   UNL     1       2.737   2.963  21.240  0.00  0.00    +0.000 OA
ATOM     12  O   UNL     1       0.901   4.485  20.447  0.00  0.00    +0.000 OA
BRANCH  10  13
ATOM     13  C   UNL     1       1.523   2.344  18.893  0.00  0.00    +0.000 C 
ATOM     14  F   UNL     1       2.168   2.522  17.703  0.00  0.00    +0.000 F 
ATOM     15  F   UNL     1       1.803   1.069  19.288  0.00  0.00    +0.000 F 
ATOM     16  F   UNL     1       0.190   2.375  18.613  0.00  0.00    +0.000 F 
ENDBRANCH  10  13
ENDBRANCH   3  10
BRANCH   6  17
ATOM     17  S   UNL     1       6.386   6.834  16.779  0.00  0.00    +0.000 S 
BRANCH  17  18
ATOM     18  C   UNL     1       6.488   5.768  15.426  0.00  0.00    +0.000 A 
ATOM     19  N   UNL     1       7.481   5.526  14.607  0.00  0.00    +0.000 NA
ATOM     20  C   UNL     1       6.956   4.662  13.663  0.00  0.00    +0.000 A 
ATOM     21  C   UNL     1       7.553   4.080  12.533  0.00  0.00    +0.000 A 
ATOM     22  C   UNL     1       6.781   3.244  11.710  0.00  0.00    +0.000 A 
ATOM     23  C   UNL     1       5.439   2.989  12.005  0.00  0.00    +0.000 A 
ATOM     24  C   UNL     1       4.824   3.553  13.129  0.00  0.00    +0.000 A 
ATOM     25  C   UNL     1       5.618   4.381  13.931  0.00  0.00    +0.000 A 
ATOM     26  N   UNL     1       5.357   5.085  15.074  0.00  0.00    +0.000 N 
ATOM     27  H   UNL     1       4.479   5.125  15.567  0.00  0.00    +0.000 HD
ENDBRANCH  17  18
ENDBRANCH   6  17
TORSDOF 5
ENDMDL
MODEL 4
REMARK VINA RESULT:      -8.2      6.284      8.497
REMARK  Name = 
REMARK  5 active torsions:
REMARK  status: ('A' for Active; 'I' for Inactive)
REMARK    1  A    between atoms: N_2  and  C_4
REMARK    2  A    between atoms: C_6  and  S_7
REMARK    3  A    between atoms: S_7  and  C_10
REMARK    4  A    between atoms: C_16  and  S_17
REMARK    5  A    between atoms: S_17  and  C_18
REMARK                            x       y       z     vdW  Elec       q    Type
REMARK                         _______ _______ _______ _____ _____    ______ ____
ROOT
ATOM      1  C   UNL     1       1.377   8.522  20.148  0.00  0.00    +0.000 A 
ATOM      2  C   UNL     1       2.035   7.299  19.928  0.00  0.00    +0.000 A 
ATOM      3  C   UNL     1       2.659   7.083  18.703  0.00  0.00    +0.000 A 
ATOM      4  C   UNL     1       2.563   8.044  17.690  0.00  0.00    +0.000 A 
ATOM      5  C   UNL     1       1.915   9.270  17.939  0.00  0.00    +0.000 A 
ATOM      6  C   UNL     1       1.323   9.550  19.182  0.00  0.00    +0.000 A 
ENDROOT
BRANCH   1   8
ATOM      7  O   UNL     1       1.539   9.056  22.370  0.00  0.00    +0.000 OA
ATOM      8  N   UNL     1       0.781   8.699  21.459  0.00  0.00    +0.000 N 
ATOM      9  O   UNL     1      -0.421   8.428  21.581  0.00  0.00    +0.000 OA
ENDBRANCH   1   8
BRANCH   3  10
ATOM     10  S   UNL     1       3.525   5.539  18.423  0.00  0.00    +0.000 S 
ATOM     11  O   UNL     1       4.306   5.750  17.211  0.00  0.00    +0.000 OA
ATOM     12  O   UNL     1       4.212   5.240  19.670  0.00  0.00    +0.000 OA
BRANCH  10  13
ATOM     13  C   UNL     1       2.170   4.343  18.118  0.00  0.00    +0.000 C 
ATOM     14  F   UNL     1       1.570   3.930  19.273  0.00  0.00    +0.000 F 
ATOM     15  F   UNL     1       1.177   4.863  17.341  0.00  0.00    +0.000 F 
ATOM     16  F   UNL     1       2.599   3.214  17.486  0.00  0.00    +0.000 F 
ENDBRANCH  10  13
ENDBRANCH   3  10
BRANCH   6  17
ATOM     17  S   UNL     1       0.801  11.208  19.625  0.00  0.00    +0.000 S 
BRANCH  17  18
ATOM     18  C   UNL     1      -0.795  11.407  19.003  0.00  0.00    +0.000 A 
ATOM     19  N   UNL     1      -1.907  11.746  19.607  0.00  0.00    +0.000 NA
ATOM     20  C   UNL     1      -2.881  11.648  18.630  0.00  0.00    +0.000 A 
ATOM     21  C   UNL     1      -4.265  11.873  18.703  0.00  0.00    +0.000 A 
ATOM     22  C   UNL     1      -5.048  11.676  17.554  0.00  0.00    +0.000 A 
ATOM     23  C   UNL     1      -4.467  11.264  16.353  0.00  0.00    +0.000 A 
ATOM     24  C   UNL     1      -3.089  11.040  16.254  0.00  0.00    +0.000 A 
ATOM     25  C   UNL     1      -2.334  11.244  17.415  0.00  0.00    +0.000 A 
ATOM     26  N   UNL     1      -0.998  11.121  17.682  0.00  0.00    +0.000 N 
ATOM     27  H   UNL     1      -0.280  10.840  17.033  0.00  0.00    +0.000 HD
ENDBRANCH  17  18
ENDBRANCH   6  17
TORSDOF 5
ENDMDL
MODEL 5
REMARK VINA RESULT:      -8.2      6.156      8.300
REMARK  Name = 
REMARK  5 active torsions:
REMARK  status: ('A' for Active; 'I' for Inactive)
REMARK    1  A    between atoms: N_2  and  C_4
REMARK    2  A    between atoms: C_6  and  S_7
REMARK    3  A    between atoms: S_7  and  C_10
REMARK    4  A    between atoms: C_16  and  S_17
REMARK    5  A    between atoms: S_17  and  C_18
REMARK                            x       y       z     vdW  Elec       q    Type
REMARK                         _______ _______ _______ _____ _____    ______ ____
ROOT
ATOM      1  C   UNL     1       1.318   8.419  20.553  0.00  0.00    +0.000 A 
ATOM      2  C   UNL     1       1.908   7.143  20.568  0.00  0.00    +0.000 A 
ATOM      3  C   UNL     1       2.583   6.703  19.433  0.00  0.00    +0.000 A 
ATOM      4  C   UNL     1       2.602   7.494  18.279  0.00  0.00    +0.000 A 
ATOM      5  C   UNL     1       2.019   8.777  18.293  0.00  0.00    +0.000 A 
ATOM      6  C   UNL     1       1.380   9.282  19.438  0.00  0.00    +0.000 A 
ENDROOT
BRANCH   1   8
ATOM      7  O   UNL     1       1.383   9.356  22.643  0.00  0.00    +0.000 OA
ATOM      8  N   UNL     1       0.664   8.833  21.780  0.00  0.00    +0.000 N 
ATOM      9  O   UNL     1      -0.543   8.585  21.897  0.00  0.00    +0.000 OA
ENDBRANCH   1   8
BRANCH   3  10
ATOM     10  S   UNL     1       3.364   5.089  19.450  0.00  0.00    +0.000 S 
ATOM     11  O   UNL     1       4.797   5.354  19.421  0.00  0.00    +0.000 OA
ATOM     12  O   UNL     1       2.794   4.388  20.590  0.00  0.00    +0.000 OA
BRANCH  10  13
ATOM     13  C   UNL     1       2.814   4.335  17.873  0.00  0.00    +0.000 C 
ATOM     14  F   UNL     1       3.605   4.692  16.820  0.00  0.00    +0.000 F 
ATOM     15  F   UNL     1       2.828   2.972  17.912  0.00  0.00    +0.000 F 
ATOM     16  F   UNL     1       1.543   4.696  17.535  0.00  0.00    +0.000 F 
ENDBRANCH  10  13
ENDBRANCH   3  10
BRANCH   6  17
ATOM     17  S   UNL     1       0.940  11.015  19.584  0.00  0.00    +0.000 S 
BRANCH  17  18
ATOM     18  C   UNL     1      -0.610  11.195  18.852  0.00  0.00    +0.000 A 
ATOM     19  N   UNL     1      -1.742  11.629  19.350  0.00  0.00    +0.000 NA
ATOM     20  C   UNL     1      -2.663  11.458  18.333  0.00  0.00    +0.000 A 
ATOM     21  C   UNL     1      -4.040  11.730  18.301  0.00  0.00    +0.000 A 
ATOM     22  C   UNL     1      -4.764  11.437  17.134  0.00  0.00    +0.000 A 
ATOM     23  C   UNL     1      -4.132  10.885  16.017  0.00  0.00    +0.000 A 
ATOM     24  C   UNL     1      -2.759  10.610  16.024  0.00  0.00    +0.000 A 
ATOM     25  C   UNL     1      -2.064  10.912  17.200  0.00  0.00    +0.000 A 
ATOM     26  N   UNL     1      -0.750  10.778  17.558  0.00  0.00    +0.000 N 
ATOM     27  H   UNL     1      -0.007  10.410  16.984  0.00  0.00    +0.000 HD
ENDBRANCH  17  18
ENDBRANCH   6  17
TORSDOF 5
ENDMDL
MODEL 6
REMARK VINA RESULT:      -8.0      6.077      8.230
REMARK  Name = 
REMARK  5 active torsions:
REMARK  status: ('A' for Active; 'I' for Inactive)
REMARK    1  A    between atoms: N_2  and  C_4
REMARK    2  A    between atoms: C_6  and  S_7
REMARK    3  A    between atoms: S_7  and  C_10
REMARK    4  A    between atoms: C_16  and  S_17
REMARK    5  A    between atoms: S_17  and  C_18
REMARK                            x       y       z     vdW  Elec       q    Type
REMARK                         _______ _______ _______ _____ _____    ______ ____
ROOT
ATOM      1  C   UNL     1       1.349   8.454  20.435  0.00  0.00    +0.000 A 
ATOM      2  C   UNL     1       1.930   7.174  20.390  0.00  0.00    +0.000 A 
ATOM      3  C   UNL     1       2.495   6.736  19.196  0.00  0.00    +0.000 A 
ATOM      4  C   UNL     1       2.414   7.534  18.050  0.00  0.00    +0.000 A 
ATOM      5  C   UNL     1       1.845   8.820  18.123  0.00  0.00    +0.000 A 
ATOM      6  C   UNL     1       1.316   9.323  19.324  0.00  0.00    +0.000 A 
ENDROOT
BRANCH   1   8
ATOM      7  O   UNL     1      -0.405   8.714  21.888  0.00  0.00    +0.000 OA
ATOM      8  N   UNL     1       0.813   8.866  21.720  0.00  0.00    +0.000 N 
ATOM      9  O   UNL     1       1.596   9.386  22.525  0.00  0.00    +0.000 OA
ENDBRANCH   1   8
BRANCH   3  10
ATOM     10  S   UNL     1       3.263   5.118  19.134  0.00  0.00    +0.000 S 
ATOM     11  O   UNL     1       3.106   4.669  17.757  0.00  0.00    +0.000 OA
ATOM     12  O   UNL     1       4.601   5.296  19.677  0.00  0.00    +0.000 OA
BRANCH  10  13
ATOM     13  C   UNL     1       2.226   4.113  20.263  0.00  0.00    +0.000 C 
ATOM     14  F   UNL     1       0.891   4.295  20.045  0.00  0.00    +0.000 F 
ATOM     15  F   UNL     1       2.452   2.775  20.131  0.00  0.00    +0.000 F 
ATOM     16  F   UNL     1       2.442   4.410  21.576  0.00  0.00    +0.000 F 
ENDBRANCH  10  13
ENDBRANCH   3  10
BRANCH   6  17
ATOM     17  S   UNL     1       0.904  11.058  19.519  0.00  0.00    +0.000 S 
BRANCH  17  18
ATOM     18  C   UNL     1      -0.683  11.264  18.876  0.00  0.00    +0.000 A 
ATOM     19  N   UNL     1      -1.805  11.596  19.467  0.00  0.00    +0.000 NA
ATOM     20  C   UNL     1      -2.764  11.509  18.475  0.00  0.00    +0.000 A 
ATOM     21  C   UNL     1      -4.149  11.733  18.531  0.00  0.00    +0.000 A 
ATOM     22  C   UNL     1      -4.915  11.550  17.368  0.00  0.00    +0.000 A 
ATOM     23  C   UNL     1      -4.316  11.153  16.170  0.00  0.00    +0.000 A 
ATOM     24  C   UNL     1      -2.936  10.930  16.089  0.00  0.00    +0.000 A 
ATOM     25  C   UNL     1      -2.199  11.120  17.263  0.00  0.00    +0.000 A 
ATOM     26  N   UNL     1      -0.867  10.994  17.549  0.00  0.00    +0.000 N 
ATOM     27  H   UNL     1      -0.139  10.722  16.906  0.00  0.00    +0.000 HD
ENDBRANCH  17  18
ENDBRANCH   6  17
TORSDOF 5
ENDMDL
MODEL 7
REMARK VINA RESULT:      -7.9      6.639      8.973
REMARK  Name = 
REMARK  5 active torsions:
REMARK  status: ('A' for Active; 'I' for Inactive)
REMARK    1  A    between atoms: N_2  and  C_4
REMARK    2  A    between atoms: C_6  and  S_7
REMARK    3  A    between atoms: S_7  and  C_10
REMARK    4  A    between atoms: C_16  and  S_17
REMARK    5  A    between atoms: S_17  and  C_18
REMARK                            x       y       z     vdW  Elec       q    Type
REMARK                         _______ _______ _______ _____ _____    ______ ____
ROOT
ATOM      1  C   UNL     1       1.283   8.676  20.198  0.00  0.00    +0.000 A 
ATOM      2  C   UNL     1       2.018   7.499  19.970  0.00  0.00    +0.000 A 
ATOM      3  C   UNL     1       2.578   7.290  18.714  0.00  0.00    +0.000 A 
ATOM      4  C   UNL     1       2.344   8.206  17.682  0.00  0.00    +0.000 A 
ATOM      5  C   UNL     1       1.621   9.387  17.938  0.00  0.00    +0.000 A 
ATOM      6  C   UNL     1       1.089   9.664  19.209  0.00  0.00    +0.000 A 
ENDROOT
BRANCH   1   8
ATOM      7  O   UNL     1      -0.420   8.523  21.723  0.00  0.00    +0.000 OA
ATOM      8  N   UNL     1       0.759   8.852  21.539  0.00  0.00    +0.000 N 
ATOM      9  O   UNL     1       1.507   9.366  22.382  0.00  0.00    +0.000 OA
ENDBRANCH   1   8
BRANCH   3  10
ATOM     10  S   UNL     1       3.540   5.806  18.421  0.00  0.00    +0.000 S 
ATOM     11  O   UNL     1       4.365   6.105  17.257  0.00  0.00    +0.000 OA
ATOM     12  O   UNL     1       4.183   5.497  19.689  0.00  0.00    +0.000 OA
BRANCH  10  13
ATOM     13  C   UNL     1       2.269   4.552  18.008  0.00  0.00    +0.000 C 
ATOM     14  F   UNL     1       2.741   3.591  17.161  0.00  0.00    +0.000 F 
ATOM     15  F   UNL     1       1.807   3.892  19.109  0.00  0.00    +0.000 F 
ATOM     16  F   UNL     1       1.176   5.094  17.400  0.00  0.00    +0.000 F 
ENDBRANCH  10  13
ENDBRANCH   3  10
BRANCH   6  17
ATOM     17  S   UNL     1       0.471  11.293  19.637  0.00  0.00    +0.000 S 
BRANCH  17  18
ATOM     18  C   UNL     1      -1.146  11.380  19.043  0.00  0.00    +0.000 A 
ATOM     19  N   UNL     1      -1.638  11.079  17.866  0.00  0.00    +0.000 NA
ATOM     20  C   UNL     1      -2.969  11.443  17.938  0.00  0.00    +0.000 A 
ATOM     21  C   UNL     1      -3.984  11.370  16.970  0.00  0.00    +0.000 A 
ATOM     22  C   UNL     1      -5.269  11.836  17.294  0.00  0.00    +0.000 A 
ATOM     23  C   UNL     1      -5.542  12.364  18.558  0.00  0.00    +0.000 A 
ATOM     24  C   UNL     1      -4.549  12.441  19.541  0.00  0.00    +0.000 A 
ATOM     25  C   UNL     1      -3.279  11.969  19.190  0.00  0.00    +0.000 A 
ATOM     26  N   UNL     1      -2.098  11.894  19.878  0.00  0.00    +0.000 N 
ATOM     27  H   UNL     1      -1.938  12.190  20.828  0.00  0.00    +0.000 HD
ENDBRANCH  17  18
ENDBRANCH   6  17
TORSDOF 5
ENDMDL
MODEL 8
REMARK VINA RESULT:      -7.9      6.628      8.946
REMARK  Name = 
REMARK  5 active torsions:
REMARK  status: ('A' for Active; 'I' for Inactive)
REMARK    1  A    between atoms: N_2  and  C_4
REMARK    2  A    between atoms: C_6  and  S_7
REMARK    3  A    between atoms: S_7  and  C_10
REMARK    4  A    between atoms: C_16  and  S_17
REMARK    5  A    between atoms: S_17  and  C_18
REMARK                            x       y       z     vdW  Elec       q    Type
REMARK                         _______ _______ _______ _____ _____    ______ ____
ROOT
ATOM      1  C   UNL     1       1.289   8.693  20.226  0.00  0.00    +0.000 A 
ATOM      2  C   UNL     1       1.991   7.492  20.021  0.00  0.00    +0.000 A 
ATOM      3  C   UNL     1       2.535   7.238  18.765  0.00  0.00    +0.000 A 
ATOM      4  C   UNL     1       2.316   8.136  17.714  0.00  0.00    +0.000 A 
ATOM      5  C   UNL     1       1.626   9.342  17.947  0.00  0.00    +0.000 A 
ATOM      6  C   UNL     1       1.113   9.662  19.215  0.00  0.00    +0.000 A 
ENDROOT
BRANCH   1   8
ATOM      7  O   UNL     1       1.582   9.365  22.397  0.00  0.00    +0.000 OA
ATOM      8  N   UNL     1       0.781   8.914  21.567  0.00  0.00    +0.000 N 
ATOM      9  O   UNL     1      -0.390   8.585  21.796  0.00  0.00    +0.000 OA
ENDBRANCH   1   8
BRANCH   3  10
ATOM     10  S   UNL     1       3.456   5.723  18.500  0.00  0.00    +0.000 S 
ATOM     11  O   UNL     1       4.172   5.922  17.246  0.00  0.00    +0.000 OA
ATOM     12  O   UNL     1       4.210   5.502  19.724  0.00  0.00    +0.000 OA
BRANCH  10  13
ATOM     13  C   UNL     1       2.143   4.459  18.301  0.00  0.00    +0.000 C 
ATOM     14  F   UNL     1       1.441   4.252  19.453  0.00  0.00    +0.000 F 
ATOM     15  F   UNL     1       1.224   4.803  17.354  0.00  0.00    +0.000 F 
ATOM     16  F   UNL     1       2.638   3.244  17.932  0.00  0.00    +0.000 F 
ENDBRANCH  10  13
ENDBRANCH   3  10
BRANCH   6  17
ATOM     17  S   UNL     1       0.540  11.315  19.610  0.00  0.00    +0.000 S 
BRANCH  17  18
ATOM     18  C   UNL     1      -1.097  11.413  19.076  0.00  0.00    +0.000 A 
ATOM     19  N   UNL     1      -1.636  11.100  17.924  0.00  0.00    +0.000 NA
ATOM     20  C   UNL     1      -2.960  11.481  18.040  0.00  0.00    +0.000 A 
ATOM     21  C   UNL     1      -4.011  11.405  17.113  0.00  0.00    +0.000 A 
ATOM     22  C   UNL     1      -5.278  11.891  17.477  0.00  0.00    +0.000 A 
ATOM     23  C   UNL     1      -5.496  12.443  18.742  0.00  0.00    +0.000 A 
ATOM     24  C   UNL     1      -4.466  12.523  19.686  0.00  0.00    +0.000 A 
ATOM     25  C   UNL     1      -3.215  12.031  19.294  0.00  0.00    +0.000 A 
ATOM     26  N   UNL     1      -2.010  11.952  19.938  0.00  0.00    +0.000 N 
ATOM     27  H   UNL     1      -1.810  12.261  20.877  0.00  0.00    +0.000 HD
ENDBRANCH  17  18
ENDBRANCH   6  17
TORSDOF 5
ENDMDL
MODEL 9
REMARK VINA RESULT:      -7.8      6.348      8.668
REMARK  Name = 
REMARK  5 active torsions:
REMARK  status: ('A' for Active; 'I' for Inactive)
REMARK    1  A    between atoms: N_2  and  C_4
REMARK    2  A    between atoms: C_6  and  S_7
REMARK    3  A    between atoms: S_7  and  C_10
REMARK    4  A    between atoms: C_16  and  S_17
REMARK    5  A    between atoms: S_17  and  C_18
REMARK                            x       y       z     vdW  Elec       q    Type
REMARK                         _______ _______ _______ _____ _____    ______ ____
ROOT
ATOM      1  C   UNL     1       1.365   8.423  20.333  0.00  0.00    +0.000 A 
ATOM      2  C   UNL     1       1.998   7.170  20.410  0.00  0.00    +0.000 A 
ATOM      3  C   UNL     1       2.660   6.683  19.287  0.00  0.00    +0.000 A 
ATOM      4  C   UNL     1       2.624   7.402  18.087  0.00  0.00    +0.000 A 
ATOM      5  C   UNL     1       1.999   8.663  18.039  0.00  0.00    +0.000 A 
ATOM      6  C   UNL     1       1.372   9.217  19.167  0.00  0.00    +0.000 A 
ENDROOT
BRANCH   1   8
ATOM      7  O   UNL     1      -0.483   8.663  21.667  0.00  0.00    +0.000 OA
ATOM      8  N   UNL     1       0.728   8.892  21.550  0.00  0.00    +0.000 N 
ATOM      9  O   UNL     1       1.424   9.530  22.351  0.00  0.00    +0.000 OA
ENDBRANCH   1   8
BRANCH   3  10
ATOM     10  S   UNL     1       3.495   5.099  19.382  0.00  0.00    +0.000 S 
ATOM     11  O   UNL     1       4.918   5.412  19.355  0.00  0.00    +0.000 OA
ATOM     12  O   UNL     1       2.935   4.428  20.545  0.00  0.00    +0.000 OA
BRANCH  10  13
ATOM     13  C   UNL     1       2.987   4.259  17.834  0.00  0.00    +0.000 C 
ATOM     14  F   UNL     1       3.082   2.901  17.923  0.00  0.00    +0.000 F 
ATOM     15  F   UNL     1       1.694   4.527  17.492  0.00  0.00    +0.000 F 
ATOM     16  F   UNL     1       3.750   4.626  16.765  0.00  0.00    +0.000 F 
ENDBRANCH  10  13
ENDBRANCH   3  10
BRANCH   6  17
ATOM     17  S   UNL     1       0.878  10.941  19.219  0.00  0.00    +0.000 S 
BRANCH  17  18
ATOM     18  C   UNL     1      -0.793  10.990  18.793  0.00  0.00    +0.000 A 
ATOM     19  N   UNL     1      -1.429  10.452  17.782  0.00  0.00    +0.000 NA
ATOM     20  C   UNL     1      -2.729  10.908  17.902  0.00  0.00    +0.000 A 
ATOM     21  C   UNL     1      -3.852  10.674  17.092  0.00  0.00    +0.000 A 
ATOM     22  C   UNL     1      -5.071  11.286  17.425  0.00  0.00    +0.000 A 
ATOM     23  C   UNL     1      -5.175  12.115  18.544  0.00  0.00    +0.000 A 
ATOM     24  C   UNL     1      -4.071  12.359  19.370  0.00  0.00    +0.000 A 
ATOM     25  C   UNL     1      -2.869  11.736  19.014  0.00  0.00    +0.000 A 
ATOM     26  N   UNL     1      -1.621  11.749  19.572  0.00  0.00    +0.000 N 
ATOM     27  H   UNL     1      -1.339  12.250  20.400  0.00  0.00    +0.000 HD
ENDBRANCH  17  18
ENDBRANCH   6  17
TORSDOF 5
ENDMDL
