MODEL 1
REMARK VINA RESULT:      -8.8      0.000      0.000
REMARK  Name = 
REMARK  4 active torsions:
REMARK  status: ('A' for Active; 'I' for Inactive)
REMARK    1  A    between atoms: C_1  and  N_2
REMARK    2  A    between atoms: N_2  and  C_3
REMARK    3  A    between atoms: N_2  and  C_15
REMARK    4  A    between atoms: C_3  and  C_4
REMARK                            x       y       z     vdW  Elec       q    Type
REMARK                         _______ _______ _______ _____ _____    ______ ____
ROOT
ATOM      1  C   UNL     1       6.102   4.638  16.839  0.00  0.00    +0.000 A 
ATOM      2  C   UNL     1       5.696   3.843  15.760  0.00  0.00    +0.000 A 
ATOM      3  C   UNL     1       6.212   4.048  14.478  0.00  0.00    +0.000 A 
ATOM      4  C   UNL     1       5.772   3.280  13.387  0.00  0.00    +0.000 A 
ATOM      5  C   UNL     1       6.291   3.503  12.117  0.00  0.00    +0.000 A 
ATOM      6  C   UNL     1       7.256   4.491  11.937  0.00  0.00    +0.000 A 
ATOM      7  C   UNL     1       7.689   5.251  13.027  0.00  0.00    +0.000 A 
ATOM      8  C   UNL     1       7.179   5.054  14.303  0.00  0.00    +0.000 A 
ATOM      9  N   UNL     1       7.604   5.817  15.326  0.00  0.00    +0.000 NA
ATOM     10  C   UNL     1       7.062   5.600  16.547  0.00  0.00    +0.000 A 
ATOM     11 CL   UNL     1       7.686   6.677  17.739  0.00  0.00    +0.000 Cl
ENDROOT
BRANCH   1  12
ATOM     12  C   UNL     1       5.542   4.473  18.234  0.00  0.00    +0.000 C 
BRANCH  12  14
ATOM     13  C   UNL     1       3.602   5.872  17.499  0.00  0.00    +0.000 C 
ATOM     14  N   UNL     1       4.106   4.791  18.345  0.00  0.00    +0.000 N 
BRANCH  14  15
ATOM     15  C   UNL     1       3.290   4.244  19.335  0.00  0.00    +0.000 A 
ATOM     16  C   UNL     1       3.664   3.086  20.046  0.00  0.00    +0.000 A 
ATOM     17  C   UNL     1       2.832   2.492  21.001  0.00  0.00    +0.000 A 
ATOM     18  C   UNL     1       1.603   3.062  21.281  0.00  0.00    +0.000 A 
ATOM     19  F   UNL     1       0.800   2.498  22.193  0.00  0.00    +0.000 F 
ATOM     20  C   UNL     1       1.198   4.211  20.625  0.00  0.00    +0.000 A 
ATOM     21  C   UNL     1       2.035   4.792  19.664  0.00  0.00    +0.000 A 
ENDBRANCH  14  15
ENDBRANCH  12  14
ENDBRANCH   1  12
TORSDOF 3
ENDMDL
MODEL 2
REMARK VINA RESULT:      -8.8      0.338      1.097
REMARK  Name = 
REMARK  4 active torsions:
REMARK  status: ('A' for Active; 'I' for Inactive)
REMARK    1  A    between atoms: C_1  and  N_2
REMARK    2  A    between atoms: N_2  and  C_3
REMARK    3  A    between atoms: N_2  and  C_15
REMARK    4  A    between atoms: C_3  and  C_4
REMARK                            x       y       z     vdW  Elec       q    Type
REMARK                         _______ _______ _______ _____ _____    ______ ____
ROOT
ATOM      1  C   UNL     1       6.011   4.947  17.044  0.00  0.00    +0.000 A 
ATOM      2  C   UNL     1       5.487   4.118  16.044  0.00  0.00    +0.000 A 
ATOM      3  C   UNL     1       5.991   4.150  14.743  0.00  0.00    +0.000 A 
ATOM      4  C   UNL     1       5.435   3.350  13.729  0.00  0.00    +0.000 A 
ATOM      5  C   UNL     1       5.946   3.400  12.437  0.00  0.00    +0.000 A 
ATOM      6  C   UNL     1       7.016   4.245  12.157  0.00  0.00    +0.000 A 
ATOM      7  C   UNL     1       7.564   5.038  13.170  0.00  0.00    +0.000 A 
ATOM      8  C   UNL     1       7.066   5.013  14.466  0.00  0.00    +0.000 A 
ATOM      9  N   UNL     1       7.605   5.803  15.412  0.00  0.00    +0.000 NA
ATOM     10  C   UNL     1       7.071   5.758  16.655  0.00  0.00    +0.000 A 
ATOM     11 CL   UNL     1       7.848   6.850  17.739  0.00  0.00    +0.000 Cl
ENDROOT
BRANCH   1  12
ATOM     12  C   UNL     1       5.470   4.970  18.456  0.00  0.00    +0.000 C 
BRANCH  12  14
ATOM     13  C   UNL     1       3.482   6.353  17.827  0.00  0.00    +0.000 C 
ATOM     14  N   UNL     1       4.014   5.191  18.537  0.00  0.00    +0.000 N 
BRANCH  14  15
ATOM     15  C   UNL     1       3.192   4.463  19.397  0.00  0.00    +0.000 A 
ATOM     16  C   UNL     1       1.877   4.877  19.690  0.00  0.00    +0.000 A 
ATOM     17  C   UNL     1       1.060   4.191  20.595  0.00  0.00    +0.000 A 
ATOM     18  C   UNL     1       1.540   3.052  21.217  0.00  0.00    +0.000 A 
ATOM     19  F   UNL     1       0.764   2.390  22.086  0.00  0.00    +0.000 F 
ATOM     20  C   UNL     1       2.817   2.593  20.948  0.00  0.00    +0.000 A 
ATOM     21  C   UNL     1       3.631   3.293  20.047  0.00  0.00    +0.000 A 
ENDBRANCH  14  15
ENDBRANCH  12  14
ENDBRANCH   1  12
TORSDOF 3
ENDMDL
MODEL 3
REMARK VINA RESULT:      -8.5      1.238      1.429
REMARK  Name = 
REMARK  4 active torsions:
REMARK  status: ('A' for Active; 'I' for Inactive)
REMARK    1  A    between atoms: C_1  and  N_2
REMARK    2  A    between atoms: N_2  and  C_3
REMARK    3  A    between atoms: N_2  and  C_15
REMARK    4  A    between atoms: C_3  and  C_4
REMARK                            x       y       z     vdW  Elec       q    Type
REMARK                         _______ _______ _______ _____ _____    ______ ____
ROOT
ATOM      1  C   UNL     1       5.769   5.493  16.876  0.00  0.00    +0.000 A 
ATOM      2  C   UNL     1       5.196   4.655  15.912  0.00  0.00    +0.000 A 
ATOM      3  C   UNL     1       5.807   4.455  14.673  0.00  0.00    +0.000 A 
ATOM      4  C   UNL     1       5.208   3.649  13.689  0.00  0.00    +0.000 A 
ATOM      5  C   UNL     1       5.829   3.467  12.458  0.00  0.00    +0.000 A 
ATOM      6  C   UNL     1       7.051   4.085  12.211  0.00  0.00    +0.000 A 
ATOM      7  C   UNL     1       7.641   4.886  13.194  0.00  0.00    +0.000 A 
ATOM      8  C   UNL     1       7.037   5.090  14.427  0.00  0.00    +0.000 A 
ATOM      9  N   UNL     1       7.624   5.882  15.343  0.00  0.00    +0.000 NA
ATOM     10  C   UNL     1       6.985   6.067  16.523  0.00  0.00    +0.000 A 
ATOM     11 CL   UNL     1       7.847   7.130  17.572  0.00  0.00    +0.000 Cl
ENDROOT
BRANCH   1  12
ATOM     12  C   UNL     1       5.122   5.765  18.215  0.00  0.00    +0.000 C 
BRANCH  12  14
ATOM     13  C   UNL     1       3.300   7.405  17.714  0.00  0.00    +0.000 C 
ATOM     14  N   UNL     1       3.679   6.057  18.135  0.00  0.00    +0.000 N 
BRANCH  14  15
ATOM     15  C   UNL     1       2.708   5.180  18.619  0.00  0.00    +0.000 A 
ATOM     16  C   UNL     1       2.256   5.237  19.952  0.00  0.00    +0.000 A 
ATOM     17  C   UNL     1       1.327   4.328  20.468  0.00  0.00    +0.000 A 
ATOM     18  C   UNL     1       0.807   3.345  19.645  0.00  0.00    +0.000 A 
ATOM     19  F   UNL     1      -0.083   2.470  20.131  0.00  0.00    +0.000 F 
ATOM     20  C   UNL     1       1.203   3.259  18.322  0.00  0.00    +0.000 A 
ATOM     21  C   UNL     1       2.142   4.168  17.818  0.00  0.00    +0.000 A 
ENDBRANCH  14  15
ENDBRANCH  12  14
ENDBRANCH   1  12
TORSDOF 3
ENDMDL
MODEL 4
REMARK VINA RESULT:      -8.4      1.216      1.356
REMARK  Name = 
REMARK  4 active torsions:
REMARK  status: ('A' for Active; 'I' for Inactive)
REMARK    1  A    between atoms: C_1  and  N_2
REMARK    2  A    between atoms: N_2  and  C_3
REMARK    3  A    between atoms: N_2  and  C_15
REMARK    4  A    between atoms: C_3  and  C_4
REMARK                            x       y       z     vdW  Elec       q    Type
REMARK                         _______ _______ _______ _____ _____    ______ ____
ROOT
ATOM      1  C   UNL     1       5.781   5.496  16.905  0.00  0.00    +0.000 A 
ATOM      2  C   UNL     1       5.207   4.655  15.945  0.00  0.00    +0.000 A 
ATOM      3  C   UNL     1       5.812   4.459  14.702  0.00  0.00    +0.000 A 
ATOM      4  C   UNL     1       5.212   3.649  13.722  0.00  0.00    +0.000 A 
ATOM      5  C   UNL     1       5.827   3.471  12.488  0.00  0.00    +0.000 A 
ATOM      6  C   UNL     1       7.043   4.098  12.233  0.00  0.00    +0.000 A 
ATOM      7  C   UNL     1       7.633   4.902  13.212  0.00  0.00    +0.000 A 
ATOM      8  C   UNL     1       7.036   5.103  14.449  0.00  0.00    +0.000 A 
ATOM      9  N   UNL     1       7.623   5.899  15.361  0.00  0.00    +0.000 NA
ATOM     10  C   UNL     1       6.990   6.079  16.545  0.00  0.00    +0.000 A 
ATOM     11 CL   UNL     1       7.851   7.148  17.588  0.00  0.00    +0.000 Cl
ENDROOT
BRANCH   1  12
ATOM     12  C   UNL     1       5.140   5.765  18.249  0.00  0.00    +0.000 C 
BRANCH  12  14
ATOM     13  C   UNL     1       3.254   7.336  17.765  0.00  0.00    +0.000 C 
ATOM     14  N   UNL     1       3.686   6.003  18.183  0.00  0.00    +0.000 N 
BRANCH  14  15
ATOM     15  C   UNL     1       2.753   5.091  18.676  0.00  0.00    +0.000 A 
ATOM     16  C   UNL     1       2.204   4.081  17.862  0.00  0.00    +0.000 A 
ATOM     17  C   UNL     1       1.224   3.196  18.324  0.00  0.00    +0.000 A 
ATOM     18  C   UNL     1       0.784   3.291  19.633  0.00  0.00    +0.000 A 
ATOM     19  F   UNL     1      -0.155   2.449  20.083  0.00  0.00    +0.000 F 
ATOM     20  C   UNL     1       1.307   4.254  20.478  0.00  0.00    +0.000 A 
ATOM     21  C   UNL     1       2.280   5.141  20.002  0.00  0.00    +0.000 A 
ENDBRANCH  14  15
ENDBRANCH  12  14
ENDBRANCH   1  12
TORSDOF 3
ENDMDL
MODEL 5
REMARK VINA RESULT:      -8.4      1.454      1.636
REMARK  Name = 
REMARK  4 active torsions:
REMARK  status: ('A' for Active; 'I' for Inactive)
REMARK    1  A    between atoms: C_1  and  N_2
REMARK    2  A    between atoms: N_2  and  C_3
REMARK    3  A    between atoms: N_2  and  C_15
REMARK    4  A    between atoms: C_3  and  C_4
REMARK                            x       y       z     vdW  Elec       q    Type
REMARK                         _______ _______ _______ _____ _____    ______ ____
ROOT
ATOM      1  C   UNL     1       5.483   5.699  16.367  0.00  0.00    +0.000 A 
ATOM      2  C   UNL     1       4.918   4.873  15.389  0.00  0.00    +0.000 A 
ATOM      3  C   UNL     1       5.644   4.492  14.258  0.00  0.00    +0.000 A 
ATOM      4  C   UNL     1       5.061   3.699  13.255  0.00  0.00    +0.000 A 
ATOM      5  C   UNL     1       5.797   3.336  12.132  0.00  0.00    +0.000 A 
ATOM      6  C   UNL     1       7.117   3.761  12.013  0.00  0.00    +0.000 A 
ATOM      7  C   UNL     1       7.690   4.551  13.015  0.00  0.00    +0.000 A 
ATOM      8  C   UNL     1       6.973   4.933  14.141  0.00  0.00    +0.000 A 
ATOM      9  N   UNL     1       7.550   5.710  15.077  0.00  0.00    +0.000 NA
ATOM     10  C   UNL     1       6.803   6.074  16.146  0.00  0.00    +0.000 A 
ATOM     11 CL   UNL     1       7.673   7.091  17.233  0.00  0.00    +0.000 Cl
ENDROOT
BRANCH   1  12
ATOM     12  C   UNL     1       4.721   6.164  17.589  0.00  0.00    +0.000 C 
BRANCH  12  14
ATOM     13  C   UNL     1       5.726   4.929  19.519  0.00  0.00    +0.000 C 
ATOM     14  N   UNL     1       4.580   5.134  18.634  0.00  0.00    +0.000 N 
BRANCH  14  15
ATOM     15  C   UNL     1       3.501   4.250  18.677  0.00  0.00    +0.000 A 
ATOM     16  C   UNL     1       3.635   2.899  18.303  0.00  0.00    +0.000 A 
ATOM     17  C   UNL     1       2.551   2.015  18.285  0.00  0.00    +0.000 A 
ATOM     18  C   UNL     1       1.299   2.466  18.665  0.00  0.00    +0.000 A 
ATOM     19  F   UNL     1       0.256   1.626  18.649  0.00  0.00    +0.000 F 
ATOM     20  C   UNL     1       1.119   3.780  19.060  0.00  0.00    +0.000 A 
ATOM     21  C   UNL     1       2.209   4.659  19.066  0.00  0.00    +0.000 A 
ENDBRANCH  14  15
ENDBRANCH  12  14
ENDBRANCH   1  12
TORSDOF 3
ENDMDL
MODEL 6
REMARK VINA RESULT:      -8.3      1.437      1.879
REMARK  Name = 
REMARK  4 active torsions:
REMARK  status: ('A' for Active; 'I' for Inactive)
REMARK    1  A    between atoms: C_1  and  N_2
REMARK    2  A    between atoms: N_2  and  C_3
REMARK    3  A    between atoms: N_2  and  C_15
REMARK    4  A    between atoms: C_3  and  C_4
REMARK                            x       y       z     vdW  Elec       q    Type
REMARK                         _______ _______ _______ _____ _____    ______ ____
ROOT
ATOM      1  C   UNL     1       5.472   5.695  16.341  0.00  0.00    +0.000 A 
ATOM      2  C   UNL     1       4.905   4.889  15.347  0.00  0.00    +0.000 A 
ATOM      3  C   UNL     1       5.643   4.495  14.229  0.00  0.00    +0.000 A 
ATOM      4  C   UNL     1       5.060   3.722  13.209  0.00  0.00    +0.000 A 
ATOM      5  C   UNL     1       5.809   3.345  12.100  0.00  0.00    +0.000 A 
ATOM      6  C   UNL     1       7.142   3.735  12.010  0.00  0.00    +0.000 A 
ATOM      7  C   UNL     1       7.715   4.504  13.028  0.00  0.00    +0.000 A 
ATOM      8  C   UNL     1       6.987   4.901  14.141  0.00  0.00    +0.000 A 
ATOM      9  N   UNL     1       7.564   5.656  15.092  0.00  0.00    +0.000 NA
ATOM     10  C   UNL     1       6.806   6.035  16.148  0.00  0.00    +0.000 A 
ATOM     11 CL   UNL     1       7.680   7.023  17.258  0.00  0.00    +0.000 Cl
ENDROOT
BRANCH   1  12
ATOM     12  C   UNL     1       4.698   6.174  17.549  0.00  0.00    +0.000 C 
BRANCH  12  14
ATOM     13  C   UNL     1       5.617   4.905  19.499  0.00  0.00    +0.000 C 
ATOM     14  N   UNL     1       4.502   5.141  18.583  0.00  0.00    +0.000 N 
BRANCH  14  15
ATOM     15  C   UNL     1       3.402   4.283  18.588  0.00  0.00    +0.000 A 
ATOM     16  C   UNL     1       2.216   4.604  19.278  0.00  0.00    +0.000 A 
ATOM     17  C   UNL     1       1.127   3.730  19.341  0.00  0.00    +0.000 A 
ATOM     18  C   UNL     1       1.194   2.510  18.691  0.00  0.00    +0.000 A 
ATOM     19  F   UNL     1       0.155   1.666  18.748  0.00  0.00    +0.000 F 
ATOM     20  C   UNL     1       2.329   2.156  17.983  0.00  0.00    +0.000 A 
ATOM     21  C   UNL     1       3.418   3.035  17.934  0.00  0.00    +0.000 A 
ENDBRANCH  14  15
ENDBRANCH  12  14
ENDBRANCH   1  12
TORSDOF 3
ENDMDL
MODEL 7
REMARK VINA RESULT:      -8.3      2.194      2.841
REMARK  Name = 
REMARK  4 active torsions:
REMARK  status: ('A' for Active; 'I' for Inactive)
REMARK    1  A    between atoms: C_1  and  N_2
REMARK    2  A    between atoms: N_2  and  C_3
REMARK    3  A    between atoms: N_2  and  C_15
REMARK    4  A    between atoms: C_3  and  C_4
REMARK                            x       y       z     vdW  Elec       q    Type
REMARK                         _______ _______ _______ _____ _____    ______ ____
ROOT
ATOM      1  C   UNL     1       5.874   4.478  16.849  0.00  0.00    +0.000 A 
ATOM      2  C   UNL     1       5.532   3.768  15.691  0.00  0.00    +0.000 A 
ATOM      3  C   UNL     1       6.149   4.041  14.469  0.00  0.00    +0.000 A 
ATOM      4  C   UNL     1       5.774   3.359  13.298  0.00  0.00    +0.000 A 
ATOM      5  C   UNL     1       6.395   3.650  12.088  0.00  0.00    +0.000 A 
ATOM      6  C   UNL     1       7.394   4.618  12.047  0.00  0.00    +0.000 A 
ATOM      7  C   UNL     1       7.762   5.292  13.216  0.00  0.00    +0.000 A 
ATOM      8  C   UNL     1       7.151   5.027  14.434  0.00  0.00    +0.000 A 
ATOM      9  N   UNL     1       7.516   5.708  15.535  0.00  0.00    +0.000 NA
ATOM     10  C   UNL     1       6.877   5.428  16.695  0.00  0.00    +0.000 A 
ATOM     11 CL   UNL     1       7.435   6.405  18.001  0.00  0.00    +0.000 Cl
ENDROOT
BRANCH   1  12
ATOM     12  C   UNL     1       5.205   4.239  18.184  0.00  0.00    +0.000 C 
BRANCH  12  14
ATOM     13  C   UNL     1       2.886   3.461  17.656  0.00  0.00    +0.000 C 
ATOM     14  N   UNL     1       3.755   4.511  18.186  0.00  0.00    +0.000 N 
BRANCH  14  15
ATOM     15  C   UNL     1       3.227   5.767  18.484  0.00  0.00    +0.000 A 
ATOM     16  C   UNL     1       2.581   6.026  19.709  0.00  0.00    +0.000 A 
ATOM     17  C   UNL     1       1.995   7.262  20.000  0.00  0.00    +0.000 A 
ATOM     18  C   UNL     1       2.063   8.284  19.069  0.00  0.00    +0.000 A 
ATOM     19  F   UNL     1       1.503   9.470  19.340  0.00  0.00    +0.000 F 
ATOM     20  C   UNL     1       2.704   8.086  17.859  0.00  0.00    +0.000 A 
ATOM     21  C   UNL     1       3.279   6.841  17.574  0.00  0.00    +0.000 A 
ENDBRANCH  14  15
ENDBRANCH  12  14
ENDBRANCH   1  12
TORSDOF 3
ENDMDL
MODEL 8
REMARK VINA RESULT:      -8.2      2.081      2.735
REMARK  Name = 
REMARK  4 active torsions:
REMARK  status: ('A' for Active; 'I' for Inactive)
REMARK    1  A    between atoms: C_1  and  N_2
REMARK    2  A    between atoms: N_2  and  C_3
REMARK    3  A    between atoms: N_2  and  C_15
REMARK    4  A    between atoms: C_3  and  C_4
REMARK                            x       y       z     vdW  Elec       q    Type
REMARK                         _______ _______ _______ _____ _____    ______ ____
ROOT
ATOM      1  C   UNL     1       5.842   4.387  16.866  0.00  0.00    +0.000 A 
ATOM      2  C   UNL     1       5.530   3.681  15.698  0.00  0.00    +0.000 A 
ATOM      3  C   UNL     1       6.155   3.980  14.485  0.00  0.00    +0.000 A 
ATOM      4  C   UNL     1       5.809   3.301  13.304  0.00  0.00    +0.000 A 
ATOM      5  C   UNL     1       6.438   3.617  12.104  0.00  0.00    +0.000 A 
ATOM      6  C   UNL     1       7.417   4.607  12.085  0.00  0.00    +0.000 A 
ATOM      7  C   UNL     1       7.755   5.278  13.264  0.00  0.00    +0.000 A 
ATOM      8  C   UNL     1       7.136   4.987  14.472  0.00  0.00    +0.000 A 
ATOM      9  N   UNL     1       7.473   5.666  15.584  0.00  0.00    +0.000 NA
ATOM     10  C   UNL     1       6.825   5.360  16.734  0.00  0.00    +0.000 A 
ATOM     11 CL   UNL     1       7.346   6.337  18.055  0.00  0.00    +0.000 Cl
ENDROOT
BRANCH   1  12
ATOM     12  C   UNL     1       5.162   4.120  18.191  0.00  0.00    +0.000 C 
BRANCH  12  14
ATOM     13  C   UNL     1       2.894   3.291  17.536  0.00  0.00    +0.000 C 
ATOM     14  N   UNL     1       3.703   4.332  18.169  0.00  0.00    +0.000 N 
BRANCH  14  15
ATOM     15  C   UNL     1       3.114   5.540  18.545  0.00  0.00    +0.000 A 
ATOM     16  C   UNL     1       3.133   6.667  17.701  0.00  0.00    +0.000 A 
ATOM     17  C   UNL     1       2.599   7.901  18.087  0.00  0.00    +0.000 A 
ATOM     18  C   UNL     1       2.008   8.027  19.332  0.00  0.00    +0.000 A 
ATOM     19  F   UNL     1       1.496   9.206  19.710  0.00  0.00    +0.000 F 
ATOM     20  C   UNL     1       1.946   6.944  20.191  0.00  0.00    +0.000 A 
ATOM     21  C   UNL     1       2.493   5.716  19.798  0.00  0.00    +0.000 A 
ENDBRANCH  14  15
ENDBRANCH  12  14
ENDBRANCH   1  12
TORSDOF 3
ENDMDL
MODEL 9
REMARK VINA RESULT:      -8.2      3.397      6.815
REMARK  Name = 
REMARK  4 active torsions:
REMARK  status: ('A' for Active; 'I' for Inactive)
REMARK    1  A    between atoms: C_1  and  N_2
REMARK    2  A    between atoms: N_2  and  C_3
REMARK    3  A    between atoms: N_2  and  C_15
REMARK    4  A    between atoms: C_3  and  C_4
REMARK                            x       y       z     vdW  Elec       q    Type
REMARK                         _______ _______ _______ _____ _____    ______ ____
ROOT
ATOM      1  C   UNL     1       3.569   4.886  18.207  0.00  0.00    +0.000 A 
ATOM      2  C   UNL     1       3.262   6.157  17.707  0.00  0.00    +0.000 A 
ATOM      3  C   UNL     1       2.563   7.087  18.479  0.00  0.00    +0.000 A 
ATOM      4  C   UNL     1       2.216   8.346  17.961  0.00  0.00    +0.000 A 
ATOM      5  C   UNL     1       1.514   9.257  18.743  0.00  0.00    +0.000 A 
ATOM      6  C   UNL     1       1.162   8.912  20.044  0.00  0.00    +0.000 A 
ATOM      7  C   UNL     1       1.510   7.657  20.553  0.00  0.00    +0.000 A 
ATOM      8  C   UNL     1       2.203   6.727  19.790  0.00  0.00    +0.000 A 
ATOM      9  N   UNL     1       2.505   5.522  20.305  0.00  0.00    +0.000 NA
ATOM     10  C   UNL     1       3.164   4.642  19.514  0.00  0.00    +0.000 A 
ATOM     11 CL   UNL     1       3.446   3.137  20.307  0.00  0.00    +0.000 Cl
ENDROOT
BRANCH   1  12
ATOM     12  C   UNL     1       4.292   3.836  17.392  0.00  0.00    +0.000 C 
BRANCH  12  14
ATOM     13  C   UNL     1       5.828   3.691  15.422  0.00  0.00    +0.000 C 
ATOM     14  N   UNL     1       5.483   4.343  16.685  0.00  0.00    +0.000 N 
BRANCH  14  15
ATOM     15  C   UNL     1       6.366   5.256  17.261  0.00  0.00    +0.000 A 
ATOM     16  C   UNL     1       7.035   4.979  18.470  0.00  0.00    +0.000 A 
ATOM     17  C   UNL     1       7.877   5.907  19.090  0.00  0.00    +0.000 A 
ATOM     18  C   UNL     1       8.088   7.139  18.495  0.00  0.00    +0.000 A 
ATOM     19  F   UNL     1       8.893   8.034  19.083  0.00  0.00    +0.000 F 
ATOM     20  C   UNL     1       7.470   7.452  17.297  0.00  0.00    +0.000 A 
ATOM     21  C   UNL     1       6.621   6.519  16.690  0.00  0.00    +0.000 A 
ENDBRANCH  14  15
ENDBRANCH  12  14
ENDBRANCH   1  12
TORSDOF 3
ENDMDL
