MODEL 1
REMARK VINA RESULT:      -5.6      0.000      0.000
REMARK  Name = 
REMARK  18 active torsions:
REMARK  status: ('A' for Active; 'I' for Inactive)
REMARK    1  A    between atoms: C_1  and  C_2
REMARK    2  A    between atoms: C_2  and  C_3
REMARK    3  A    between atoms: C_3  and  C_4
REMARK    4  A    between atoms: C_4  and  C_5
REMARK    5  A    between atoms: C_5  and  C_6
REMARK    6  A    between atoms: C_6  and  C_7
REMARK    7  A    between atoms: C_7  and  C_8
REMARK    8  A    between atoms: C_8  and  C_9
REMARK    9  A    between atoms: C_10  and  C_11
REMARK   10  A    between atoms: C_11  and  C_12
REMARK   11  A    between atoms: C_12  and  C_13
REMARK   12  A    between atoms: C_13  and  C_14
REMARK   13  A    between atoms: C_14  and  C_15
REMARK   14  A    between atoms: C_15  and  C_16
REMARK   15  A    between atoms: C_16  and  C_17
REMARK   16  A    between atoms: C_17  and  C_18
REMARK   17  A    between atoms: C_18  and  C_20
REMARK   18  A    between atoms: N_23  and  C_24
REMARK                            x       y       z     vdW  Elec       q    Type
REMARK                         _______ _______ _______ _____ _____    ______ ____
ROOT
ATOM      1  C   UNL     1       4.370   2.212  19.309  0.00  0.00    +0.000 C 
ENDROOT
BRANCH   1   2
ATOM      2  C   UNL     1       4.503   3.432  18.409  0.00  0.00    +0.000 C 
BRANCH   2   3
ATOM      3  C   UNL     1       5.810   4.164  18.698  0.00  0.00    +0.000 C 
BRANCH   3   4
ATOM      4  C   UNL     1       5.575   5.668  18.741  0.00  0.00    +0.000 C 
BRANCH   4   5
ATOM      5  C   UNL     1       5.384   6.237  17.341  0.00  0.00    +0.000 C 
BRANCH   5   6
ATOM      6  C   UNL     1       6.627   6.061  16.486  0.00  0.00    +0.000 C 
ATOM      7  O   UNL     1       7.711   6.552  16.790  0.00  0.00    +0.000 OA
BRANCH   6   8
ATOM      8  C   UNL     1       6.489   5.284  15.271  0.00  0.00    +0.000 A 
ATOM      9  N   UNL     1       5.435   4.433  15.074  0.00  0.00    +0.000 NA
ATOM     10  N   UNL     1       5.605   3.890  13.880  0.00  0.00    +0.000 NA
ATOM     11  N   UNL     1       6.739   4.433  13.416  0.00  0.00    +0.000 N 
ATOM     12  C   UNL     1       7.282   4.096  12.127  0.00  0.00    +0.000 C 
ATOM     13  N   UNL     1       7.347   5.310  14.232  0.00  0.00    +0.000 NA
ENDBRANCH   6   8
ENDBRANCH   5   6
ENDBRANCH   4   5
ENDBRANCH   3   4
ENDBRANCH   2   3
ENDBRANCH   1   2
BRANCH   1  14
ATOM     14  C   UNL     1       4.021   2.617  20.739  0.00  0.00    +0.000 C 
BRANCH  14  15
ATOM     15  C   UNL     1       2.510   2.685  20.964  0.00  0.00    +0.000 C 
BRANCH  15  17
ATOM     16  C   UNL     1       1.578   4.996  20.522  0.00  0.00    +0.000 C 
ATOM     17  C   UNL     1       2.046   4.061  21.361  0.00  0.00    +0.000 C 
BRANCH  16  18
ATOM     18  C   UNL     1       1.433   4.778  19.049  0.00  0.00    +0.000 C 
BRANCH  18  19
ATOM     19  C   UNL     1       1.977   5.939  18.228  0.00  0.00    +0.000 C 
BRANCH  19  20
ATOM     20  C   UNL     1       2.326   7.095  19.159  0.00  0.00    +0.000 C 
BRANCH  20  21
ATOM     21  C   UNL     1       1.942   8.429  18.536  0.00  0.00    +0.000 C 
BRANCH  21  22
ATOM     22  C   UNL     1       1.182   9.293  19.536  0.00  0.00    +0.000 C 
BRANCH  22  23
ATOM     23  C   UNL     1       1.189   8.642  20.915  0.00  0.00    +0.000 C 
BRANCH  23  25
ATOM     24  C   UNL     1      -0.105   9.351  22.941  0.00  0.00    +0.000 C 
ATOM     25  C   UNL     1      -0.189   8.710  21.566  0.00  0.00    +0.000 C 
ENDBRANCH  23  25
ENDBRANCH  22  23
ENDBRANCH  21  22
ENDBRANCH  20  21
ENDBRANCH  19  20
ENDBRANCH  18  19
ENDBRANCH  16  18
ENDBRANCH  15  17
ENDBRANCH  14  15
ENDBRANCH   1  14
TORSDOF 16
ENDMDL
MODEL 2
REMARK VINA RESULT:      -5.5      2.564      4.032
REMARK  Name = 
REMARK  18 active torsions:
REMARK  status: ('A' for Active; 'I' for Inactive)
REMARK    1  A    between atoms: C_1  and  C_2
REMARK    2  A    between atoms: C_2  and  C_3
REMARK    3  A    between atoms: C_3  and  C_4
REMARK    4  A    between atoms: C_4  and  C_5
REMARK    5  A    between atoms: C_5  and  C_6
REMARK    6  A    between atoms: C_6  and  C_7
REMARK    7  A    between atoms: C_7  and  C_8
REMARK    8  A    between atoms: C_8  and  C_9
REMARK    9  A    between atoms: C_10  and  C_11
REMARK   10  A    between atoms: C_11  and  C_12
REMARK   11  A    between atoms: C_12  and  C_13
REMARK   12  A    between atoms: C_13  and  C_14
REMARK   13  A    between atoms: C_14  and  C_15
REMARK   14  A    between atoms: C_15  and  C_16
REMARK   15  A    between atoms: C_16  and  C_17
REMARK   16  A    between atoms: C_17  and  C_18
REMARK   17  A    between atoms: C_18  and  C_20
REMARK   18  A    between atoms: N_23  and  C_24
REMARK                            x       y       z     vdW  Elec       q    Type
REMARK                         _______ _______ _______ _____ _____    ______ ____
ROOT
ATOM      1  C   UNL     1       1.312   2.902  20.792  0.00  0.00    +0.000 C 
ENDROOT
BRANCH   1   2
ATOM      2  C   UNL     1       1.694   2.039  19.599  0.00  0.00    +0.000 C 
BRANCH   2   3
ATOM      3  C   UNL     1       2.021   2.915  18.394  0.00  0.00    +0.000 C 
BRANCH   3   4
ATOM      4  C   UNL     1       3.329   2.469  17.755  0.00  0.00    +0.000 C 
BRANCH   4   5
ATOM      5  C   UNL     1       4.091   3.652  17.172  0.00  0.00    +0.000 C 
BRANCH   5   6
ATOM      6  C   UNL     1       5.175   4.145  18.116  0.00  0.00    +0.000 C 
ATOM      7  O   UNL     1       5.303   3.709  19.257  0.00  0.00    +0.000 OA
BRANCH   6   8
ATOM      8  C   UNL     1       6.068   5.172  17.619  0.00  0.00    +0.000 A 
ATOM      9  N   UNL     1       6.627   5.099  16.371  0.00  0.00    +0.000 NA
ATOM     10  N   UNL     1       7.376   6.180  16.229  0.00  0.00    +0.000 NA
ATOM     11  N   UNL     1       7.235   6.848  17.382  0.00  0.00    +0.000 N 
ATOM     12  C   UNL     1       7.902   8.096  17.634  0.00  0.00    +0.000 C 
ATOM     13  N   UNL     1       6.434   6.276  18.298  0.00  0.00    +0.000 NA
ENDBRANCH   6   8
ENDBRANCH   5   6
ENDBRANCH   4   5
ENDBRANCH   3   4
ENDBRANCH   2   3
ENDBRANCH   1   2
BRANCH   1  14
ATOM     14  C   UNL     1       2.262   4.087  20.944  0.00  0.00    +0.000 C 
BRANCH  14  15
ATOM     15  C   UNL     1       1.528   5.426  20.870  0.00  0.00    +0.000 C 
BRANCH  15  17
ATOM     16  C   UNL     1       2.108   7.711  19.949  0.00  0.00    +0.000 C 
ATOM     17  C   UNL     1       2.150   6.373  19.880  0.00  0.00    +0.000 C 
BRANCH  16  18
ATOM     18  C   UNL     1       1.438   8.453  21.063  0.00  0.00    +0.000 C 
BRANCH  18  19
ATOM     19  C   UNL     1      -0.042   8.695  20.798  0.00  0.00    +0.000 C 
BRANCH  19  20
ATOM     20  C   UNL     1      -0.287  10.191  20.633  0.00  0.00    +0.000 C 
BRANCH  20  21
ATOM     21  C   UNL     1       0.264  10.688  19.305  0.00  0.00    +0.000 C 
BRANCH  21  22
ATOM     22  C   UNL     1      -0.457  10.022  18.138  0.00  0.00    +0.000 C 
BRANCH  22  23
ATOM     23  C   UNL     1      -1.951  10.319  18.198  0.00  0.00    +0.000 C 
BRANCH  23  25
ATOM     24  C   UNL     1      -3.911  11.026  16.804  0.00  0.00    +0.000 C 
ATOM     25  C   UNL     1      -2.406  11.124  16.985  0.00  0.00    +0.000 C 
ENDBRANCH  23  25
ENDBRANCH  22  23
ENDBRANCH  21  22
ENDBRANCH  20  21
ENDBRANCH  19  20
ENDBRANCH  18  19
ENDBRANCH  16  18
ENDBRANCH  15  17
ENDBRANCH  14  15
ENDBRANCH   1  14
TORSDOF 16
ENDMDL
MODEL 3
REMARK VINA RESULT:      -5.5      5.617      8.260
REMARK  Name = 
REMARK  18 active torsions:
REMARK  status: ('A' for Active; 'I' for Inactive)
REMARK    1  A    between atoms: C_1  and  C_2
REMARK    2  A    between atoms: C_2  and  C_3
REMARK    3  A    between atoms: C_3  and  C_4
REMARK    4  A    between atoms: C_4  and  C_5
REMARK    5  A    between atoms: C_5  and  C_6
REMARK    6  A    between atoms: C_6  and  C_7
REMARK    7  A    between atoms: C_7  and  C_8
REMARK    8  A    between atoms: C_8  and  C_9
REMARK    9  A    between atoms: C_10  and  C_11
REMARK   10  A    between atoms: C_11  and  C_12
REMARK   11  A    between atoms: C_12  and  C_13
REMARK   12  A    between atoms: C_13  and  C_14
REMARK   13  A    between atoms: C_14  and  C_15
REMARK   14  A    between atoms: C_15  and  C_16
REMARK   15  A    between atoms: C_16  and  C_17
REMARK   16  A    between atoms: C_17  and  C_18
REMARK   17  A    between atoms: C_18  and  C_20
REMARK   18  A    between atoms: N_23  and  C_24
REMARK                            x       y       z     vdW  Elec       q    Type
REMARK                         _______ _______ _______ _____ _____    ______ ____
ROOT
ATOM      1  C   UNL     1       6.503   6.448  16.554  0.00  0.00    +0.000 C 
ENDROOT
BRANCH   1   2
ATOM      2  C   UNL     1       5.242   5.651  16.254  0.00  0.00    +0.000 C 
BRANCH   2   3
ATOM      3  C   UNL     1       5.273   4.314  16.989  0.00  0.00    +0.000 C 
BRANCH   3   4
ATOM      4  C   UNL     1       3.943   3.591  16.828  0.00  0.00    +0.000 C 
BRANCH   4   5
ATOM      5  C   UNL     1       3.790   2.481  17.860  0.00  0.00    +0.000 C 
BRANCH   5   6
ATOM      6  C   UNL     1       3.983   2.997  19.276  0.00  0.00    +0.000 C 
ATOM      7  O   UNL     1       4.928   2.649  19.980  0.00  0.00    +0.000 OA
BRANCH   6   8
ATOM      8  C   UNL     1       2.995   3.926  19.782  0.00  0.00    +0.000 A 
ATOM      9  N   UNL     1       1.756   3.509  20.192  0.00  0.00    +0.000 NA
ATOM     10  N   UNL     1       1.109   4.590  20.595  0.00  0.00    +0.000 NA
ATOM     11  N   UNL     1       1.976   5.596  20.415  0.00  0.00    +0.000 N 
ATOM     12  C   UNL     1       1.649   6.959  20.735  0.00  0.00    +0.000 C 
ATOM     13  N   UNL     1       3.173   5.256  19.908  0.00  0.00    +0.000 NA
ENDBRANCH   6   8
ENDBRANCH   5   6
ENDBRANCH   4   5
ENDBRANCH   3   4
ENDBRANCH   2   3
ENDBRANCH   1   2
BRANCH   1  14
ATOM     14  C   UNL     1       6.862   6.376  18.036  0.00  0.00    +0.000 C 
BRANCH  14  15
ATOM     15  C   UNL     1       8.018   7.312  18.393  0.00  0.00    +0.000 C 
BRANCH  15  17
ATOM     16  C   UNL     1       8.500   9.781  18.110  0.00  0.00    +0.000 C 
ATOM     17  C   UNL     1       7.916   8.645  17.701  0.00  0.00    +0.000 C 
BRANCH  16  18
ATOM     18  C   UNL     1       9.369   9.864  19.325  0.00  0.00    +0.000 C 
BRANCH  18  19
ATOM     19  C   UNL     1       9.185  11.168  20.089  0.00  0.00    +0.000 C 
BRANCH  19  20
ATOM     20  C   UNL     1      10.531  11.625  20.641  0.00  0.00    +0.000 C 
BRANCH  20  21
ATOM     21  C   UNL     1      10.547  13.130  20.855  0.00  0.00    +0.000 C 
BRANCH  21  22
ATOM     22  C   UNL     1      11.230  13.835  19.688  0.00  0.00    +0.000 C 
BRANCH  22  23
ATOM     23  C   UNL     1      12.217  12.896  19.004  0.00  0.00    +0.000 C 
BRANCH  23  25
ATOM     24  C   UNL     1      10.478  13.194  17.223  0.00  0.00    +0.000 C 
ATOM     25  C   UNL     1      11.897  12.739  17.521  0.00  0.00    +0.000 C 
ENDBRANCH  23  25
ENDBRANCH  22  23
ENDBRANCH  21  22
ENDBRANCH  20  21
ENDBRANCH  19  20
ENDBRANCH  18  19
ENDBRANCH  16  18
ENDBRANCH  15  17
ENDBRANCH  14  15
ENDBRANCH   1  14
TORSDOF 16
ENDMDL
MODEL 4
REMARK VINA RESULT:      -5.5      4.826      7.972
REMARK  Name = 
REMARK  18 active torsions:
REMARK  status: ('A' for Active; 'I' for Inactive)
REMARK    1  A    between atoms: C_1  and  C_2
REMARK    2  A    between atoms: C_2  and  C_3
REMARK    3  A    between atoms: C_3  and  C_4
REMARK    4  A    between atoms: C_4  and  C_5
REMARK    5  A    between atoms: C_5  and  C_6
REMARK    6  A    between atoms: C_6  and  C_7
REMARK    7  A    between atoms: C_7  and  C_8
REMARK    8  A    between atoms: C_8  and  C_9
REMARK    9  A    between atoms: C_10  and  C_11
REMARK   10  A    between atoms: C_11  and  C_12
REMARK   11  A    between atoms: C_12  and  C_13
REMARK   12  A    between atoms: C_13  and  C_14
REMARK   13  A    between atoms: C_14  and  C_15
REMARK   14  A    between atoms: C_15  and  C_16
REMARK   15  A    between atoms: C_16  and  C_17
REMARK   16  A    between atoms: C_17  and  C_18
REMARK   17  A    between atoms: C_18  and  C_20
REMARK   18  A    between atoms: N_23  and  C_24
REMARK                            x       y       z     vdW  Elec       q    Type
REMARK                         _______ _______ _______ _____ _____    ______ ____
ROOT
ATOM      1  C   UNL     1       0.592   3.657  19.996  0.00  0.00    +0.000 C 
ENDROOT
BRANCH   1   2
ATOM      2  C   UNL     1       1.770   3.559  20.955  0.00  0.00    +0.000 C 
BRANCH   2   3
ATOM      3  C   UNL     1       2.472   4.908  21.071  0.00  0.00    +0.000 C 
BRANCH   3   4
ATOM      4  C   UNL     1       1.669   5.986  20.354  0.00  0.00    +0.000 C 
BRANCH   4   5
ATOM      5  C   UNL     1       1.133   7.019  21.335  0.00  0.00    +0.000 C 
BRANCH   5   6
ATOM      6  C   UNL     1       1.184   8.424  20.758  0.00  0.00    +0.000 C 
ATOM      7  O   UNL     1       1.724   8.676  19.684  0.00  0.00    +0.000 OA
BRANCH   6   8
ATOM      8  C   UNL     1       0.569   9.481  21.535  0.00  0.00    +0.000 A 
ATOM      9  N   UNL     1       0.182   9.290  22.834  0.00  0.00    +0.000 NA
ATOM     10  N   UNL     1      -0.333  10.436  23.247  0.00  0.00    +0.000 NA
ATOM     11  N   UNL     1      -0.233  11.256  22.192  0.00  0.00    +0.000 N 
ATOM     12  C   UNL     1      -0.692  12.619  22.232  0.00  0.00    +0.000 C 
ATOM     13  N   UNL     1       0.318  10.727  21.087  0.00  0.00    +0.000 NA
ENDBRANCH   6   8
ENDBRANCH   5   6
ENDBRANCH   4   5
ENDBRANCH   3   4
ENDBRANCH   2   3
ENDBRANCH   1   2
BRANCH   1  14
ATOM     14  C   UNL     1       0.974   3.170  18.600  0.00  0.00    +0.000 C 
BRANCH  14  15
ATOM     15  C   UNL     1       2.242   2.317  18.617  0.00  0.00    +0.000 C 
BRANCH  15  17
ATOM     16  C   UNL     1       4.390   3.328  17.739  0.00  0.00    +0.000 C 
ATOM     17  C   UNL     1       3.217   2.711  17.539  0.00  0.00    +0.000 C 
BRANCH  16  18
ATOM     18  C   UNL     1       4.903   3.694  19.096  0.00  0.00    +0.000 C 
BRANCH  18  19
ATOM     19  C   UNL     1       5.493   5.097  19.141  0.00  0.00    +0.000 C 
BRANCH  19  20
ATOM     20  C   UNL     1       4.693   6.010  18.217  0.00  0.00    +0.000 C 
BRANCH  20  21
ATOM     21  C   UNL     1       5.604   6.697  17.212  0.00  0.00    +0.000 C 
BRANCH  21  22
ATOM     22  C   UNL     1       5.137   6.425  15.786  0.00  0.00    +0.000 C 
BRANCH  22  23
ATOM     23  C   UNL     1       6.090   5.460  15.089  0.00  0.00    +0.000 C 
BRANCH  23  25
ATOM     24  C   UNL     1       6.198   3.666  13.341  0.00  0.00    +0.000 C 
ATOM     25  C   UNL     1       5.329   4.336  14.392  0.00  0.00    +0.000 C 
ENDBRANCH  23  25
ENDBRANCH  22  23
ENDBRANCH  21  22
ENDBRANCH  20  21
ENDBRANCH  19  20
ENDBRANCH  18  19
ENDBRANCH  16  18
ENDBRANCH  15  17
ENDBRANCH  14  15
ENDBRANCH   1  14
TORSDOF 16
ENDMDL
MODEL 5
REMARK VINA RESULT:      -5.5      5.399      6.981
REMARK  Name = 
REMARK  18 active torsions:
REMARK  status: ('A' for Active; 'I' for Inactive)
REMARK    1  A    between atoms: C_1  and  C_2
REMARK    2  A    between atoms: C_2  and  C_3
REMARK    3  A    between atoms: C_3  and  C_4
REMARK    4  A    between atoms: C_4  and  C_5
REMARK    5  A    between atoms: C_5  and  C_6
REMARK    6  A    between atoms: C_6  and  C_7
REMARK    7  A    between atoms: C_7  and  C_8
REMARK    8  A    between atoms: C_8  and  C_9
REMARK    9  A    between atoms: C_10  and  C_11
REMARK   10  A    between atoms: C_11  and  C_12
REMARK   11  A    between atoms: C_12  and  C_13
REMARK   12  A    between atoms: C_13  and  C_14
REMARK   13  A    between atoms: C_14  and  C_15
REMARK   14  A    between atoms: C_15  and  C_16
REMARK   15  A    between atoms: C_16  and  C_17
REMARK   16  A    between atoms: C_17  and  C_18
REMARK   17  A    between atoms: C_18  and  C_20
REMARK   18  A    between atoms: N_23  and  C_24
REMARK                            x       y       z     vdW  Elec       q    Type
REMARK                         _______ _______ _______ _____ _____    ______ ____
ROOT
ATOM      1  C   UNL     1       7.125   5.890  16.747  0.00  0.00    +0.000 C 
ENDROOT
BRANCH   1   2
ATOM      2  C   UNL     1       7.474   6.803  17.913  0.00  0.00    +0.000 C 
BRANCH   2   3
ATOM      3  C   UNL     1       7.951   8.158  17.401  0.00  0.00    +0.000 C 
BRANCH   3   4
ATOM      4  C   UNL     1       8.305   9.070  18.568  0.00  0.00    +0.000 C 
BRANCH   4   5
ATOM      5  C   UNL     1       9.046  10.313  18.092  0.00  0.00    +0.000 C 
BRANCH   5   6
ATOM      6  C   UNL     1       9.719  11.043  19.242  0.00  0.00    +0.000 C 
ATOM      7  O   UNL     1       9.594  10.688  20.411  0.00  0.00    +0.000 OA
BRANCH   6   8
ATOM      8  C   UNL     1      10.525  12.200  18.909  0.00  0.00    +0.000 A 
ATOM      9  N   UNL     1      10.931  12.451  17.626  0.00  0.00    +0.000 NA
ATOM     10  N   UNL     1      11.636  13.569  17.665  0.00  0.00    +0.000 NA
ATOM     11  N   UNL     1      11.621  13.939  18.954  0.00  0.00    +0.000 N 
ATOM     12  C   UNL     1      12.290  15.123  19.422  0.00  0.00    +0.000 C 
ATOM     13  N   UNL     1      10.949  13.129  19.789  0.00  0.00    +0.000 NA
ENDBRANCH   6   8
ENDBRANCH   5   6
ENDBRANCH   4   5
ENDBRANCH   3   4
ENDBRANCH   2   3
ENDBRANCH   1   2
BRANCH   1  14
ATOM     14  C   UNL     1       5.738   6.206  16.193  0.00  0.00    +0.000 C 
BRANCH  14  15
ATOM     15  C   UNL     1       4.632   5.495  16.974  0.00  0.00    +0.000 C 
BRANCH  15  17
ATOM     16  C   UNL     1       4.064   3.069  17.420  0.00  0.00    +0.000 C 
ATOM     17  C   UNL     1       4.959   4.053  17.256  0.00  0.00    +0.000 C 
BRANCH  16  18
ATOM     18  C   UNL     1       2.586   3.281  17.318  0.00  0.00    +0.000 C 
BRANCH  18  19
ATOM     19  C   UNL     1       1.797   2.352  18.230  0.00  0.00    +0.000 C 
BRANCH  19  20
ATOM     20  C   UNL     1       1.945   2.817  19.675  0.00  0.00    +0.000 C 
BRANCH  20  21
ATOM     21  C   UNL     1       0.863   3.824  20.034  0.00  0.00    +0.000 C 
BRANCH  21  22
ATOM     22  C   UNL     1       1.464   5.034  20.741  0.00  0.00    +0.000 C 
BRANCH  22  23
ATOM     23  C   UNL     1       2.678   5.548  19.974  0.00  0.00    +0.000 C 
BRANCH  23  25
ATOM     24  C   UNL     1       1.980   7.186  18.209  0.00  0.00    +0.000 C 
ATOM     25  C   UNL     1       2.524   7.024  19.619  0.00  0.00    +0.000 C 
ENDBRANCH  23  25
ENDBRANCH  22  23
ENDBRANCH  21  22
ENDBRANCH  20  21
ENDBRANCH  19  20
ENDBRANCH  18  19
ENDBRANCH  16  18
ENDBRANCH  15  17
ENDBRANCH  14  15
ENDBRANCH   1  14
TORSDOF 16
ENDMDL
MODEL 6
REMARK VINA RESULT:      -5.4      6.031      7.676
REMARK  Name = 
REMARK  18 active torsions:
REMARK  status: ('A' for Active; 'I' for Inactive)
REMARK    1  A    between atoms: C_1  and  C_2
REMARK    2  A    between atoms: C_2  and  C_3
REMARK    3  A    between atoms: C_3  and  C_4
REMARK    4  A    between atoms: C_4  and  C_5
REMARK    5  A    between atoms: C_5  and  C_6
REMARK    6  A    between atoms: C_6  and  C_7
REMARK    7  A    between atoms: C_7  and  C_8
REMARK    8  A    between atoms: C_8  and  C_9
REMARK    9  A    between atoms: C_10  and  C_11
REMARK   10  A    between atoms: C_11  and  C_12
REMARK   11  A    between atoms: C_12  and  C_13
REMARK   12  A    between atoms: C_13  and  C_14
REMARK   13  A    between atoms: C_14  and  C_15
REMARK   14  A    between atoms: C_15  and  C_16
REMARK   15  A    between atoms: C_16  and  C_17
REMARK   16  A    between atoms: C_17  and  C_18
REMARK   17  A    between atoms: C_18  and  C_20
REMARK   18  A    between atoms: N_23  and  C_24
REMARK                            x       y       z     vdW  Elec       q    Type
REMARK                         _______ _______ _______ _____ _____    ______ ____
ROOT
ATOM      1  C   UNL     1       7.688   7.081  17.409  0.00  0.00    +0.000 C 
ENDROOT
BRANCH   1   2
ATOM      2  C   UNL     1       7.629   8.592  17.576  0.00  0.00    +0.000 C 
BRANCH   2   3
ATOM      3  C   UNL     1       8.808   9.079  18.412  0.00  0.00    +0.000 C 
BRANCH   3   4
ATOM      4  C   UNL     1       8.813  10.600  18.484  0.00  0.00    +0.000 C 
BRANCH   4   5
ATOM      5  C   UNL     1       9.753  11.098  19.574  0.00  0.00    +0.000 C 
BRANCH   5   6
ATOM      6  C   UNL     1       9.332  12.458  20.104  0.00  0.00    +0.000 C 
ATOM      7  O   UNL     1       8.656  12.588  21.122  0.00  0.00    +0.000 OA
BRANCH   6   8
ATOM      8  C   UNL     1       9.756  13.622  19.353  0.00  0.00    +0.000 A 
ATOM      9  N   UNL     1       9.246  14.867  19.605  0.00  0.00    +0.000 NA
ATOM     10  N   UNL     1       9.837  15.695  18.759  0.00  0.00    +0.000 NA
ATOM     11  N   UNL     1      10.668  14.921  18.046  0.00  0.00    +0.000 N 
ATOM     12  C   UNL     1      11.505  15.448  17.003  0.00  0.00    +0.000 C 
ATOM     13  N   UNL     1      10.668  13.615  18.361  0.00  0.00    +0.000 NA
ENDBRANCH   6   8
ENDBRANCH   5   6
ENDBRANCH   4   5
ENDBRANCH   3   4
ENDBRANCH   2   3
ENDBRANCH   1   2
BRANCH   1  14
ATOM     14  C   UNL     1       6.368   6.428  17.814  0.00  0.00    +0.000 C 
BRANCH  14  15
ATOM     15  C   UNL     1       5.213   6.859  16.911  0.00  0.00    +0.000 C 
BRANCH  15  17
ATOM     16  C   UNL     1       3.152   5.654  17.753  0.00  0.00    +0.000 C 
ATOM     17  C   UNL     1       3.877   6.771  17.599  0.00  0.00    +0.000 C 
BRANCH  16  18
ATOM     18  C   UNL     1       3.602   4.312  17.265  0.00  0.00    +0.000 C 
BRANCH  18  19
ATOM     19  C   UNL     1       4.286   3.494  18.352  0.00  0.00    +0.000 C 
BRANCH  19  20
ATOM     20  C   UNL     1       3.453   2.252  18.648  0.00  0.00    +0.000 C 
BRANCH  20  21
ATOM     21  C   UNL     1       2.110   2.317  17.937  0.00  0.00    +0.000 C 
BRANCH  21  22
ATOM     22  C   UNL     1       0.967   2.087  18.920  0.00  0.00    +0.000 C 
BRANCH  22  23
ATOM     23  C   UNL     1       1.329   2.638  20.294  0.00  0.00    +0.000 C 
BRANCH  23  25
ATOM     24  C   UNL     1       2.087   4.891  21.089  0.00  0.00    +0.000 C 
ATOM     25  C   UNL     1       0.970   4.116  20.411  0.00  0.00    +0.000 C 
ENDBRANCH  23  25
ENDBRANCH  22  23
ENDBRANCH  21  22
ENDBRANCH  20  21
ENDBRANCH  19  20
ENDBRANCH  18  19
ENDBRANCH  16  18
ENDBRANCH  15  17
ENDBRANCH  14  15
ENDBRANCH   1  14
TORSDOF 16
ENDMDL
MODEL 7
REMARK VINA RESULT:      -5.4      6.048      8.099
REMARK  Name = 
REMARK  18 active torsions:
REMARK  status: ('A' for Active; 'I' for Inactive)
REMARK    1  A    between atoms: C_1  and  C_2
REMARK    2  A    between atoms: C_2  and  C_3
REMARK    3  A    between atoms: C_3  and  C_4
REMARK    4  A    between atoms: C_4  and  C_5
REMARK    5  A    between atoms: C_5  and  C_6
REMARK    6  A    between atoms: C_6  and  C_7
REMARK    7  A    between atoms: C_7  and  C_8
REMARK    8  A    between atoms: C_8  and  C_9
REMARK    9  A    between atoms: C_10  and  C_11
REMARK   10  A    between atoms: C_11  and  C_12
REMARK   11  A    between atoms: C_12  and  C_13
REMARK   12  A    between atoms: C_13  and  C_14
REMARK   13  A    between atoms: C_14  and  C_15
REMARK   14  A    between atoms: C_15  and  C_16
REMARK   15  A    between atoms: C_16  and  C_17
REMARK   16  A    between atoms: C_17  and  C_18
REMARK   17  A    between atoms: C_18  and  C_20
REMARK   18  A    between atoms: N_23  and  C_24
REMARK                            x       y       z     vdW  Elec       q    Type
REMARK                         _______ _______ _______ _____ _____    ______ ____
ROOT
ATOM      1  C   UNL     1       8.784   9.994  18.652  0.00  0.00    +0.000 C 
ENDROOT
BRANCH   1   2
ATOM      2  C   UNL     1       8.112   9.235  17.517  0.00  0.00    +0.000 C 
BRANCH   2   3
ATOM      3  C   UNL     1       7.873   7.783  17.919  0.00  0.00    +0.000 C 
BRANCH   3   4
ATOM      4  C   UNL     1       6.640   7.235  17.213  0.00  0.00    +0.000 C 
BRANCH   4   5
ATOM      5  C   UNL     1       6.927   5.884  16.572  0.00  0.00    +0.000 C 
BRANCH   5   6
ATOM      6  C   UNL     1       6.922   4.761  17.596  0.00  0.00    +0.000 C 
ATOM      7  O   UNL     1       7.955   4.309  18.083  0.00  0.00    +0.000 OA
BRANCH   6   8
ATOM      8  C   UNL     1       5.633   4.224  17.983  0.00  0.00    +0.000 A 
ATOM      9  N   UNL     1       5.384   3.799  19.261  0.00  0.00    +0.000 NA
ATOM     10  N   UNL     1       4.130   3.377  19.280  0.00  0.00    +0.000 NA
ATOM     11  N   UNL     1       3.686   3.567  18.030  0.00  0.00    +0.000 N 
ATOM     12  C   UNL     1       2.347   3.226  17.630  0.00  0.00    +0.000 C 
ATOM     13  N   UNL     1       4.571   4.090  17.165  0.00  0.00    +0.000 NA
ENDBRANCH   6   8
ENDBRANCH   5   6
ENDBRANCH   4   5
ENDBRANCH   3   4
ENDBRANCH   2   3
ENDBRANCH   1   2
BRANCH   1  14
ATOM     14  C   UNL     1       9.039  11.450  18.268  0.00  0.00    +0.000 C 
BRANCH  14  15
ATOM     15  C   UNL     1      10.494  11.692  17.865  0.00  0.00    +0.000 C 
BRANCH  15  17
ATOM     16  C   UNL     1      11.731  12.493  19.923  0.00  0.00    +0.000 C 
ATOM     17  C   UNL     1      11.446  11.543  19.022  0.00  0.00    +0.000 C 
BRANCH  16  18
ATOM     18  C   UNL     1      11.106  13.852  19.906  0.00  0.00    +0.000 C 
BRANCH  18  19
ATOM     19  C   UNL     1      10.339  14.160  21.185  0.00  0.00    +0.000 C 
BRANCH  19  20
ATOM     20  C   UNL     1       9.085  13.292  21.243  0.00  0.00    +0.000 C 
BRANCH  20  21
ATOM     21  C   UNL     1       9.062  12.456  22.513  0.00  0.00    +0.000 C 
BRANCH  21  22
ATOM     22  C   UNL     1       7.705  11.784  22.691  0.00  0.00    +0.000 C 
BRANCH  22  23
ATOM     23  C   UNL     1       6.849  12.567  23.680  0.00  0.00    +0.000 C 
BRANCH  23  25
ATOM     24  C   UNL     1       6.235  11.182  25.677  0.00  0.00    +0.000 C 
ATOM     25  C   UNL     1       7.203  12.213  25.121  0.00  0.00    +0.000 C 
ENDBRANCH  23  25
ENDBRANCH  22  23
ENDBRANCH  21  22
ENDBRANCH  20  21
ENDBRANCH  19  20
ENDBRANCH  18  19
ENDBRANCH  16  18
ENDBRANCH  15  17
ENDBRANCH  14  15
ENDBRANCH   1  14
TORSDOF 16
ENDMDL
MODEL 8
REMARK VINA RESULT:      -5.4      3.028      4.637
REMARK  Name = 
REMARK  18 active torsions:
REMARK  status: ('A' for Active; 'I' for Inactive)
REMARK    1  A    between atoms: C_1  and  C_2
REMARK    2  A    between atoms: C_2  and  C_3
REMARK    3  A    between atoms: C_3  and  C_4
REMARK    4  A    between atoms: C_4  and  C_5
REMARK    5  A    between atoms: C_5  and  C_6
REMARK    6  A    between atoms: C_6  and  C_7
REMARK    7  A    between atoms: C_7  and  C_8
REMARK    8  A    between atoms: C_8  and  C_9
REMARK    9  A    between atoms: C_10  and  C_11
REMARK   10  A    between atoms: C_11  and  C_12
REMARK   11  A    between atoms: C_12  and  C_13
REMARK   12  A    between atoms: C_13  and  C_14
REMARK   13  A    between atoms: C_14  and  C_15
REMARK   14  A    between atoms: C_15  and  C_16
REMARK   15  A    between atoms: C_16  and  C_17
REMARK   16  A    between atoms: C_17  and  C_18
REMARK   17  A    between atoms: C_18  and  C_20
REMARK   18  A    between atoms: N_23  and  C_24
REMARK                            x       y       z     vdW  Elec       q    Type
REMARK                         _______ _______ _______ _____ _____    ______ ____
ROOT
ATOM      1  C   UNL     1       1.567   4.718  19.180  0.00  0.00    +0.000 C 
ENDROOT
BRANCH   1   2
ATOM      2  C   UNL     1       1.274   3.332  18.624  0.00  0.00    +0.000 C 
BRANCH   2   3
ATOM      3  C   UNL     1       2.187   2.297  19.273  0.00  0.00    +0.000 C 
BRANCH   3   4
ATOM      4  C   UNL     1       3.239   2.985  20.133  0.00  0.00    +0.000 C 
BRANCH   4   5
ATOM      5  C   UNL     1       4.621   2.883  19.501  0.00  0.00    +0.000 C 
BRANCH   5   6
ATOM      6  C   UNL     1       5.190   4.251  19.165  0.00  0.00    +0.000 C 
ATOM      7  O   UNL     1       4.984   5.240  19.864  0.00  0.00    +0.000 OA
BRANCH   6   8
ATOM      8  C   UNL     1       5.995   4.356  17.965  0.00  0.00    +0.000 A 
ATOM      9  N   UNL     1       7.353   4.519  18.020  0.00  0.00    +0.000 NA
ATOM     10  N   UNL     1       7.778   4.575  16.769  0.00  0.00    +0.000 NA
ATOM     11  N   UNL     1       6.670   4.441  16.025  0.00  0.00    +0.000 N 
ATOM     12  C   UNL     1       6.703   4.453  14.587  0.00  0.00    +0.000 C 
ATOM     13  N   UNL     1       5.520   4.303  16.705  0.00  0.00    +0.000 NA
ENDBRANCH   6   8
ENDBRANCH   5   6
ENDBRANCH   4   5
ENDBRANCH   3   4
ENDBRANCH   2   3
ENDBRANCH   1   2
BRANCH   1  14
ATOM     14  C   UNL     1       2.040   5.666  18.081  0.00  0.00    +0.000 C 
BRANCH  14  15
ATOM     15  C   UNL     1       2.270   7.083  18.606  0.00  0.00    +0.000 C 
BRANCH  15  17
ATOM     16  C   UNL     1       1.455   8.296  20.673  0.00  0.00    +0.000 C 
ATOM     17  C   UNL     1       1.969   7.212  20.076  0.00  0.00    +0.000 C 
BRANCH  16  18
ATOM     18  C   UNL     1       1.085   9.542  19.932  0.00  0.00    +0.000 C 
BRANCH  18  19
ATOM     19  C   UNL     1      -0.407   9.629  19.641  0.00  0.00    +0.000 C 
BRANCH  19  20
ATOM     20  C   UNL     1      -0.641  10.607  18.494  0.00  0.00    +0.000 C 
BRANCH  20  21
ATOM     21  C   UNL     1      -1.679  10.067  17.523  0.00  0.00    +0.000 C 
BRANCH  21  22
ATOM     22  C   UNL     1      -2.723  11.131  17.202  0.00  0.00    +0.000 C 
BRANCH  22  23
ATOM     23  C   UNL     1      -2.846  11.316  15.694  0.00  0.00    +0.000 C 
BRANCH  23  25
ATOM     24  C   UNL     1      -3.042   9.752  13.744  0.00  0.00    +0.000 C 
ATOM     25  C   UNL     1      -3.659  10.191  15.061  0.00  0.00    +0.000 C 
ENDBRANCH  23  25
ENDBRANCH  22  23
ENDBRANCH  21  22
ENDBRANCH  20  21
ENDBRANCH  19  20
ENDBRANCH  18  19
ENDBRANCH  16  18
ENDBRANCH  15  17
ENDBRANCH  14  15
ENDBRANCH   1  14
TORSDOF 16
ENDMDL
MODEL 9
REMARK VINA RESULT:      -5.4      3.156      4.884
REMARK  Name = 
REMARK  18 active torsions:
REMARK  status: ('A' for Active; 'I' for Inactive)
REMARK    1  A    between atoms: C_1  and  C_2
REMARK    2  A    between atoms: C_2  and  C_3
REMARK    3  A    between atoms: C_3  and  C_4
REMARK    4  A    between atoms: C_4  and  C_5
REMARK    5  A    between atoms: C_5  and  C_6
REMARK    6  A    between atoms: C_6  and  C_7
REMARK    7  A    between atoms: C_7  and  C_8
REMARK    8  A    between atoms: C_8  and  C_9
REMARK    9  A    between atoms: C_10  and  C_11
REMARK   10  A    between atoms: C_11  and  C_12
REMARK   11  A    between atoms: C_12  and  C_13
REMARK   12  A    between atoms: C_13  and  C_14
REMARK   13  A    between atoms: C_14  and  C_15
REMARK   14  A    between atoms: C_15  and  C_16
REMARK   15  A    between atoms: C_16  and  C_17
REMARK   16  A    between atoms: C_17  and  C_18
REMARK   17  A    between atoms: C_18  and  C_20
REMARK   18  A    between atoms: N_23  and  C_24
REMARK                            x       y       z     vdW  Elec       q    Type
REMARK                         _______ _______ _______ _____ _____    ______ ____
ROOT
ATOM      1  C   UNL     1       1.524   4.464  21.000  0.00  0.00    +0.000 C 
ENDROOT
BRANCH   1   2
ATOM      2  C   UNL     1       1.317   3.140  20.280  0.00  0.00    +0.000 C 
BRANCH   2   3
ATOM      3  C   UNL     1       1.361   3.346  18.769  0.00  0.00    +0.000 C 
BRANCH   3   4
ATOM      4  C   UNL     1       2.323   2.355  18.128  0.00  0.00    +0.000 C 
BRANCH   4   5
ATOM      5  C   UNL     1       3.510   3.069  17.496  0.00  0.00    +0.000 C 
BRANCH   5   6
ATOM      6  C   UNL     1       4.599   3.364  18.514  0.00  0.00    +0.000 C 
ATOM      7  O   UNL     1       4.782   2.660  19.504  0.00  0.00    +0.000 OA
BRANCH   6   8
ATOM      8  C   UNL     1       5.428   4.527  18.278  0.00  0.00    +0.000 A 
ATOM      9  N   UNL     1       5.102   5.467  17.336  0.00  0.00    +0.000 NA
ATOM     10  N   UNL     1       6.050   6.387  17.377  0.00  0.00    +0.000 NA
ATOM     11  N   UNL     1       6.894   5.968  18.331  0.00  0.00    +0.000 N 
ATOM     12  C   UNL     1       8.079   6.701  18.685  0.00  0.00    +0.000 C 
ATOM     13  N   UNL     1       6.570   4.812  18.934  0.00  0.00    +0.000 NA
ENDBRANCH   6   8
ENDBRANCH   5   6
ENDBRANCH   4   5
ENDBRANCH   3   4
ENDBRANCH   2   3
ENDBRANCH   1   2
BRANCH   1  14
ATOM     14  C   UNL     1       2.621   5.290  20.333  0.00  0.00    +0.000 C 
BRANCH  14  15
ATOM     15  C   UNL     1       2.133   6.686  19.946  0.00  0.00    +0.000 C 
BRANCH  15  17
ATOM     16  C   UNL     1       2.164   8.135  17.870  0.00  0.00    +0.000 C 
ATOM     17  C   UNL     1       2.209   6.934  18.463  0.00  0.00    +0.000 C 
BRANCH  16  18
ATOM     18  C   UNL     1       2.052   9.420  18.630  0.00  0.00    +0.000 C 
BRANCH  18  19
ATOM     19  C   UNL     1       0.649   9.661  19.169  0.00  0.00    +0.000 C 
BRANCH  19  20
ATOM     20  C   UNL     1      -0.103  10.590  18.221  0.00  0.00    +0.000 C 
BRANCH  20  21
ATOM     21  C   UNL     1      -1.540  10.785  18.679  0.00  0.00    +0.000 C 
BRANCH  21  22
ATOM     22  C   UNL     1      -2.501  10.006  17.787  0.00  0.00    +0.000 C 
BRANCH  22  23
ATOM     23  C   UNL     1      -2.615  10.673  16.420  0.00  0.00    +0.000 C 
BRANCH  23  25
ATOM     24  C   UNL     1      -3.735  10.208  14.225  0.00  0.00    +0.000 C 
ATOM     25  C   UNL     1      -2.844   9.642  15.319  0.00  0.00    +0.000 C 
ENDBRANCH  23  25
ENDBRANCH  22  23
ENDBRANCH  21  22
ENDBRANCH  20  21
ENDBRANCH  19  20
ENDBRANCH  18  19
ENDBRANCH  16  18
ENDBRANCH  15  17
ENDBRANCH  14  15
ENDBRANCH   1  14
TORSDOF 16
ENDMDL
