MODEL 1
REMARK VINA RESULT:      -7.7      0.000      0.000
REMARK  Name = 
REMARK  4 active torsions:
REMARK  status: ('A' for Active; 'I' for Inactive)
REMARK    1  A    between atoms: C_1  and  N_2
REMARK    2  A    between atoms: N_5  and  C_6
REMARK    3  A    between atoms: N_12  and  C_13
REMARK    4  A    between atoms: C_16  and  C_17
REMARK                            x       y       z     vdW  Elec       q    Type
REMARK                         _______ _______ _______ _____ _____    ______ ____
ROOT
ATOM      1  C   UNL     1       2.961   7.309  18.626  0.00  0.00    +0.000 A 
ATOM      2  C   UNL     1       2.372   7.195  19.901  0.00  0.00    +0.000 A 
ATOM      3  C   UNL     1       1.384   8.072  20.359  0.00  0.00    +0.000 A 
ATOM      4  C   UNL     1       0.970   9.092  19.504  0.00  0.00    +0.000 A 
ATOM      5  N   UNL     1       0.018  10.048  19.704  0.00  0.00    +0.000 NA
ATOM      6  C   UNL     1      -0.044  10.741  18.592  0.00  0.00    +0.000 A 
ATOM      7  N   UNL     1      -0.886  11.748  18.268  0.00  0.00    +0.000 N 
ATOM      8  N   UNL     1       0.902  10.299  17.698  0.00  0.00    +0.000 N 
ATOM      9  C   UNL     1       1.544   9.216  18.247  0.00  0.00    +0.000 A 
ATOM     10  C   UNL     1       2.541   8.350  17.779  0.00  0.00    +0.000 A 
ATOM     11  H   UNL     1      -0.752  12.281  17.419  0.00  0.00    +0.000 HD
ATOM     12  H   UNL     1       1.054  10.665  16.772  0.00  0.00    +0.000 HD
ENDROOT
BRANCH   1  17
ATOM     13  C   UNL     1       7.735   4.556  17.792  0.00  0.00    +0.000 C 
ATOM     14  N   UNL     1       6.288   4.763  17.754  0.00  0.00    +0.000 NA
ATOM     15  C   UNL     1       5.952   5.939  16.917  0.00  0.00    +0.000 C 
ATOM     16  C   UNL     1       4.436   6.263  16.901  0.00  0.00    +0.000 C 
ATOM     17  N   UNL     1       3.969   6.426  18.281  0.00  0.00    +0.000 N 
ATOM     18  C   UNL     1       4.247   5.263  19.140  0.00  0.00    +0.000 C 
ATOM     19  C   UNL     1       5.764   4.970  19.125  0.00  0.00    +0.000 C 
ENDBRANCH   1  17
BRANCH   7  20
ATOM     20  C   UNL     1      -2.090  12.039  18.944  0.00  0.00    +0.000 A 
ATOM     21  C   UNL     1      -3.309  11.620  18.402  0.00  0.00    +0.000 A 
ATOM     22  C   UNL     1      -4.518  11.922  19.041  0.00  0.00    +0.000 A 
ATOM     23  C   UNL     1      -4.502  12.661  20.226  0.00  0.00    +0.000 A 
ATOM     24  N   UNL     1      -3.334  13.086  20.774  0.00  0.00    +0.000 NA
ATOM     25  C   UNL     1      -2.181  12.780  20.126  0.00  0.00    +0.000 A 
BRANCH  23  26
ATOM     26  C   UNL     1      -5.800  13.013  20.935  0.00  0.00    +0.000 C 
ATOM     27  F   UNL     1      -6.473  14.045  20.342  0.00  0.00    +0.000 F 
ATOM     28  F   UNL     1      -6.692  11.981  20.972  0.00  0.00    +0.000 F 
ATOM     29  F   UNL     1      -5.619  13.403  22.230  0.00  0.00    +0.000 F 
ENDBRANCH  23  26
ENDBRANCH   7  20
TORSDOF 3
ENDMDL
MODEL 2
REMARK VINA RESULT:      -7.7      6.501     10.991
REMARK  Name = 
REMARK  4 active torsions:
REMARK  status: ('A' for Active; 'I' for Inactive)
REMARK    1  A    between atoms: C_1  and  N_2
REMARK    2  A    between atoms: N_5  and  C_6
REMARK    3  A    between atoms: N_12  and  C_13
REMARK    4  A    between atoms: C_16  and  C_17
REMARK                            x       y       z     vdW  Elec       q    Type
REMARK                         _______ _______ _______ _____ _____    ______ ____
ROOT
ATOM      1  C   UNL     1       1.103   8.948  19.789  0.00  0.00    +0.000 A 
ATOM      2  C   UNL     1       1.350   9.543  18.537  0.00  0.00    +0.000 A 
ATOM      3  C   UNL     1       2.275   9.027  17.624  0.00  0.00    +0.000 A 
ATOM      4  C   UNL     1       2.968   7.871  17.979  0.00  0.00    +0.000 A 
ATOM      5  N   UNL     1       3.892   7.168  17.264  0.00  0.00    +0.000 NA
ATOM      6  C   UNL     1       4.213   6.131  18.000  0.00  0.00    +0.000 A 
ATOM      7  N   UNL     1       5.033   5.100  17.697  0.00  0.00    +0.000 N 
ATOM      8  N   UNL     1       3.569   6.186  19.213  0.00  0.00    +0.000 N 
ATOM      9  C   UNL     1       2.735   7.277  19.211  0.00  0.00    +0.000 A 
ATOM     10  C   UNL     1       1.817   7.788  20.138  0.00  0.00    +0.000 A 
ATOM     11  H   UNL     1       5.291   4.420  18.400  0.00  0.00    +0.000 HD
ATOM     12  H   UNL     1       3.645   5.505  19.951  0.00  0.00    +0.000 HD
ENDROOT
BRANCH   1  17
ATOM     13  C   UNL     1      -1.598  12.194  23.427  0.00  0.00    +0.000 C 
ATOM     14  N   UNL     1      -1.446  11.099  22.470  0.00  0.00    +0.000 NA
ATOM     15  C   UNL     1      -0.438  10.124  22.950  0.00  0.00    +0.000 C 
ATOM     16  C   UNL     1      -0.171   8.977  21.940  0.00  0.00    +0.000 C 
ATOM     17  N   UNL     1       0.207   9.559  20.648  0.00  0.00    +0.000 N 
ATOM     18  C   UNL     1      -0.787  10.506  20.114  0.00  0.00    +0.000 C 
ATOM     19  C   UNL     1      -1.029  11.627  21.149  0.00  0.00    +0.000 C 
ENDBRANCH   1  17
BRANCH   7  20
ATOM     20  C   UNL     1       5.456   4.762  16.393  0.00  0.00    +0.000 A 
ATOM     21  C   UNL     1       6.729   5.139  15.957  0.00  0.00    +0.000 A 
ATOM     22  C   UNL     1       7.159   4.840  14.659  0.00  0.00    +0.000 A 
ATOM     23  C   UNL     1       6.298   4.166  13.789  0.00  0.00    +0.000 A 
ATOM     24  N   UNL     1       5.054   3.791  14.182  0.00  0.00    +0.000 NA
ATOM     25  C   UNL     1       4.667   4.101  15.446  0.00  0.00    +0.000 A 
BRANCH  23  26
ATOM     26  C   UNL     1       6.734   3.838  12.370  0.00  0.00    +0.000 C 
ATOM     27  F   UNL     1       5.694   3.805  11.482  0.00  0.00    +0.000 F 
ATOM     28  F   UNL     1       7.615   4.743  11.854  0.00  0.00    +0.000 F 
ATOM     29  F   UNL     1       7.336   2.619  12.259  0.00  0.00    +0.000 F 
ENDBRANCH  23  26
ENDBRANCH   7  20
TORSDOF 3
ENDMDL
MODEL 3
REMARK VINA RESULT:      -7.7      5.672     10.477
REMARK  Name = 
REMARK  4 active torsions:
REMARK  status: ('A' for Active; 'I' for Inactive)
REMARK    1  A    between atoms: C_1  and  N_2
REMARK    2  A    between atoms: N_5  and  C_6
REMARK    3  A    between atoms: N_12  and  C_13
REMARK    4  A    between atoms: C_16  and  C_17
REMARK                            x       y       z     vdW  Elec       q    Type
REMARK                         _______ _______ _______ _____ _____    ______ ____
ROOT
ATOM      1  C   UNL     1      -0.708  10.959  20.502  0.00  0.00    +0.000 A 
ATOM      2  C   UNL     1      -0.137  11.395  19.290  0.00  0.00    +0.000 A 
ATOM      3  C   UNL     1       0.874  10.688  18.633  0.00  0.00    +0.000 A 
ATOM      4  C   UNL     1       1.320   9.499  19.209  0.00  0.00    +0.000 A 
ATOM      5  N   UNL     1       2.266   8.628  18.758  0.00  0.00    +0.000 NA
ATOM      6  C   UNL     1       2.291   7.637  19.618  0.00  0.00    +0.000 A 
ATOM      7  N   UNL     1       3.009   6.493  19.570  0.00  0.00    +0.000 N 
ATOM      8  N   UNL     1       1.430   7.886  20.660  0.00  0.00    +0.000 N 
ATOM      9  C   UNL     1       0.767   9.061  20.403  0.00  0.00    +0.000 A 
ATOM     10  C   UNL     1      -0.240   9.764  21.077  0.00  0.00    +0.000 A 
ATOM     11  H   UNL     1       3.027   5.860  20.359  0.00  0.00    +0.000 HD
ATOM     12  H   UNL     1       1.265   7.277  21.445  0.00  0.00    +0.000 HD
ENDROOT
BRANCH   1  17
ATOM     13  C   UNL     1      -5.164  13.108  23.070  0.00  0.00    +0.000 C 
ATOM     14  N   UNL     1      -3.832  13.125  22.466  0.00  0.00    +0.000 NA
ATOM     15  C   UNL     1      -3.906  12.759  21.032  0.00  0.00    +0.000 C 
ATOM     16  C   UNL     1      -2.515  12.679  20.350  0.00  0.00    +0.000 C 
ATOM     17  N   UNL     1      -1.667  11.753  21.106  0.00  0.00    +0.000 N 
ATOM     18  C   UNL     1      -1.534  12.102  22.531  0.00  0.00    +0.000 C 
ATOM     19  C   UNL     1      -2.937  12.177  23.171  0.00  0.00    +0.000 C 
ENDBRANCH   1  17
BRANCH   7  20
ATOM     20  C   UNL     1       3.635   5.982  18.413  0.00  0.00    +0.000 A 
ATOM     21  C   UNL     1       3.404   4.659  18.025  0.00  0.00    +0.000 A 
ATOM     22  C   UNL     1       4.036   4.123  16.897  0.00  0.00    +0.000 A 
ATOM     23  C   UNL     1       4.915   4.920  16.159  0.00  0.00    +0.000 A 
ATOM     24  N   UNL     1       5.163   6.207  16.514  0.00  0.00    +0.000 NA
ATOM     25  C   UNL     1       4.537   6.693  17.616  0.00  0.00    +0.000 A 
BRANCH  23  26
ATOM     26  C   UNL     1       5.624   4.361  14.936  0.00  0.00    +0.000 C 
ATOM     27  F   UNL     1       4.792   4.190  13.864  0.00  0.00    +0.000 F 
ATOM     28  F   UNL     1       6.630   5.163  14.482  0.00  0.00    +0.000 F 
ATOM     29  F   UNL     1       6.184   3.135  15.151  0.00  0.00    +0.000 F 
ENDBRANCH  23  26
ENDBRANCH   7  20
TORSDOF 3
ENDMDL
MODEL 4
REMARK VINA RESULT:      -7.6      0.674      1.213
REMARK  Name = 
REMARK  4 active torsions:
REMARK  status: ('A' for Active; 'I' for Inactive)
REMARK    1  A    between atoms: C_1  and  N_2
REMARK    2  A    between atoms: N_5  and  C_6
REMARK    3  A    between atoms: N_12  and  C_13
REMARK    4  A    between atoms: C_16  and  C_17
REMARK                            x       y       z     vdW  Elec       q    Type
REMARK                         _______ _______ _______ _____ _____    ______ ____
ROOT
ATOM      1  C   UNL     1       2.726   7.497  18.681  0.00  0.00    +0.000 A 
ATOM      2  C   UNL     1       2.209   7.392  19.988  0.00  0.00    +0.000 A 
ATOM      3  C   UNL     1       1.221   8.250  20.481  0.00  0.00    +0.000 A 
ATOM      4  C   UNL     1       0.732   9.240  19.630  0.00  0.00    +0.000 A 
ATOM      5  N   UNL     1      -0.235  10.172  19.864  0.00  0.00    +0.000 NA
ATOM      6  C   UNL     1      -0.377  10.841  18.744  0.00  0.00    +0.000 A 
ATOM      7  N   UNL     1      -1.265  11.816  18.447  0.00  0.00    +0.000 N 
ATOM      8  N   UNL     1       0.533  10.408  17.809  0.00  0.00    +0.000 N 
ATOM      9  C   UNL     1       1.234   9.354  18.343  0.00  0.00    +0.000 A 
ATOM     10  C   UNL     1       2.230   8.508  17.839  0.00  0.00    +0.000 A 
ATOM     11  H   UNL     1      -1.192  12.335  17.582  0.00  0.00    +0.000 HD
ATOM     12  H   UNL     1       0.624  10.759  16.870  0.00  0.00    +0.000 HD
ENDROOT
BRANCH   1  17
ATOM     13  C   UNL     1       7.494   4.732  17.851  0.00  0.00    +0.000 C 
ATOM     14  N   UNL     1       6.058   4.986  17.733  0.00  0.00    +0.000 NA
ATOM     15  C   UNL     1       5.813   6.271  17.035  0.00  0.00    +0.000 C 
ATOM     16  C   UNL     1       4.309   6.640  16.948  0.00  0.00    +0.000 C 
ATOM     17  N   UNL     1       3.739   6.637  18.299  0.00  0.00    +0.000 N 
ATOM     18  C   UNL     1       3.926   5.363  19.015  0.00  0.00    +0.000 C 
ATOM     19  C   UNL     1       5.433   5.029  19.076  0.00  0.00    +0.000 C 
ENDBRANCH   1  17
BRANCH   7  20
ATOM     20  C   UNL     1      -2.440  12.087  19.180  0.00  0.00    +0.000 A 
ATOM     21  C   UNL     1      -2.346  12.618  20.470  0.00  0.00    +0.000 A 
ATOM     22  C   UNL     1      -3.497  12.868  21.226  0.00  0.00    +0.000 A 
ATOM     23  C   UNL     1      -4.751  12.573  20.686  0.00  0.00    +0.000 A 
ATOM     24  N   UNL     1      -4.874  12.052  19.438  0.00  0.00    +0.000 NA
ATOM     25  C   UNL     1      -3.737  11.817  18.734  0.00  0.00    +0.000 A 
BRANCH  23  26
ATOM     26  C   UNL     1      -6.018  12.824  21.490  0.00  0.00    +0.000 C 
ATOM     27  F   UNL     1      -6.973  11.864  21.300  0.00  0.00    +0.000 F 
ATOM     28  F   UNL     1      -5.804  12.853  22.837  0.00  0.00    +0.000 F 
ATOM     29  F   UNL     1      -6.629  14.003  21.177  0.00  0.00    +0.000 F 
ENDBRANCH  23  26
ENDBRANCH   7  20
TORSDOF 3
ENDMDL
MODEL 5
REMARK VINA RESULT:      -7.5      1.265      1.779
REMARK  Name = 
REMARK  4 active torsions:
REMARK  status: ('A' for Active; 'I' for Inactive)
REMARK    1  A    between atoms: C_1  and  N_2
REMARK    2  A    between atoms: N_5  and  C_6
REMARK    3  A    between atoms: N_12  and  C_13
REMARK    4  A    between atoms: C_16  and  C_17
REMARK                            x       y       z     vdW  Elec       q    Type
REMARK                         _______ _______ _______ _____ _____    ______ ____
ROOT
ATOM      1  C   UNL     1       2.853   7.307  18.347  0.00  0.00    +0.000 A 
ATOM      2  C   UNL     1       2.425   7.060  19.667  0.00  0.00    +0.000 A 
ATOM      3  C   UNL     1       1.558   7.915  20.354  0.00  0.00    +0.000 A 
ATOM      4  C   UNL     1       1.101   9.052  19.690  0.00  0.00    +0.000 A 
ATOM      5  N   UNL     1       0.243  10.016  20.129  0.00  0.00    +0.000 NA
ATOM      6  C   UNL     1       0.082  10.847  19.126  0.00  0.00    +0.000 A 
ATOM      7  N   UNL     1      -0.731  11.923  19.040  0.00  0.00    +0.000 N 
ATOM      8  N   UNL     1       0.878  10.480  18.067  0.00  0.00    +0.000 N 
ATOM      9  C   UNL     1       1.517   9.308  18.392  0.00  0.00    +0.000 A 
ATOM     10  C   UNL     1       2.391   8.464  17.695  0.00  0.00    +0.000 A 
ATOM     11  H   UNL     1      -0.675  12.553  18.251  0.00  0.00    +0.000 HD
ATOM     12  H   UNL     1       0.932  10.953  17.180  0.00  0.00    +0.000 HD
ENDROOT
BRANCH   1  17
ATOM     13  C   UNL     1       5.764   3.895  15.039  0.00  0.00    +0.000 C 
ATOM     14  N   UNL     1       5.481   4.658  16.254  0.00  0.00    +0.000 NA
ATOM     15  C   UNL     1       4.222   4.190  16.881  0.00  0.00    +0.000 C 
ATOM     16  C   UNL     1       3.822   5.013  18.133  0.00  0.00    +0.000 C 
ATOM     17  N   UNL     1       3.753   6.431  17.767  0.00  0.00    +0.000 N 
ATOM     18  C   UNL     1       4.998   6.950  17.175  0.00  0.00    +0.000 C 
ATOM     19  C   UNL     1       5.365   6.102  15.938  0.00  0.00    +0.000 C 
ENDBRANCH   1  17
BRANCH   7  20
ATOM     20  C   UNL     1      -1.820  12.181  19.901  0.00  0.00    +0.000 A 
ATOM     21  C   UNL     1      -3.117  12.233  19.383  0.00  0.00    +0.000 A 
ATOM     22  C   UNL     1      -4.209  12.515  20.213  0.00  0.00    +0.000 A 
ATOM     23  C   UNL     1      -3.993  12.755  21.572  0.00  0.00    +0.000 A 
ATOM     24  N   UNL     1      -2.745  12.716  22.104  0.00  0.00    +0.000 NA
ATOM     25  C   UNL     1      -1.709  12.444  21.269  0.00  0.00    +0.000 A 
BRANCH  23  26
ATOM     26  C   UNL     1      -5.159  13.074  22.495  0.00  0.00    +0.000 C 
ATOM     27  F   UNL     1      -4.916  12.747  23.800  0.00  0.00    +0.000 F 
ATOM     28  F   UNL     1      -5.484  14.399  22.514  0.00  0.00    +0.000 F 
ATOM     29  F   UNL     1      -6.304  12.408  22.167  0.00  0.00    +0.000 F 
ENDBRANCH  23  26
ENDBRANCH   7  20
TORSDOF 3
ENDMDL
MODEL 6
REMARK VINA RESULT:      -7.5      4.075      4.942
REMARK  Name = 
REMARK  4 active torsions:
REMARK  status: ('A' for Active; 'I' for Inactive)
REMARK    1  A    between atoms: C_1  and  N_2
REMARK    2  A    between atoms: N_5  and  C_6
REMARK    3  A    between atoms: N_12  and  C_13
REMARK    4  A    between atoms: C_16  and  C_17
REMARK                            x       y       z     vdW  Elec       q    Type
REMARK                         _______ _______ _______ _____ _____    ______ ____
ROOT
ATOM      1  C   UNL     1       2.311   6.959  19.240  0.00  0.00    +0.000 A 
ATOM      2  C   UNL     1       2.491   7.571  17.984  0.00  0.00    +0.000 A 
ATOM      3  C   UNL     1       2.132   8.898  17.730  0.00  0.00    +0.000 A 
ATOM      4  C   UNL     1       1.579   9.636  18.776  0.00  0.00    +0.000 A 
ATOM      5  N   UNL     1       1.174  10.937  18.789  0.00  0.00    +0.000 NA
ATOM      6  C   UNL     1       0.776  11.185  20.015  0.00  0.00    +0.000 A 
ATOM      7  N   UNL     1       0.356  12.354  20.549  0.00  0.00    +0.000 N 
ATOM      8  N   UNL     1       0.848  10.046  20.781  0.00  0.00    +0.000 N 
ATOM      9  C   UNL     1       1.394   9.044  20.017  0.00  0.00    +0.000 A 
ATOM     10  C   UNL     1       1.742   7.713  20.282  0.00  0.00    +0.000 A 
ATOM     11  H   UNL     1      -0.036  12.386  21.480  0.00  0.00    +0.000 HD
ATOM     12  H   UNL     1       0.603   9.976  21.755  0.00  0.00    +0.000 HD
ENDROOT
BRANCH   1  17
ATOM     13  C   UNL     1       3.511   1.552  18.614  0.00  0.00    +0.000 C 
ATOM     14  N   UNL     1       3.368   2.814  19.339  0.00  0.00    +0.000 NA
ATOM     15  C   UNL     1       1.958   3.269  19.320  0.00  0.00    +0.000 C 
ATOM     16  C   UNL     1       1.752   4.646  20.004  0.00  0.00    +0.000 C 
ATOM     17  N   UNL     1       2.649   5.625  19.382  0.00  0.00    +0.000 N 
ATOM     18  C   UNL     1       4.068   5.231  19.415  0.00  0.00    +0.000 C 
ATOM     19  C   UNL     1       4.230   3.856  18.730  0.00  0.00    +0.000 C 
ENDBRANCH   1  17
BRANCH   7  20
ATOM     20  C   UNL     1       0.572  13.625  19.975  0.00  0.00    +0.000 A 
ATOM     21  C   UNL     1      -0.458  14.252  19.268  0.00  0.00    +0.000 A 
ATOM     22  C   UNL     1      -0.257  15.500  18.667  0.00  0.00    +0.000 A 
ATOM     23  C   UNL     1       0.991  16.118  18.769  0.00  0.00    +0.000 A 
ATOM     24  N   UNL     1       2.012  15.533  19.445  0.00  0.00    +0.000 NA
ATOM     25  C   UNL     1       1.785  14.320  20.012  0.00  0.00    +0.000 A 
BRANCH  23  26
ATOM     26  C   UNL     1       1.240  17.469  18.117  0.00  0.00    +0.000 C 
ATOM     27  F   UNL     1       2.290  17.457  17.240  0.00  0.00    +0.000 F 
ATOM     28  F   UNL     1       0.177  17.923  17.393  0.00  0.00    +0.000 F 
ATOM     29  F   UNL     1       1.536  18.454  19.013  0.00  0.00    +0.000 F 
ENDBRANCH  23  26
ENDBRANCH   7  20
TORSDOF 3
ENDMDL
MODEL 7
REMARK VINA RESULT:      -7.5      5.455     10.241
REMARK  Name = 
REMARK  4 active torsions:
REMARK  status: ('A' for Active; 'I' for Inactive)
REMARK    1  A    between atoms: C_1  and  N_2
REMARK    2  A    between atoms: N_5  and  C_6
REMARK    3  A    between atoms: N_12  and  C_13
REMARK    4  A    between atoms: C_16  and  C_17
REMARK                            x       y       z     vdW  Elec       q    Type
REMARK                         _______ _______ _______ _____ _____    ______ ____
ROOT
ATOM      1  C   UNL     1      -0.615  11.923  20.079  0.00  0.00    +0.000 A 
ATOM      2  C   UNL     1      -0.090  11.646  18.801  0.00  0.00    +0.000 A 
ATOM      3  C   UNL     1       0.653  10.496  18.520  0.00  0.00    +0.000 A 
ATOM      4  C   UNL     1       0.869   9.590  19.558  0.00  0.00    +0.000 A 
ATOM      5  N   UNL     1       1.533   8.400  19.535  0.00  0.00    +0.000 NA
ATOM      6  C   UNL     1       1.419   7.893  20.740  0.00  0.00    +0.000 A 
ATOM      7  N   UNL     1       1.842   6.694  21.197  0.00  0.00    +0.000 N 
ATOM      8  N   UNL     1       0.756   8.768  21.566  0.00  0.00    +0.000 N 
ATOM      9  C   UNL     1       0.360   9.852  20.821  0.00  0.00    +0.000 A 
ATOM     10  C   UNL     1      -0.379  11.005  21.118  0.00  0.00    +0.000 A 
ATOM     11  H   UNL     1       1.797   6.470  22.183  0.00  0.00    +0.000 HD
ATOM     12  H   UNL     1       0.538   8.611  22.537  0.00  0.00    +0.000 HD
ENDROOT
BRANCH   1  17
ATOM     13  C   UNL     1      -2.781  16.712  21.933  0.00  0.00    +0.000 C 
ATOM     14  N   UNL     1      -2.525  15.648  20.963  0.00  0.00    +0.000 NA
ATOM     15  C   UNL     1      -3.050  14.354  21.459  0.00  0.00    +0.000 C 
ATOM     16  C   UNL     1      -2.740  13.166  20.511  0.00  0.00    +0.000 C 
ATOM     17  N   UNL     1      -1.294  13.112  20.274  0.00  0.00    +0.000 N 
ATOM     18  C   UNL     1      -0.736  14.367  19.742  0.00  0.00    +0.000 C 
ATOM     19  C   UNL     1      -1.070  15.524  20.709  0.00  0.00    +0.000 C 
ENDBRANCH   1  17
BRANCH   7  20
ATOM     20  C   UNL     1       2.206   5.602  20.379  0.00  0.00    +0.000 A 
ATOM     21  C   UNL     1       1.339   4.514  20.247  0.00  0.00    +0.000 A 
ATOM     22  C   UNL     1       1.691   3.409  19.464  0.00  0.00    +0.000 A 
ATOM     23  C   UNL     1       2.929   3.393  18.817  0.00  0.00    +0.000 A 
ATOM     24  N   UNL     1       3.795   4.432  18.931  0.00  0.00    +0.000 NA
ATOM     25  C   UNL     1       3.424   5.486  19.702  0.00  0.00    +0.000 A 
BRANCH  23  26
ATOM     26  C   UNL     1       3.343   2.200  17.969  0.00  0.00    +0.000 C 
ATOM     27  F   UNL     1       2.323   1.705  17.204  0.00  0.00    +0.000 F 
ATOM     28  F   UNL     1       4.343   2.487  17.087  0.00  0.00    +0.000 F 
ATOM     29  F   UNL     1       3.782   1.140  18.708  0.00  0.00    +0.000 F 
ENDBRANCH  23  26
ENDBRANCH   7  20
TORSDOF 3
ENDMDL
MODEL 8
REMARK VINA RESULT:      -7.5      1.270      1.891
REMARK  Name = 
REMARK  4 active torsions:
REMARK  status: ('A' for Active; 'I' for Inactive)
REMARK    1  A    between atoms: C_1  and  N_2
REMARK    2  A    between atoms: N_5  and  C_6
REMARK    3  A    between atoms: N_12  and  C_13
REMARK    4  A    between atoms: C_16  and  C_17
REMARK                            x       y       z     vdW  Elec       q    Type
REMARK                         _______ _______ _______ _____ _____    ______ ____
ROOT
ATOM      1  C   UNL     1       2.757   7.375  18.463  0.00  0.00    +0.000 A 
ATOM      2  C   UNL     1       2.302   7.140  19.776  0.00  0.00    +0.000 A 
ATOM      3  C   UNL     1       1.432   8.008  20.442  0.00  0.00    +0.000 A 
ATOM      4  C   UNL     1       1.000   9.146  19.763  0.00  0.00    +0.000 A 
ATOM      5  N   UNL     1       0.144  10.122  20.180  0.00  0.00    +0.000 NA
ATOM      6  C   UNL     1       0.011  10.949  19.170  0.00  0.00    +0.000 A 
ATOM      7  N   UNL     1      -0.789  12.033  19.063  0.00  0.00    +0.000 N 
ATOM      8  N   UNL     1       0.822  10.567  18.128  0.00  0.00    +0.000 N 
ATOM      9  C   UNL     1       1.442   9.390  18.472  0.00  0.00    +0.000 A 
ATOM     10  C   UNL     1       2.320   8.533  17.795  0.00  0.00    +0.000 A 
ATOM     11  H   UNL     1      -0.711  12.658  18.271  0.00  0.00    +0.000 HD
ATOM     12  H   UNL     1       0.898  11.034  17.239  0.00  0.00    +0.000 HD
ENDROOT
BRANCH   1  17
ATOM     13  C   UNL     1       5.668   3.880  15.242  0.00  0.00    +0.000 C 
ATOM     14  N   UNL     1       5.387   4.677  16.435  0.00  0.00    +0.000 NA
ATOM     15  C   UNL     1       4.133   4.222  17.081  0.00  0.00    +0.000 C 
ATOM     16  C   UNL     1       3.734   5.080  18.310  0.00  0.00    +0.000 C 
ATOM     17  N   UNL     1       3.658   6.486  17.904  0.00  0.00    +0.000 N 
ATOM     18  C   UNL     1       4.899   6.992  17.292  0.00  0.00    +0.000 C 
ATOM     19  C   UNL     1       5.264   6.110  16.078  0.00  0.00    +0.000 C 
ENDBRANCH   1  17
BRANCH   7  20
ATOM     20  C   UNL     1      -1.891  12.307  19.902  0.00  0.00    +0.000 A 
ATOM     21  C   UNL     1      -1.680  12.588  21.255  0.00  0.00    +0.000 A 
ATOM     22  C   UNL     1      -2.760  12.835  22.111  0.00  0.00    +0.000 A 
ATOM     23  C   UNL     1      -4.061  12.790  21.606  0.00  0.00    +0.000 A 
ATOM     24  N   UNL     1      -4.298  12.514  20.297  0.00  0.00    +0.000 NA
ATOM     25  C   UNL     1      -3.229  12.275  19.496  0.00  0.00    +0.000 A 
BRANCH  23  26
ATOM     26  C   UNL     1      -5.253  13.043  22.515  0.00  0.00    +0.000 C 
ATOM     27  F   UNL     1      -6.372  12.352  22.140  0.00  0.00    +0.000 F 
ATOM     28  F   UNL     1      -5.029  12.680  23.811  0.00  0.00    +0.000 F 
ATOM     29  F   UNL     1      -5.637  14.352  22.549  0.00  0.00    +0.000 F 
ENDBRANCH  23  26
ENDBRANCH   7  20
TORSDOF 3
ENDMDL
MODEL 9
REMARK VINA RESULT:      -7.4      4.015      4.953
REMARK  Name = 
REMARK  4 active torsions:
REMARK  status: ('A' for Active; 'I' for Inactive)
REMARK    1  A    between atoms: C_1  and  N_2
REMARK    2  A    between atoms: N_5  and  C_6
REMARK    3  A    between atoms: N_12  and  C_13
REMARK    4  A    between atoms: C_16  and  C_17
REMARK                            x       y       z     vdW  Elec       q    Type
REMARK                         _______ _______ _______ _____ _____    ______ ____
ROOT
ATOM      1  C   UNL     1       2.332   6.940  19.240  0.00  0.00    +0.000 A 
ATOM      2  C   UNL     1       2.480   7.543  17.975  0.00  0.00    +0.000 A 
ATOM      3  C   UNL     1       2.096   8.862  17.716  0.00  0.00    +0.000 A 
ATOM      4  C   UNL     1       1.551   9.601  18.765  0.00  0.00    +0.000 A 
ATOM      5  N   UNL     1       1.126  10.896  18.773  0.00  0.00    +0.000 NA
ATOM      6  C   UNL     1       0.747  11.149  20.004  0.00  0.00    +0.000 A 
ATOM      7  N   UNL     1       0.319  12.316  20.534  0.00  0.00    +0.000 N 
ATOM      8  N   UNL     1       0.849  10.019  20.779  0.00  0.00    +0.000 N 
ATOM      9  C   UNL     1       1.398   9.018  20.014  0.00  0.00    +0.000 A 
ATOM     10  C   UNL     1       1.771   7.695  20.286  0.00  0.00    +0.000 A 
ATOM     11  H   UNL     1      -0.058  12.351  21.473  0.00  0.00    +0.000 HD
ATOM     12  H   UNL     1       0.623   9.954  21.758  0.00  0.00    +0.000 HD
ENDROOT
BRANCH   1  17
ATOM     13  C   UNL     1       3.555   1.534  18.651  0.00  0.00    +0.000 C 
ATOM     14  N   UNL     1       3.440   2.809  19.358  0.00  0.00    +0.000 NA
ATOM     15  C   UNL     1       2.026   3.249  19.413  0.00  0.00    +0.000 C 
ATOM     16  C   UNL     1       1.845   4.637  20.081  0.00  0.00    +0.000 C 
ATOM     17  N   UNL     1       2.693   5.613  19.388  0.00  0.00    +0.000 N 
ATOM     18  C   UNL     1       4.115   5.233  19.345  0.00  0.00    +0.000 C 
ATOM     19  C   UNL     1       4.253   3.847  18.680  0.00  0.00    +0.000 C 
ENDBRANCH   1  17
BRANCH   7  20
ATOM     20  C   UNL     1       0.505  13.586  19.945  0.00  0.00    +0.000 A 
ATOM     21  C   UNL     1       1.690  14.290  20.175  0.00  0.00    +0.000 A 
ATOM     22  C   UNL     1       1.884  15.563  19.624  0.00  0.00    +0.000 A 
ATOM     23  C   UNL     1       0.876  16.134  18.845  0.00  0.00    +0.000 A 
ATOM     24  N   UNL     1      -0.288  15.476  18.608  0.00  0.00    +0.000 NA
ATOM     25  C   UNL     1      -0.445  14.247  19.161  0.00  0.00    +0.000 A 
BRANCH  23  26
ATOM     26  C   UNL     1       1.055  17.520  18.243  0.00  0.00    +0.000 C 
ATOM     27  F   UNL     1      -0.111  18.057  17.773  0.00  0.00    +0.000 F 
ATOM     28  F   UNL     1       1.536  18.436  19.133  0.00  0.00    +0.000 F 
ATOM     29  F   UNL     1       1.910  17.539  17.180  0.00  0.00    +0.000 F 
ENDBRANCH  23  26
ENDBRANCH   7  20
TORSDOF 3
ENDMDL
