MODEL 1
REMARK VINA RESULT:      -6.6      0.000      0.000
REMARK  Name = 
REMARK  13 active torsions:
REMARK  status: ('A' for Active; 'I' for Inactive)
REMARK    1  A    between atoms: C_1  and  C_2
REMARK    2  A    between atoms: N_4  and  C_5
REMARK    3  A    between atoms: C_6  and  O_7
REMARK    4  A    between atoms: C_9  and  O_10
REMARK    5  A    between atoms: C_9  and  P_11
REMARK    6  A    between atoms: P_11  and  O_13
REMARK    7  A    between atoms: P_11  and  O_14
REMARK    8  A    between atoms: C_16  and  C_17
REMARK    9  A    between atoms: C_17  and  O_18
REMARK   10  A    between atoms: C_17  and  C_19
REMARK   11  A    between atoms: C_19  and  O_20
REMARK   12  A    between atoms: C_19  and  C_21
REMARK   13  A    between atoms: C_21  and  O_22
REMARK                            x       y       z     vdW  Elec       q    Type
REMARK                         _______ _______ _______ _____ _____    ______ ____
ROOT
ATOM      1  C   UNL     1       3.243   5.976  18.057  0.00  0.00    +0.000 C 
ATOM      2  C   UNL     1       2.432   4.713  17.736  0.00  0.00    +0.000 C 
ATOM      3  C   UNL     1       1.788   4.148  18.997  0.00  0.00    +0.000 C 
ATOM      4  C   UNL     1       2.762   3.987  20.175  0.00  0.00    +0.000 C 
ATOM      5  O   UNL     1       3.548   5.177  20.381  0.00  0.00    +0.000 OA
ATOM      6  C   UNL     1       4.237   5.754  19.243  0.00  0.00    +0.000 C 
ENDROOT
BRANCH   1  10
ATOM      7  C   UNL     1       1.187   9.174  18.206  0.00  0.00    +0.000 C 
ATOM      8  C   UNL     1       2.323   8.283  17.781  0.00  0.00    +0.000 C 
ATOM      9  O   UNL     1       3.179   8.627  16.971  0.00  0.00    +0.000 OA
ATOM     10  N   UNL     1       2.294   7.053  18.379  0.00  0.00    +0.000 N 
ATOM     11  H   UNL     1       1.741   6.962  19.222  0.00  0.00    +0.000 HD
ENDBRANCH   1  10
BRANCH   2  12
ATOM     12  O   UNL     1       3.188   3.769  16.992  0.00  0.00    +0.000 OA
ATOM     13  H   UNL     1       3.667   3.146  17.567  0.00  0.00    +0.000 HD
ENDBRANCH   2  12
BRANCH   4  14
ATOM     14  O   UNL     1       1.957   3.751  21.342  0.00  0.00    +0.000 OA
ATOM     15  H   UNL     1       1.588   4.642  21.537  0.00  0.00    +0.000 HD
ENDBRANCH   4  14
BRANCH   4  16
ATOM     16  P   UNL     1       3.949   2.612  19.950  0.00  0.00    +0.000 P 
ATOM     17  O   UNL     1       3.763   2.122  21.401  0.00  0.00    +0.000 OA
BRANCH  16  18
ATOM     18  O   UNL     1       2.863   1.676  19.143  0.00  0.00    +0.000 OA
ATOM     19  H   UNL     1       3.307   1.214  18.405  0.00  0.00    +0.000 HD
ENDBRANCH  16  18
BRANCH  16  20
ATOM     20  O   UNL     1       5.071   1.313  19.736  0.00  0.00    +0.000 OA
ATOM     21  H   UNL     1       5.512   1.238  20.608  0.00  0.00    +0.000 HD
ENDBRANCH  16  20
ENDBRANCH   4  16
BRANCH   6  22
ATOM     22  C   UNL     1       5.605   5.103  18.787  0.00  0.00    +0.000 C 
BRANCH  22  23
ATOM     23  O   UNL     1       6.604   5.221  19.800  0.00  0.00    +0.000 OA
ATOM     24  H   UNL     1       6.903   6.152  19.887  0.00  0.00    +0.000 HD
ENDBRANCH  22  23
BRANCH  22  25
ATOM     25  C   UNL     1       6.182   5.616  17.451  0.00  0.00    +0.000 C 
BRANCH  25  26
ATOM     26  O   UNL     1       7.146   6.637  17.727  0.00  0.00    +0.000 OA
ATOM     27  H   UNL     1       7.722   6.699  16.935  0.00  0.00    +0.000 HD
ENDBRANCH  25  26
BRANCH  25  28
ATOM     28  C   UNL     1       6.920   4.509  16.666  0.00  0.00    +0.000 C 
BRANCH  28  29
ATOM     29  O   UNL     1       8.096   4.135  17.388  0.00  0.00    +0.000 OA
ATOM     30  H   UNL     1       8.494   4.945  17.751  0.00  0.00    +0.000 HD
ENDBRANCH  28  29
ENDBRANCH  25  28
ENDBRANCH  22  25
ENDBRANCH   6  22
TORSDOF 12
ENDMDL
MODEL 2
REMARK VINA RESULT:      -6.5      1.110      1.112
REMARK  Name = 
REMARK  13 active torsions:
REMARK  status: ('A' for Active; 'I' for Inactive)
REMARK    1  A    between atoms: C_1  and  C_2
REMARK    2  A    between atoms: N_4  and  C_5
REMARK    3  A    between atoms: C_6  and  O_7
REMARK    4  A    between atoms: C_9  and  O_10
REMARK    5  A    between atoms: C_9  and  P_11
REMARK    6  A    between atoms: P_11  and  O_13
REMARK    7  A    between atoms: P_11  and  O_14
REMARK    8  A    between atoms: C_16  and  C_17
REMARK    9  A    between atoms: C_17  and  O_18
REMARK   10  A    between atoms: C_17  and  C_19
REMARK   11  A    between atoms: C_19  and  O_20
REMARK   12  A    between atoms: C_19  and  C_21
REMARK   13  A    between atoms: C_21  and  O_22
REMARK                            x       y       z     vdW  Elec       q    Type
REMARK                         _______ _______ _______ _____ _____    ______ ____
ROOT
ATOM      1  C   UNL     1       2.845   5.793  17.915  0.00  0.00    +0.000 C 
ATOM      2  C   UNL     1       1.772   4.696  17.908  0.00  0.00    +0.000 C 
ATOM      3  C   UNL     1       1.600   4.097  19.299  0.00  0.00    +0.000 C 
ATOM      4  C   UNL     1       2.921   3.680  19.965  0.00  0.00    +0.000 C 
ATOM      5  O   UNL     1       3.913   4.722  19.877  0.00  0.00    +0.000 OA
ATOM      6  C   UNL     1       4.177   5.312  18.579  0.00  0.00    +0.000 C 
ENDROOT
BRANCH   1  10
ATOM      7  C   UNL     1       1.571   9.207  19.012  0.00  0.00    +0.000 C 
ATOM      8  C   UNL     1       2.268   8.216  18.119  0.00  0.00    +0.000 C 
ATOM      9  O   UNL     1       2.746   8.517  17.029  0.00  0.00    +0.000 OA
ATOM     10  N   UNL     1       2.301   6.952  18.641  0.00  0.00    +0.000 N 
ATOM     11  H   UNL     1       2.147   6.859  19.637  0.00  0.00    +0.000 HD
ENDBRANCH   1  10
BRANCH   2  12
ATOM     12  O   UNL     1       1.996   3.738  16.883  0.00  0.00    +0.000 OA
ATOM     13  H   UNL     1       2.885   3.343  16.937  0.00  0.00    +0.000 HD
ENDBRANCH   2  12
BRANCH   4  14
ATOM     14  O   UNL     1       2.622   3.437  21.351  0.00  0.00    +0.000 OA
ATOM     15  H   UNL     1       3.063   2.575  21.522  0.00  0.00    +0.000 HD
ENDBRANCH   4  14
BRANCH   4  16
ATOM     16  P   UNL     1       3.667   2.185  19.219  0.00  0.00    +0.000 P 
ATOM     17  O   UNL     1       4.192   1.683  20.581  0.00  0.00    +0.000 OA
BRANCH  16  18
ATOM     18  O   UNL     1       2.226   1.399  19.111  0.00  0.00    +0.000 OA
ATOM     19  H   UNL     1       1.505   1.983  19.417  0.00  0.00    +0.000 HD
ENDBRANCH  16  18
BRANCH  16  20
ATOM     20  O   UNL     1       4.373   0.772  18.513  0.00  0.00    +0.000 OA
ATOM     21  H   UNL     1       4.688   1.079  17.638  0.00  0.00    +0.000 HD
ENDBRANCH  16  20
ENDBRANCH   4  16
BRANCH   6  22
ATOM     22  C   UNL     1       5.117   4.529  17.576  0.00  0.00    +0.000 C 
BRANCH  22  23
ATOM     23  O   UNL     1       6.375   4.216  18.174  0.00  0.00    +0.000 OA
ATOM     24  H   UNL     1       7.105   4.328  17.527  0.00  0.00    +0.000 HD
ENDBRANCH  22  23
BRANCH  22  25
ATOM     25  C   UNL     1       5.365   5.211  16.214  0.00  0.00    +0.000 C 
BRANCH  25  26
ATOM     26  O   UNL     1       6.008   6.470  16.439  0.00  0.00    +0.000 OA
ATOM     27  H   UNL     1       5.445   7.152  16.014  0.00  0.00    +0.000 HD
ENDBRANCH  25  26
BRANCH  25  28
ATOM     28  C   UNL     1       6.306   4.387  15.307  0.00  0.00    +0.000 C 
BRANCH  28  29
ATOM     29  O   UNL     1       7.657   4.773  15.572  0.00  0.00    +0.000 OA
ATOM     30  H   UNL     1       7.773   4.814  16.536  0.00  0.00    +0.000 HD
ENDBRANCH  28  29
ENDBRANCH  25  28
ENDBRANCH  22  25
ENDBRANCH   6  22
TORSDOF 12
ENDMDL
MODEL 3
REMARK VINA RESULT:      -6.3      2.242      4.755
REMARK  Name = 
REMARK  13 active torsions:
REMARK  status: ('A' for Active; 'I' for Inactive)
REMARK    1  A    between atoms: C_1  and  C_2
REMARK    2  A    between atoms: N_4  and  C_5
REMARK    3  A    between atoms: C_6  and  O_7
REMARK    4  A    between atoms: C_9  and  O_10
REMARK    5  A    between atoms: C_9  and  P_11
REMARK    6  A    between atoms: P_11  and  O_13
REMARK    7  A    between atoms: P_11  and  O_14
REMARK    8  A    between atoms: C_16  and  C_17
REMARK    9  A    between atoms: C_17  and  O_18
REMARK   10  A    between atoms: C_17  and  C_19
REMARK   11  A    between atoms: C_19  and  O_20
REMARK   12  A    between atoms: C_19  and  C_21
REMARK   13  A    between atoms: C_21  and  O_22
REMARK                            x       y       z     vdW  Elec       q    Type
REMARK                         _______ _______ _______ _____ _____    ______ ____
ROOT
ATOM      1  C   UNL     1       3.764   5.068  19.352  0.00  0.00    +0.000 C 
ATOM      2  C   UNL     1       5.291   5.215  19.312  0.00  0.00    +0.000 C 
ATOM      3  C   UNL     1       5.714   6.187  18.216  0.00  0.00    +0.000 C 
ATOM      4  C   UNL     1       5.074   5.901  16.849  0.00  0.00    +0.000 C 
ATOM      5  O   UNL     1       3.651   5.700  16.960  0.00  0.00    +0.000 OA
ATOM      6  C   UNL     1       3.164   4.752  17.943  0.00  0.00    +0.000 C 
ENDROOT
BRANCH   1  10
ATOM      7  C   UNL     1       1.685   7.771  21.040  0.00  0.00    +0.000 C 
ATOM      8  C   UNL     1       1.989   6.399  20.503  0.00  0.00    +0.000 C 
ATOM      9  O   UNL     1       1.226   5.445  20.628  0.00  0.00    +0.000 OA
ATOM     10  N   UNL     1       3.203   6.323  19.876  0.00  0.00    +0.000 N 
ATOM     11  H   UNL     1       3.622   7.193  19.574  0.00  0.00    +0.000 HD
ENDBRANCH   1  10
BRANCH   2  12
ATOM     12  O   UNL     1       5.946   3.956  19.260  0.00  0.00    +0.000 OA
ATOM     13  H   UNL     1       6.901   4.044  19.094  0.00  0.00    +0.000 HD
ENDBRANCH   2  12
BRANCH   4  14
ATOM     14  O   UNL     1       5.320   7.059  16.032  0.00  0.00    +0.000 OA
ATOM     15  H   UNL     1       5.365   6.680  15.125  0.00  0.00    +0.000 HD
ENDBRANCH   4  14
BRANCH   4  16
ATOM     16  P   UNL     1       5.749   4.409  16.032  0.00  0.00    +0.000 P 
ATOM     17  O   UNL     1       5.696   5.065  14.636  0.00  0.00    +0.000 OA
BRANCH  16  18
ATOM     18  O   UNL     1       7.295   4.736  16.492  0.00  0.00    +0.000 OA
ATOM     19  H   UNL     1       7.336   4.856  17.461  0.00  0.00    +0.000 HD
ENDBRANCH  16  18
BRANCH  16  20
ATOM     20  O   UNL     1       6.387   2.999  15.261  0.00  0.00    +0.000 OA
ATOM     21  H   UNL     1       6.528   3.281  14.333  0.00  0.00    +0.000 HD
ENDBRANCH  16  20
ENDBRANCH   4  16
BRANCH   6  22
ATOM     22  C   UNL     1       3.210   3.211  17.586  0.00  0.00    +0.000 C 
BRANCH  22  23
ATOM     23  O   UNL     1       2.306   2.892  16.528  0.00  0.00    +0.000 OA
ATOM     24  H   UNL     1       2.012   1.957  16.591  0.00  0.00    +0.000 HD
ENDBRANCH  22  23
BRANCH  22  25
ATOM     25  C   UNL     1       2.970   2.240  18.761  0.00  0.00    +0.000 C 
BRANCH  25  26
ATOM     26  O   UNL     1       1.688   1.627  18.598  0.00  0.00    +0.000 OA
ATOM     27  H   UNL     1       1.573   1.012  19.354  0.00  0.00    +0.000 HD
ENDBRANCH  25  26
BRANCH  25  28
ATOM     28  C   UNL     1       4.007   1.096  18.799  0.00  0.00    +0.000 C 
BRANCH  28  29
ATOM     29  O   UNL     1       5.016   1.417  19.761  0.00  0.00    +0.000 OA
ATOM     30  H   UNL     1       5.839   1.604  19.278  0.00  0.00    +0.000 HD
ENDBRANCH  28  29
ENDBRANCH  25  28
ENDBRANCH  22  25
ENDBRANCH   6  22
TORSDOF 12
ENDMDL
MODEL 4
REMARK VINA RESULT:      -6.0      1.050      1.363
REMARK  Name = 
REMARK  13 active torsions:
REMARK  status: ('A' for Active; 'I' for Inactive)
REMARK    1  A    between atoms: C_1  and  C_2
REMARK    2  A    between atoms: N_4  and  C_5
REMARK    3  A    between atoms: C_6  and  O_7
REMARK    4  A    between atoms: C_9  and  O_10
REMARK    5  A    between atoms: C_9  and  P_11
REMARK    6  A    between atoms: P_11  and  O_13
REMARK    7  A    between atoms: P_11  and  O_14
REMARK    8  A    between atoms: C_16  and  C_17
REMARK    9  A    between atoms: C_17  and  O_18
REMARK   10  A    between atoms: C_17  and  C_19
REMARK   11  A    between atoms: C_19  and  O_20
REMARK   12  A    between atoms: C_19  and  C_21
REMARK   13  A    between atoms: C_21  and  O_22
REMARK                            x       y       z     vdW  Elec       q    Type
REMARK                         _______ _______ _______ _____ _____    ______ ____
ROOT
ATOM      1  C   UNL     1       2.900   5.885  18.011  0.00  0.00    +0.000 C 
ATOM      2  C   UNL     1       1.836   4.782  17.928  0.00  0.00    +0.000 C 
ATOM      3  C   UNL     1       1.577   4.175  19.302  0.00  0.00    +0.000 C 
ATOM      4  C   UNL     1       2.853   3.762  20.051  0.00  0.00    +0.000 C 
ATOM      5  O   UNL     1       3.843   4.810  20.033  0.00  0.00    +0.000 OA
ATOM      6  C   UNL     1       4.188   5.408  18.758  0.00  0.00    +0.000 C 
ENDROOT
BRANCH   1  10
ATOM      7  C   UNL     1       1.463   9.263  19.012  0.00  0.00    +0.000 C 
ATOM      8  C   UNL     1       2.204   8.282  18.144  0.00  0.00    +0.000 C 
ATOM      9  O   UNL     1       2.660   8.572  17.042  0.00  0.00    +0.000 OA
ATOM     10  N   UNL     1       2.304   7.037  18.704  0.00  0.00    +0.000 N 
ATOM     11  H   UNL     1       2.160   6.967  19.704  0.00  0.00    +0.000 HD
ENDBRANCH   1  10
BRANCH   2  12
ATOM     12  O   UNL     1       2.133   3.831  16.915  0.00  0.00    +0.000 OA
ATOM     13  H   UNL     1       2.287   4.250  16.050  0.00  0.00    +0.000 HD
ENDBRANCH   2  12
BRANCH   4  14
ATOM     14  O   UNL     1       2.465   3.511  21.413  0.00  0.00    +0.000 OA
ATOM     15  H   UNL     1       1.735   2.858  21.315  0.00  0.00    +0.000 HD
ENDBRANCH   4  14
BRANCH   4  16
ATOM     16  P   UNL     1       3.656   2.275  19.349  0.00  0.00    +0.000 P 
ATOM     17  O   UNL     1       4.086   1.766  20.741  0.00  0.00    +0.000 OA
BRANCH  16  18
ATOM     18  O   UNL     1       2.229   1.484  19.135  0.00  0.00    +0.000 OA
ATOM     19  H   UNL     1       2.307   0.852  18.395  0.00  0.00    +0.000 HD
ENDBRANCH  16  18
BRANCH  16  20
ATOM     20  O   UNL     1       4.415   0.870  18.684  0.00  0.00    +0.000 OA
ATOM     21  H   UNL     1       4.354   0.207  19.404  0.00  0.00    +0.000 HD
ENDBRANCH  16  20
ENDBRANCH   4  16
BRANCH   6  22
ATOM     22  C   UNL     1       5.197   4.635  17.816  0.00  0.00    +0.000 C 
BRANCH  22  23
ATOM     23  O   UNL     1       6.200   3.954  18.570  0.00  0.00    +0.000 OA
ATOM     24  H   UNL     1       5.792   3.392  19.264  0.00  0.00    +0.000 HD
ENDBRANCH  22  23
BRANCH  22  25
ATOM     25  C   UNL     1       5.881   5.483  16.722  0.00  0.00    +0.000 C 
BRANCH  25  26
ATOM     26  O   UNL     1       5.049   5.493  15.558  0.00  0.00    +0.000 OA
ATOM     27  H   UNL     1       4.369   6.184  15.706  0.00  0.00    +0.000 HD
ENDBRANCH  25  26
BRANCH  25  28
ATOM     28  C   UNL     1       6.063   6.956  17.150  0.00  0.00    +0.000 C 
BRANCH  28  29
ATOM     29  O   UNL     1       7.440   7.313  17.005  0.00  0.00    +0.000 OA
ATOM     30  H   UNL     1       7.483   8.263  16.804  0.00  0.00    +0.000 HD
ENDBRANCH  28  29
ENDBRANCH  25  28
ENDBRANCH  22  25
ENDBRANCH   6  22
TORSDOF 12
ENDMDL
MODEL 5
REMARK VINA RESULT:      -5.9      1.364      1.417
REMARK  Name = 
REMARK  13 active torsions:
REMARK  status: ('A' for Active; 'I' for Inactive)
REMARK    1  A    between atoms: C_1  and  C_2
REMARK    2  A    between atoms: N_4  and  C_5
REMARK    3  A    between atoms: C_6  and  O_7
REMARK    4  A    between atoms: C_9  and  O_10
REMARK    5  A    between atoms: C_9  and  P_11
REMARK    6  A    between atoms: P_11  and  O_13
REMARK    7  A    between atoms: P_11  and  O_14
REMARK    8  A    between atoms: C_16  and  C_17
REMARK    9  A    between atoms: C_17  and  O_18
REMARK   10  A    between atoms: C_17  and  C_19
REMARK   11  A    between atoms: C_19  and  O_20
REMARK   12  A    between atoms: C_19  and  C_21
REMARK   13  A    between atoms: C_21  and  O_22
REMARK                            x       y       z     vdW  Elec       q    Type
REMARK                         _______ _______ _______ _____ _____    ______ ____
ROOT
ATOM      1  C   UNL     1       2.966   5.981  18.914  0.00  0.00    +0.000 C 
ATOM      2  C   UNL     1       1.843   4.999  18.554  0.00  0.00    +0.000 C 
ATOM      3  C   UNL     1       1.620   3.995  19.679  0.00  0.00    +0.000 C 
ATOM      4  C   UNL     1       2.908   3.322  20.178  0.00  0.00    +0.000 C 
ATOM      5  O   UNL     1       3.949   4.286  20.428  0.00  0.00    +0.000 OA
ATOM      6  C   UNL     1       4.262   5.247  19.389  0.00  0.00    +0.000 C 
ENDROOT
BRANCH   1  10
ATOM      7  C   UNL     1       1.345   8.749  20.961  0.00  0.00    +0.000 C 
ATOM      8  C   UNL     1       1.860   8.073  19.719  0.00  0.00    +0.000 C 
ATOM      9  O   UNL     1       1.737   8.551  18.595  0.00  0.00    +0.000 OA
ATOM     10  N   UNL     1       2.466   6.872  19.972  0.00  0.00    +0.000 N 
ATOM     11  H   UNL     1       2.771   6.699  20.922  0.00  0.00    +0.000 HD
ENDBRANCH   1  10
BRANCH   2  12
ATOM     12  O   UNL     1       2.039   4.411  17.276  0.00  0.00    +0.000 OA
ATOM     13  H   UNL     1       2.757   4.841  16.779  0.00  0.00    +0.000 HD
ENDBRANCH   2  12
BRANCH   4  14
ATOM     14  O   UNL     1       2.574   2.663  21.411  0.00  0.00    +0.000 OA
ATOM     15  H   UNL     1       3.434   2.647  21.890  0.00  0.00    +0.000 HD
ENDBRANCH   4  14
BRANCH   4  16
ATOM     16  P   UNL     1       3.595   2.109  18.992  0.00  0.00    +0.000 P 
ATOM     17  O   UNL     1       4.686   1.653  19.984  0.00  0.00    +0.000 OA
BRANCH  16  18
ATOM     18  O   UNL     1       2.408   1.007  19.277  0.00  0.00    +0.000 OA
ATOM     19  H   UNL     1       2.096   1.086  20.200  0.00  0.00    +0.000 HD
ENDBRANCH  16  18
BRANCH  16  20
ATOM     20  O   UNL     1       4.245   0.964  17.870  0.00  0.00    +0.000 OA
ATOM     21  H   UNL     1       5.207   1.150  17.874  0.00  0.00    +0.000 HD
ENDBRANCH  16  20
ENDBRANCH   4  16
BRANCH   6  22
ATOM     22  C   UNL     1       5.181   4.781  18.188  0.00  0.00    +0.000 C 
BRANCH  22  23
ATOM     23  O   UNL     1       6.325   4.064  18.653  0.00  0.00    +0.000 OA
ATOM     24  H   UNL     1       6.719   4.507  19.436  0.00  0.00    +0.000 HD
ENDBRANCH  22  23
BRANCH  22  25
ATOM     25  C   UNL     1       5.644   5.893  17.223  0.00  0.00    +0.000 C 
BRANCH  25  26
ATOM     26  O   UNL     1       6.697   6.634  17.845  0.00  0.00    +0.000 OA
ATOM     27  H   UNL     1       6.267   7.302  18.421  0.00  0.00    +0.000 HD
ENDBRANCH  25  26
BRANCH  25  28
ATOM     28  C   UNL     1       6.218   5.325  15.906  0.00  0.00    +0.000 C 
BRANCH  28  29
ATOM     29  O   UNL     1       7.559   4.887  16.137  0.00  0.00    +0.000 OA
ATOM     30  H   UNL     1       7.524   3.959  16.427  0.00  0.00    +0.000 HD
ENDBRANCH  28  29
ENDBRANCH  25  28
ENDBRANCH  22  25
ENDBRANCH   6  22
TORSDOF 12
ENDMDL
MODEL 6
REMARK VINA RESULT:      -5.8      2.145      4.914
REMARK  Name = 
REMARK  13 active torsions:
REMARK  status: ('A' for Active; 'I' for Inactive)
REMARK    1  A    between atoms: C_1  and  C_2
REMARK    2  A    between atoms: N_4  and  C_5
REMARK    3  A    between atoms: C_6  and  O_7
REMARK    4  A    between atoms: C_9  and  O_10
REMARK    5  A    between atoms: C_9  and  P_11
REMARK    6  A    between atoms: P_11  and  O_13
REMARK    7  A    between atoms: P_11  and  O_14
REMARK    8  A    between atoms: C_16  and  C_17
REMARK    9  A    between atoms: C_17  and  O_18
REMARK   10  A    between atoms: C_17  and  C_19
REMARK   11  A    between atoms: C_19  and  O_20
REMARK   12  A    between atoms: C_19  and  C_21
REMARK   13  A    between atoms: C_21  and  O_22
REMARK                            x       y       z     vdW  Elec       q    Type
REMARK                         _______ _______ _______ _____ _____    ______ ____
ROOT
ATOM      1  C   UNL     1       3.582   5.179  19.448  0.00  0.00    +0.000 C 
ATOM      2  C   UNL     1       5.110   5.312  19.375  0.00  0.00    +0.000 C 
ATOM      3  C   UNL     1       5.522   6.202  18.209  0.00  0.00    +0.000 C 
ATOM      4  C   UNL     1       4.859   5.827  16.874  0.00  0.00    +0.000 C 
ATOM      5  O   UNL     1       3.437   5.644  17.019  0.00  0.00    +0.000 OA
ATOM      6  C   UNL     1       2.959   4.770  18.073  0.00  0.00    +0.000 C 
ENDROOT
BRANCH   1  10
ATOM      7  C   UNL     1       1.570   8.006  21.010  0.00  0.00    +0.000 C 
ATOM      8  C   UNL     1       1.860   6.594  20.578  0.00  0.00    +0.000 C 
ATOM      9  O   UNL     1       1.116   5.649  20.829  0.00  0.00    +0.000 OA
ATOM     10  N   UNL     1       3.037   6.471  19.892  0.00  0.00    +0.000 N 
ATOM     11  H   UNL     1       3.429   7.315  19.492  0.00  0.00    +0.000 HD
ENDBRANCH   1  10
BRANCH   2  12
ATOM     12  O   UNL     1       5.756   4.047  19.401  0.00  0.00    +0.000 OA
ATOM     13  H   UNL     1       5.121   3.310  19.441  0.00  0.00    +0.000 HD
ENDBRANCH   2  12
BRANCH   4  14
ATOM     14  O   UNL     1       5.099   6.923  15.975  0.00  0.00    +0.000 OA
ATOM     15  H   UNL     1       5.733   7.484  16.478  0.00  0.00    +0.000 HD
ENDBRANCH   4  14
BRANCH   4  16
ATOM     16  P   UNL     1       5.512   4.277  16.153  0.00  0.00    +0.000 P 
ATOM     17  O   UNL     1       5.523   4.865  14.726  0.00  0.00    +0.000 OA
BRANCH  16  18
ATOM     18  O   UNL     1       7.052   4.580  16.646  0.00  0.00    +0.000 OA
ATOM     19  H   UNL     1       7.222   5.543  16.634  0.00  0.00    +0.000 HD
ENDBRANCH  16  18
BRANCH  16  20
ATOM     20  O   UNL     1       6.130   2.812  15.472  0.00  0.00    +0.000 OA
ATOM     21  H   UNL     1       7.017   3.062  15.140  0.00  0.00    +0.000 HD
ENDBRANCH  16  20
ENDBRANCH   4  16
BRANCH   6  22
ATOM     22  C   UNL     1       2.990   3.208  17.823  0.00  0.00    +0.000 C 
BRANCH  22  23
ATOM     23  O   UNL     1       2.398   2.867  16.569  0.00  0.00    +0.000 OA
ATOM     24  H   UNL     1       2.856   2.098  16.166  0.00  0.00    +0.000 HD
ENDBRANCH  22  23
BRANCH  22  25
ATOM     25  C   UNL     1       2.358   2.337  18.929  0.00  0.00    +0.000 C 
BRANCH  25  26
ATOM     26  O   UNL     1       3.074   2.549  20.150  0.00  0.00    +0.000 OA
ATOM     27  H   UNL     1       3.337   3.494  20.159  0.00  0.00    +0.000 HD
ENDBRANCH  25  26
BRANCH  25  28
ATOM     28  C   UNL     1       0.886   2.716  19.206  0.00  0.00    +0.000 C 
BRANCH  28  29
ATOM     29  O   UNL     1       0.718   2.924  20.611  0.00  0.00    +0.000 OA
ATOM     30  H   UNL     1      -0.212   3.160  20.769  0.00  0.00    +0.000 HD
ENDBRANCH  28  29
ENDBRANCH  25  28
ENDBRANCH  22  25
ENDBRANCH   6  22
TORSDOF 12
ENDMDL
MODEL 7
REMARK VINA RESULT:      -5.6      1.558      1.703
REMARK  Name = 
REMARK  13 active torsions:
REMARK  status: ('A' for Active; 'I' for Inactive)
REMARK    1  A    between atoms: C_1  and  C_2
REMARK    2  A    between atoms: N_4  and  C_5
REMARK    3  A    between atoms: C_6  and  O_7
REMARK    4  A    between atoms: C_9  and  O_10
REMARK    5  A    between atoms: C_9  and  P_11
REMARK    6  A    between atoms: P_11  and  O_13
REMARK    7  A    between atoms: P_11  and  O_14
REMARK    8  A    between atoms: C_16  and  C_17
REMARK    9  A    between atoms: C_17  and  O_18
REMARK   10  A    between atoms: C_17  and  C_19
REMARK   11  A    between atoms: C_19  and  O_20
REMARK   12  A    between atoms: C_19  and  C_21
REMARK   13  A    between atoms: C_21  and  O_22
REMARK                            x       y       z     vdW  Elec       q    Type
REMARK                         _______ _______ _______ _____ _____    ______ ____
ROOT
ATOM      1  C   UNL     1       3.054   6.040  19.261  0.00  0.00    +0.000 C 
ATOM      2  C   UNL     1       1.989   5.253  18.484  0.00  0.00    +0.000 C 
ATOM      3  C   UNL     1       1.443   4.105  19.326  0.00  0.00    +0.000 C 
ATOM      4  C   UNL     1       2.531   3.228  19.964  0.00  0.00    +0.000 C 
ATOM      5  O   UNL     1       3.541   4.024  20.615  0.00  0.00    +0.000 OA
ATOM      6  C   UNL     1       4.152   5.106  19.868  0.00  0.00    +0.000 C 
ENDROOT
BRANCH   1  10
ATOM      7  C   UNL     1       1.041   8.507  21.345  0.00  0.00    +0.000 C 
ATOM      8  C   UNL     1       1.751   7.991  20.122  0.00  0.00    +0.000 C 
ATOM      9  O   UNL     1       1.759   8.587  19.049  0.00  0.00    +0.000 OA
ATOM     10  N   UNL     1       2.373   6.790  20.327  0.00  0.00    +0.000 N 
ATOM     11  H   UNL     1       2.555   6.522  21.287  0.00  0.00    +0.000 HD
ENDBRANCH   1  10
BRANCH   2  12
ATOM     12  O   UNL     1       2.445   4.867  17.196  0.00  0.00    +0.000 OA
ATOM     13  H   UNL     1       2.342   3.912  17.040  0.00  0.00    +0.000 HD
ENDBRANCH   2  12
BRANCH   4  14
ATOM     14  O   UNL     1       1.874   2.412  20.949  0.00  0.00    +0.000 OA
ATOM     15  H   UNL     1       1.169   1.965  20.427  0.00  0.00    +0.000 HD
ENDBRANCH   4  14
BRANCH   4  16
ATOM     16  P   UNL     1       3.403   2.164  18.757  0.00  0.00    +0.000 P 
ATOM     17  O   UNL     1       3.833   1.160  19.848  0.00  0.00    +0.000 OA
BRANCH  16  18
ATOM     18  O   UNL     1       2.013   1.478  18.207  0.00  0.00    +0.000 OA
ATOM     19  H   UNL     1       1.253   1.801  18.730  0.00  0.00    +0.000 HD
ENDBRANCH  16  18
BRANCH  16  20
ATOM     20  O   UNL     1       4.228   1.159  17.616  0.00  0.00    +0.000 OA
ATOM     21  H   UNL     1       4.382   0.325  18.105  0.00  0.00    +0.000 HD
ENDBRANCH  16  20
ENDBRANCH   4  16
BRANCH   6  22
ATOM     22  C   UNL     1       5.298   4.752  18.836  0.00  0.00    +0.000 C 
BRANCH  22  23
ATOM     23  O   UNL     1       5.752   3.409  19.000  0.00  0.00    +0.000 OA
ATOM     24  H   UNL     1       5.056   2.853  19.412  0.00  0.00    +0.000 HD
ENDBRANCH  22  23
BRANCH  22  25
ATOM     25  C   UNL     1       6.518   5.697  18.835  0.00  0.00    +0.000 C 
BRANCH  25  26
ATOM     26  O   UNL     1       7.292   5.453  20.014  0.00  0.00    +0.000 OA
ATOM     27  H   UNL     1       6.820   4.757  20.519  0.00  0.00    +0.000 HD
ENDBRANCH  25  26
BRANCH  25  28
ATOM     28  C   UNL     1       7.453   5.448  17.631  0.00  0.00    +0.000 C 
BRANCH  28  29
ATOM     29  O   UNL     1       8.109   4.191  17.807  0.00  0.00    +0.000 OA
ATOM     30  H   UNL     1       9.044   4.367  18.012  0.00  0.00    +0.000 HD
ENDBRANCH  28  29
ENDBRANCH  25  28
ENDBRANCH  22  25
ENDBRANCH   6  22
TORSDOF 12
ENDMDL
MODEL 8
REMARK VINA RESULT:      -5.5      0.998      1.463
REMARK  Name = 
REMARK  13 active torsions:
REMARK  status: ('A' for Active; 'I' for Inactive)
REMARK    1  A    between atoms: C_1  and  C_2
REMARK    2  A    between atoms: N_4  and  C_5
REMARK    3  A    between atoms: C_6  and  O_7
REMARK    4  A    between atoms: C_9  and  O_10
REMARK    5  A    between atoms: C_9  and  P_11
REMARK    6  A    between atoms: P_11  and  O_13
REMARK    7  A    between atoms: P_11  and  O_14
REMARK    8  A    between atoms: C_16  and  C_17
REMARK    9  A    between atoms: C_17  and  O_18
REMARK   10  A    between atoms: C_17  and  C_19
REMARK   11  A    between atoms: C_19  and  O_20
REMARK   12  A    between atoms: C_19  and  C_21
REMARK   13  A    between atoms: C_21  and  O_22
REMARK                            x       y       z     vdW  Elec       q    Type
REMARK                         _______ _______ _______ _____ _____    ______ ____
ROOT
ATOM      1  C   UNL     1       2.813   5.870  17.985  0.00  0.00    +0.000 C 
ATOM      2  C   UNL     1       1.769   4.746  17.936  0.00  0.00    +0.000 C 
ATOM      3  C   UNL     1       1.541   4.157  19.324  0.00  0.00    +0.000 C 
ATOM      4  C   UNL     1       2.836   3.781  20.060  0.00  0.00    +0.000 C 
ATOM      5  O   UNL     1       3.806   4.845  20.010  0.00  0.00    +0.000 OA
ATOM      6  C   UNL     1       4.121   5.429  18.720  0.00  0.00    +0.000 C 
ENDROOT
BRANCH   1  10
ATOM      7  C   UNL     1       1.407   9.263  18.978  0.00  0.00    +0.000 C 
ATOM      8  C   UNL     1       2.174   8.281  18.134  0.00  0.00    +0.000 C 
ATOM      9  O   UNL     1       2.704   8.583  17.068  0.00  0.00    +0.000 OA
ATOM     10  N   UNL     1       2.206   7.022  18.668  0.00  0.00    +0.000 N 
ATOM     11  H   UNL     1       1.999   6.934  19.655  0.00  0.00    +0.000 HD
ENDBRANCH   1  10
BRANCH   2  12
ATOM     12  O   UNL     1       2.068   3.784  16.935  0.00  0.00    +0.000 OA
ATOM     13  H   UNL     1       3.008   3.796  16.682  0.00  0.00    +0.000 HD
ENDBRANCH   2  12
BRANCH   4  14
ATOM     14  O   UNL     1       2.473   3.545  21.431  0.00  0.00    +0.000 OA
ATOM     15  H   UNL     1       3.209   2.979  21.758  0.00  0.00    +0.000 HD
ENDBRANCH   4  14
BRANCH   4  16
ATOM     16  P   UNL     1       3.656   2.297  19.370  0.00  0.00    +0.000 P 
ATOM     17  O   UNL     1       4.064   1.787  20.769  0.00  0.00    +0.000 OA
BRANCH  16  18
ATOM     18  O   UNL     1       2.235   1.502  19.131  0.00  0.00    +0.000 OA
ATOM     19  H   UNL     1       1.948   1.607  18.202  0.00  0.00    +0.000 HD
ENDBRANCH  16  18
BRANCH  16  20
ATOM     20  O   UNL     1       4.430   0.895  18.717  0.00  0.00    +0.000 OA
ATOM     21  H   UNL     1       5.347   0.951  19.059  0.00  0.00    +0.000 HD
ENDBRANCH  16  20
ENDBRANCH   4  16
BRANCH   6  22
ATOM     22  C   UNL     1       5.129   4.659  17.775  0.00  0.00    +0.000 C 
BRANCH  22  23
ATOM     23  O   UNL     1       4.630   3.369  17.418  0.00  0.00    +0.000 OA
ATOM     24  H   UNL     1       4.157   3.404  16.559  0.00  0.00    +0.000 HD
ENDBRANCH  22  23
BRANCH  22  25
ATOM     25  C   UNL     1       6.570   4.509  18.307  0.00  0.00    +0.000 C 
BRANCH  25  26
ATOM     26  O   UNL     1       7.443   4.241  17.206  0.00  0.00    +0.000 OA
ATOM     27  H   UNL     1       7.949   5.065  17.042  0.00  0.00    +0.000 HD
ENDBRANCH  25  26
BRANCH  25  28
ATOM     28  C   UNL     1       7.086   5.802  18.977  0.00  0.00    +0.000 C 
BRANCH  28  29
ATOM     29  O   UNL     1       7.721   5.462  20.212  0.00  0.00    +0.000 OA
ATOM     30  H   UNL     1       7.790   6.272  20.746  0.00  0.00    +0.000 HD
ENDBRANCH  28  29
ENDBRANCH  25  28
ENDBRANCH  22  25
ENDBRANCH   6  22
TORSDOF 12
ENDMDL
MODEL 9
REMARK VINA RESULT:      -5.5      1.295      1.472
REMARK  Name = 
REMARK  13 active torsions:
REMARK  status: ('A' for Active; 'I' for Inactive)
REMARK    1  A    between atoms: C_1  and  C_2
REMARK    2  A    between atoms: N_4  and  C_5
REMARK    3  A    between atoms: C_6  and  O_7
REMARK    4  A    between atoms: C_9  and  O_10
REMARK    5  A    between atoms: C_9  and  P_11
REMARK    6  A    between atoms: P_11  and  O_13
REMARK    7  A    between atoms: P_11  and  O_14
REMARK    8  A    between atoms: C_16  and  C_17
REMARK    9  A    between atoms: C_17  and  O_18
REMARK   10  A    between atoms: C_17  and  C_19
REMARK   11  A    between atoms: C_19  and  O_20
REMARK   12  A    between atoms: C_19  and  C_21
REMARK   13  A    between atoms: C_21  and  O_22
REMARK                            x       y       z     vdW  Elec       q    Type
REMARK                         _______ _______ _______ _____ _____    ______ ____
ROOT
ATOM      1  C   UNL     1       3.324   6.109  18.485  0.00  0.00    +0.000 C 
ATOM      2  C   UNL     1       2.566   5.306  17.419  0.00  0.00    +0.000 C 
ATOM      3  C   UNL     1       1.436   4.499  18.049  0.00  0.00    +0.000 C 
ATOM      4  C   UNL     1       1.867   3.672  19.270  0.00  0.00    +0.000 C 
ATOM      5  O   UNL     1       2.637   4.459  20.200  0.00  0.00    +0.000 OA
ATOM      6  C   UNL     1       3.764   5.218  19.692  0.00  0.00    +0.000 C 
ENDROOT
BRANCH   1  10
ATOM      7  C   UNL     1       1.218   9.255  18.863  0.00  0.00    +0.000 C 
ATOM      8  C   UNL     1       2.240   8.347  18.235  0.00  0.00    +0.000 C 
ATOM      9  O   UNL     1       2.821   8.613  17.186  0.00  0.00    +0.000 OA
ATOM     10  N   UNL     1       2.444   7.194  18.944  0.00  0.00    +0.000 N 
ATOM     11  H   UNL     1       2.149   7.189  19.912  0.00  0.00    +0.000 HD
ENDBRANCH   1  10
BRANCH   2  12
ATOM     12  O   UNL     1       3.443   4.543  16.602  0.00  0.00    +0.000 OA
ATOM     13  H   UNL     1       4.014   5.106  16.050  0.00  0.00    +0.000 HD
ENDBRANCH   2  12
BRANCH   4  14
ATOM     14  O   UNL     1       0.659   3.236  19.916  0.00  0.00    +0.000 OA
ATOM     15  H   UNL     1       0.252   2.646  19.242  0.00  0.00    +0.000 HD
ENDBRANCH   4  14
BRANCH   4  16
ATOM     16  P   UNL     1       2.898   2.224  18.835  0.00  0.00    +0.000 P 
ATOM     17  O   UNL     1       2.123   1.297  19.797  0.00  0.00    +0.000 OA
BRANCH  16  18
ATOM     18  O   UNL     1       2.107   1.962  17.417  0.00  0.00    +0.000 OA
ATOM     19  H   UNL     1       1.919   1.009  17.312  0.00  0.00    +0.000 HD
ENDBRANCH  16  18
BRANCH  16  20
ATOM     20  O   UNL     1       3.873   0.855  18.424  0.00  0.00    +0.000 OA
ATOM     21  H   UNL     1       3.435   0.108  18.882  0.00  0.00    +0.000 HD
ENDBRANCH  16  20
ENDBRANCH   4  16
BRANCH   6  22
ATOM     22  C   UNL     1       5.125   4.455  19.432  0.00  0.00    +0.000 C 
BRANCH  22  23
ATOM     23  O   UNL     1       5.482   3.628  20.539  0.00  0.00    +0.000 OA
ATOM     24  H   UNL     1       4.984   2.782  20.516  0.00  0.00    +0.000 HD
ENDBRANCH  22  23
BRANCH  22  25
ATOM     25  C   UNL     1       6.333   5.342  19.059  0.00  0.00    +0.000 C 
BRANCH  25  26
ATOM     26  O   UNL     1       7.354   5.168  20.045  0.00  0.00    +0.000 OA
ATOM     27  H   UNL     1       8.023   4.567  19.653  0.00  0.00    +0.000 HD
ENDBRANCH  25  26
BRANCH  25  28
ATOM     28  C   UNL     1       6.954   4.946  17.701  0.00  0.00    +0.000 C 
BRANCH  28  29
ATOM     29  O   UNL     1       6.225   3.840  17.163  0.00  0.00    +0.000 OA
ATOM     30  H   UNL     1       6.619   3.023  17.514  0.00  0.00    +0.000 HD
ENDBRANCH  28  29
ENDBRANCH  25  28
ENDBRANCH  22  25
ENDBRANCH   6  22
TORSDOF 12
ENDMDL
