MODEL 1
REMARK VINA RESULT:      -6.0      0.000      0.000
REMARK  Name = 
REMARK  5 active torsions:
REMARK  status: ('A' for Active; 'I' for Inactive)
REMARK    1  A    between atoms: C_1  and  O_2
REMARK    2  A    between atoms: O_2  and  C_3
REMARK    3  A    between atoms: C_6  and  C_7
REMARK    4  A    between atoms: C_7  and  C_8
REMARK    5  A    between atoms: C_11  and  S_12
REMARK                            x       y       z     vdW  Elec       q    Type
REMARK                         _______ _______ _______ _____ _____    ______ ____
ROOT
ATOM      1  C   UNL     1       2.459   4.562  19.269  0.00  0.00    +0.000 A 
ATOM      2  C   UNL     1       3.449   3.599  19.467  0.00  0.00    +0.000 A 
ATOM      3  C   UNL     1       4.756   3.822  19.023  0.00  0.00    +0.000 A 
ATOM      4  C   UNL     1       5.090   5.013  18.366  0.00  0.00    +0.000 A 
ATOM      5  C   UNL     1       4.083   5.962  18.143  0.00  0.00    +0.000 A 
ATOM      6  C   UNL     1       2.775   5.739  18.593  0.00  0.00    +0.000 A 
ENDROOT
BRANCH   1   8
ATOM      7  C   UNL     1       0.854   2.860  19.616  0.00  0.00    +0.000 C 
ATOM      8  O   UNL     1       1.219   4.230  19.741  0.00  0.00    +0.000 OA
ENDBRANCH   1   8
BRANCH   4   9
ATOM      9  C   UNL     1       6.508   5.269  17.910  0.00  0.00    +0.000 C 
BRANCH   9  10
ATOM     10  C   UNL     1       6.727   5.046  16.448  0.00  0.00    +0.000 A 
ATOM     11  N   UNL     1       7.494   5.796  15.679  0.00  0.00    +0.000 NA
ATOM     12  N   UNL     1       7.439   5.406  14.353  0.00  0.00    +0.000 NA
ATOM     13  C   UNL     1       6.635   4.384  14.176  0.00  0.00    +0.000 A 
ATOM     14  S   UNL     1       5.894   3.800  15.602  0.00  0.00    +0.000 S 
BRANCH  13  15
ATOM     15  S   UNL     1       6.349   3.716  12.590  0.00  0.00    +0.000 S 
ATOM     16  H   UNL     1       6.529   2.435  12.940  0.00  0.00    +0.000 HD
ENDBRANCH  13  15
ENDBRANCH   9  10
ENDBRANCH   4   9
TORSDOF 4
ENDMDL
MODEL 2
REMARK VINA RESULT:      -6.0      2.300      2.922
REMARK  Name = 
REMARK  5 active torsions:
REMARK  status: ('A' for Active; 'I' for Inactive)
REMARK    1  A    between atoms: C_1  and  O_2
REMARK    2  A    between atoms: O_2  and  C_3
REMARK    3  A    between atoms: C_6  and  C_7
REMARK    4  A    between atoms: C_7  and  C_8
REMARK    5  A    between atoms: C_11  and  S_12
REMARK                            x       y       z     vdW  Elec       q    Type
REMARK                         _______ _______ _______ _____ _____    ______ ____
ROOT
ATOM      1  C   UNL     1       1.811   3.402  19.588  0.00  0.00    +0.000 A 
ATOM      2  C   UNL     1       3.175   3.410  19.886  0.00  0.00    +0.000 A 
ATOM      3  C   UNL     1       4.123   3.570  18.871  0.00  0.00    +0.000 A 
ATOM      4  C   UNL     1       3.718   3.718  17.538  0.00  0.00    +0.000 A 
ATOM      5  C   UNL     1       2.349   3.677  17.243  0.00  0.00    +0.000 A 
ATOM      6  C   UNL     1       1.401   3.521  18.262  0.00  0.00    +0.000 A 
ENDROOT
BRANCH   1   8
ATOM      7  C   UNL     1       1.558   2.602  21.800  0.00  0.00    +0.000 C 
ATOM      8  O   UNL     1       0.981   3.233  20.662  0.00  0.00    +0.000 OA
ENDBRANCH   1   8
BRANCH   4   9
ATOM      9  C   UNL     1       4.740   3.920  16.442  0.00  0.00    +0.000 C 
BRANCH   9  10
ATOM     10  C   UNL     1       5.817   4.898  16.786  0.00  0.00    +0.000 A 
ATOM     11  N   UNL     1       7.041   4.572  17.158  0.00  0.00    +0.000 NA
ATOM     12  N   UNL     1       7.794   5.681  17.496  0.00  0.00    +0.000 NA
ATOM     13  C   UNL     1       7.111   6.795  17.368  0.00  0.00    +0.000 A 
ATOM     14  S   UNL     1       5.507   6.592  16.811  0.00  0.00    +0.000 S 
BRANCH  13  15
ATOM     15  S   UNL     1       7.810   8.341  17.770  0.00  0.00    +0.000 S 
ATOM     16  H   UNL     1       6.968   8.622  18.775  0.00  0.00    +0.000 HD
ENDBRANCH  13  15
ENDBRANCH   9  10
ENDBRANCH   4   9
TORSDOF 4
ENDMDL
MODEL 3
REMARK VINA RESULT:      -6.0      0.400      1.278
REMARK  Name = 
REMARK  5 active torsions:
REMARK  status: ('A' for Active; 'I' for Inactive)
REMARK    1  A    between atoms: C_1  and  O_2
REMARK    2  A    between atoms: O_2  and  C_3
REMARK    3  A    between atoms: C_6  and  C_7
REMARK    4  A    between atoms: C_7  and  C_8
REMARK    5  A    between atoms: C_11  and  S_12
REMARK                            x       y       z     vdW  Elec       q    Type
REMARK                         _______ _______ _______ _____ _____    ______ ____
ROOT
ATOM      1  C   UNL     1       2.461   4.062  19.128  0.00  0.00    +0.000 A 
ATOM      2  C   UNL     1       2.562   5.157  18.268  0.00  0.00    +0.000 A 
ATOM      3  C   UNL     1       3.813   5.625  17.859  0.00  0.00    +0.000 A 
ATOM      4  C   UNL     1       4.986   5.007  18.311  0.00  0.00    +0.000 A 
ATOM      5  C   UNL     1       4.878   3.929  19.199  0.00  0.00    +0.000 A 
ATOM      6  C   UNL     1       3.622   3.458  19.605  0.00  0.00    +0.000 A 
ENDROOT
BRANCH   1   8
ATOM      7  C   UNL     1       0.704   2.500  18.866  0.00  0.00    +0.000 C 
ATOM      8  O   UNL     1       1.185   3.699  19.462  0.00  0.00    +0.000 OA
ENDBRANCH   1   8
BRANCH   4   9
ATOM      9  C   UNL     1       6.340   5.495  17.848  0.00  0.00    +0.000 C 
BRANCH   9  10
ATOM     10  C   UNL     1       6.640   5.189  16.415  0.00  0.00    +0.000 A 
ATOM     11  N   UNL     1       7.472   5.878  15.656  0.00  0.00    +0.000 NA
ATOM     12  N   UNL     1       7.485   5.419  14.351  0.00  0.00    +0.000 NA
ATOM     13  C   UNL     1       6.664   4.409  14.178  0.00  0.00    +0.000 A 
ATOM     14  S   UNL     1       5.823   3.921  15.584  0.00  0.00    +0.000 S 
BRANCH  13  15
ATOM     15  S   UNL     1       6.454   3.666  12.615  0.00  0.00    +0.000 S 
ATOM     16  H   UNL     1       6.953   4.687  11.904  0.00  0.00    +0.000 HD
ENDBRANCH  13  15
ENDBRANCH   9  10
ENDBRANCH   4   9
TORSDOF 4
ENDMDL
MODEL 4
REMARK VINA RESULT:      -6.0      4.310      6.067
REMARK  Name = 
REMARK  5 active torsions:
REMARK  status: ('A' for Active; 'I' for Inactive)
REMARK    1  A    between atoms: C_1  and  O_2
REMARK    2  A    between atoms: O_2  and  C_3
REMARK    3  A    between atoms: C_6  and  C_7
REMARK    4  A    between atoms: C_7  and  C_8
REMARK    5  A    between atoms: C_11  and  S_12
REMARK                            x       y       z     vdW  Elec       q    Type
REMARK                         _______ _______ _______ _____ _____    ______ ____
ROOT
ATOM      1  C   UNL     1       6.676   6.268  16.662  0.00  0.00    +0.000 A 
ATOM      2  C   UNL     1       6.936   4.988  16.170  0.00  0.00    +0.000 A 
ATOM      3  C   UNL     1       5.924   4.025  16.124  0.00  0.00    +0.000 A 
ATOM      4  C   UNL     1       4.634   4.328  16.578  0.00  0.00    +0.000 A 
ATOM      5  C   UNL     1       4.388   5.605  17.100  0.00  0.00    +0.000 A 
ATOM      6  C   UNL     1       5.403   6.570  17.141  0.00  0.00    +0.000 A 
ENDROOT
BRANCH   1   8
ATOM      7  C   UNL     1       7.717   8.150  17.645  0.00  0.00    +0.000 C 
ATOM      8  O   UNL     1       7.745   7.121  16.663  0.00  0.00    +0.000 OA
ENDBRANCH   1   8
BRANCH   4   9
ATOM      9  C   UNL     1       3.530   3.298  16.503  0.00  0.00    +0.000 C 
BRANCH   9  10
ATOM     10  C   UNL     1       2.728   3.172  17.758  0.00  0.00    +0.000 A 
ATOM     11  N   UNL     1       1.455   3.497  17.875  0.00  0.00    +0.000 NA
ATOM     12  N   UNL     1       0.999   3.356  19.173  0.00  0.00    +0.000 NA
ATOM     13  C   UNL     1       1.944   2.934  19.981  0.00  0.00    +0.000 A 
ATOM     14  S   UNL     1       3.456   2.657  19.232  0.00  0.00    +0.000 S 
BRANCH  13  15
ATOM     15  S   UNL     1       1.649   2.711  21.685  0.00  0.00    +0.000 S 
ATOM     16  H   UNL     1       2.203   3.868  22.078  0.00  0.00    +0.000 HD
ENDBRANCH  13  15
ENDBRANCH   9  10
ENDBRANCH   4   9
TORSDOF 4
ENDMDL
MODEL 5
REMARK VINA RESULT:      -5.9      4.289      6.131
REMARK  Name = 
REMARK  5 active torsions:
REMARK  status: ('A' for Active; 'I' for Inactive)
REMARK    1  A    between atoms: C_1  and  O_2
REMARK    2  A    between atoms: O_2  and  C_3
REMARK    3  A    between atoms: C_6  and  C_7
REMARK    4  A    between atoms: C_7  and  C_8
REMARK    5  A    between atoms: C_11  and  S_12
REMARK                            x       y       z     vdW  Elec       q    Type
REMARK                         _______ _______ _______ _____ _____    ______ ____
ROOT
ATOM      1  C   UNL     1       6.735   6.049  16.574  0.00  0.00    +0.000 A 
ATOM      2  C   UNL     1       5.463   6.428  17.005  0.00  0.00    +0.000 A 
ATOM      3  C   UNL     1       4.399   5.522  16.962  0.00  0.00    +0.000 A 
ATOM      4  C   UNL     1       4.593   4.222  16.478  0.00  0.00    +0.000 A 
ATOM      5  C   UNL     1       5.866   3.859  16.017  0.00  0.00    +0.000 A 
ATOM      6  C   UNL     1       6.931   4.767  16.066  0.00  0.00    +0.000 A 
ENDROOT
BRANCH   1   8
ATOM      7  C   UNL     1       7.870   7.609  17.943  0.00  0.00    +0.000 C 
ATOM      8  O   UNL     1       7.694   7.022  16.659  0.00  0.00    +0.000 OA
ENDBRANCH   1   8
BRANCH   4   9
ATOM      9  C   UNL     1       3.451   3.232  16.456  0.00  0.00    +0.000 C 
BRANCH   9  10
ATOM     10  C   UNL     1       2.690   3.151  17.741  0.00  0.00    +0.000 A 
ATOM     11  N   UNL     1       1.443   3.551  17.905  0.00  0.00    +0.000 NA
ATOM     12  N   UNL     1       1.029   3.435  19.220  0.00  0.00    +0.000 NA
ATOM     13  C   UNL     1       1.977   2.955  19.992  0.00  0.00    +0.000 A 
ATOM     14  S   UNL     1       3.440   2.589  19.186  0.00  0.00    +0.000 S 
BRANCH  13  15
ATOM     15  S   UNL     1       1.734   2.746  21.706  0.00  0.00    +0.000 S 
ATOM     16  H   UNL     1       2.632   1.763  21.858  0.00  0.00    +0.000 HD
ENDBRANCH  13  15
ENDBRANCH   9  10
ENDBRANCH   4   9
TORSDOF 4
ENDMDL
MODEL 6
REMARK VINA RESULT:      -5.9      4.223      5.945
REMARK  Name = 
REMARK  5 active torsions:
REMARK  status: ('A' for Active; 'I' for Inactive)
REMARK    1  A    between atoms: C_1  and  O_2
REMARK    2  A    between atoms: O_2  and  C_3
REMARK    3  A    between atoms: C_6  and  C_7
REMARK    4  A    between atoms: C_7  and  C_8
REMARK    5  A    between atoms: C_11  and  S_12
REMARK                            x       y       z     vdW  Elec       q    Type
REMARK                         _______ _______ _______ _____ _____    ______ ____
ROOT
ATOM      1  C   UNL     1       7.413   6.883  17.936  0.00  0.00    +0.000 A 
ATOM      2  C   UNL     1       7.584   5.551  18.315  0.00  0.00    +0.000 A 
ATOM      3  C   UNL     1       6.654   4.579  17.937  0.00  0.00    +0.000 A 
ATOM      4  C   UNL     1       5.530   4.928  17.177  0.00  0.00    +0.000 A 
ATOM      5  C   UNL     1       5.348   6.273  16.827  0.00  0.00    +0.000 A 
ATOM      6  C   UNL     1       6.284   7.245  17.204  0.00  0.00    +0.000 A 
ENDROOT
BRANCH   1   8
ATOM      7  C   UNL     1       8.217   9.106  17.996  0.00  0.00    +0.000 C 
ATOM      8  O   UNL     1       8.384   7.743  18.369  0.00  0.00    +0.000 OA
ENDBRANCH   1   8
BRANCH   4   9
ATOM      9  C   UNL     1       4.537   3.875  16.743  0.00  0.00    +0.000 C 
BRANCH   9  10
ATOM     10  C   UNL     1       3.749   3.281  17.867  0.00  0.00    +0.000 A 
ATOM     11  N   UNL     1       3.317   2.035  17.907  0.00  0.00    +0.000 NA
ATOM     12  N   UNL     1       2.542   1.789  19.026  0.00  0.00    +0.000 NA
ATOM     13  C   UNL     1       2.420   2.857  19.781  0.00  0.00    +0.000 A 
ATOM     14  S   UNL     1       3.248   4.239  19.207  0.00  0.00    +0.000 S 
BRANCH  13  15
ATOM     15  S   UNL     1       1.459   2.836  21.236  0.00  0.00    +0.000 S 
ATOM     16  H   UNL     1       1.459   1.504  21.388  0.00  0.00    +0.000 HD
ENDBRANCH  13  15
ENDBRANCH   9  10
ENDBRANCH   4   9
TORSDOF 4
ENDMDL
MODEL 7
REMARK VINA RESULT:      -5.9      0.995      1.075
REMARK  Name = 
REMARK  5 active torsions:
REMARK  status: ('A' for Active; 'I' for Inactive)
REMARK    1  A    between atoms: C_1  and  O_2
REMARK    2  A    between atoms: O_2  and  C_3
REMARK    3  A    between atoms: C_6  and  C_7
REMARK    4  A    between atoms: C_7  and  C_8
REMARK    5  A    between atoms: C_11  and  S_12
REMARK                            x       y       z     vdW  Elec       q    Type
REMARK                         _______ _______ _______ _____ _____    ______ ____
ROOT
ATOM      1  C   UNL     1       2.708   3.163  19.236  0.00  0.00    +0.000 A 
ATOM      2  C   UNL     1       4.039   3.114  19.655  0.00  0.00    +0.000 A 
ATOM      3  C   UNL     1       4.992   3.969  19.093  0.00  0.00    +0.000 A 
ATOM      4  C   UNL     1       4.627   4.882  18.096  0.00  0.00    +0.000 A 
ATOM      5  C   UNL     1       3.296   4.903  17.658  0.00  0.00    +0.000 A 
ATOM      6  C   UNL     1       2.342   4.049  18.225  0.00  0.00    +0.000 A 
ENDROOT
BRANCH   1   8
ATOM      7  C   UNL     1       1.358   2.682  21.118  0.00  0.00    +0.000 C 
ATOM      8  O   UNL     1       1.869   2.276  19.853  0.00  0.00    +0.000 OA
ENDBRANCH   1   8
BRANCH   4   9
ATOM      9  C   UNL     1       5.650   5.826  17.507  0.00  0.00    +0.000 C 
BRANCH   9  10
ATOM     10  C   UNL     1       6.199   5.385  16.188  0.00  0.00    +0.000 A 
ATOM     11  N   UNL     1       7.268   5.897  15.607  0.00  0.00    +0.000 NA
ATOM     12  N   UNL     1       7.489   5.353  14.355  0.00  0.00    +0.000 NA
ATOM     13  C   UNL     1       6.580   4.459  14.041  0.00  0.00    +0.000 A 
ATOM     14  S   UNL     1       5.395   4.190  15.244  0.00  0.00    +0.000 S 
BRANCH  13  15
ATOM     15  S   UNL     1       6.598   3.647  12.498  0.00  0.00    +0.000 S 
ATOM     16  H   UNL     1       7.588   4.377  11.965  0.00  0.00    +0.000 HD
ENDBRANCH  13  15
ENDBRANCH   9  10
ENDBRANCH   4   9
TORSDOF 4
ENDMDL
MODEL 8
REMARK VINA RESULT:      -5.7      2.322      3.169
REMARK  Name = 
REMARK  5 active torsions:
REMARK  status: ('A' for Active; 'I' for Inactive)
REMARK    1  A    between atoms: C_1  and  O_2
REMARK    2  A    between atoms: O_2  and  C_3
REMARK    3  A    between atoms: C_6  and  C_7
REMARK    4  A    between atoms: C_7  and  C_8
REMARK    5  A    between atoms: C_11  and  S_12
REMARK                            x       y       z     vdW  Elec       q    Type
REMARK                         _______ _______ _______ _____ _____    ______ ____
ROOT
ATOM      1  C   UNL     1       1.926   2.866  19.571  0.00  0.00    +0.000 A 
ATOM      2  C   UNL     1       1.552   3.805  18.609  0.00  0.00    +0.000 A 
ATOM      3  C   UNL     1       2.432   4.160  17.583  0.00  0.00    +0.000 A 
ATOM      4  C   UNL     1       3.707   3.583  17.509  0.00  0.00    +0.000 A 
ATOM      5  C   UNL     1       4.087   2.665  18.497  0.00  0.00    +0.000 A 
ATOM      6  C   UNL     1       3.201   2.307  19.521  0.00  0.00    +0.000 A 
ENDROOT
BRANCH   1   8
ATOM      7  C   UNL     1       1.435   2.663  21.876  0.00  0.00    +0.000 C 
ATOM      8  O   UNL     1       0.983   2.604  20.528  0.00  0.00    +0.000 OA
ENDBRANCH   1   8
BRANCH   4   9
ATOM      9  C   UNL     1       4.650   3.944  16.385  0.00  0.00    +0.000 C 
BRANCH   9  10
ATOM     10  C   UNL     1       5.736   4.892  16.781  0.00  0.00    +0.000 A 
ATOM     11  N   UNL     1       6.834   4.551  17.428  0.00  0.00    +0.000 NA
ATOM     12  N   UNL     1       7.618   5.648  17.737  0.00  0.00    +0.000 NA
ATOM     13  C   UNL     1       7.080   6.769  17.314  0.00  0.00    +0.000 A 
ATOM     14  S   UNL     1       5.592   6.584  16.493  0.00  0.00    +0.000 S 
BRANCH  13  15
ATOM     15  S   UNL     1       7.841   8.310  17.608  0.00  0.00    +0.000 S 
ATOM     16  H   UNL     1       6.947   9.043  16.929  0.00  0.00    +0.000 HD
ENDBRANCH  13  15
ENDBRANCH   9  10
ENDBRANCH   4   9
TORSDOF 4
ENDMDL
MODEL 9
REMARK VINA RESULT:      -5.7      1.761      2.678
REMARK  Name = 
REMARK  5 active torsions:
REMARK  status: ('A' for Active; 'I' for Inactive)
REMARK    1  A    between atoms: C_1  and  O_2
REMARK    2  A    between atoms: O_2  and  C_3
REMARK    3  A    between atoms: C_6  and  C_7
REMARK    4  A    between atoms: C_7  and  C_8
REMARK    5  A    between atoms: C_11  and  S_12
REMARK                            x       y       z     vdW  Elec       q    Type
REMARK                         _______ _______ _______ _____ _____    ______ ____
ROOT
ATOM      1  C   UNL     1       2.593   7.361  18.578  0.00  0.00    +0.000 A 
ATOM      2  C   UNL     1       3.477   7.710  17.556  0.00  0.00    +0.000 A 
ATOM      3  C   UNL     1       4.647   6.976  17.347  0.00  0.00    +0.000 A 
ATOM      4  C   UNL     1       4.955   5.881  18.166  0.00  0.00    +0.000 A 
ATOM      5  C   UNL     1       4.079   5.556  19.210  0.00  0.00    +0.000 A 
ATOM      6  C   UNL     1       2.905   6.291  19.415  0.00  0.00    +0.000 A 
ENDROOT
BRANCH   1   8
ATOM      7  C   UNL     1       1.542   9.399  17.998  0.00  0.00    +0.000 C 
ATOM      8  O   UNL     1       1.486   8.156  18.689  0.00  0.00    +0.000 OA
ENDBRANCH   1   8
BRANCH   4   9
ATOM      9  C   UNL     1       6.206   5.068  17.924  0.00  0.00    +0.000 C 
BRANCH   9  10
ATOM     10  C   UNL     1       6.545   4.887  16.479  0.00  0.00    +0.000 A 
ATOM     11  N   UNL     1       7.435   5.603  15.818  0.00  0.00    +0.000 NA
ATOM     12  N   UNL     1       7.476   5.271  14.476  0.00  0.00    +0.000 NA
ATOM     13  C   UNL     1       6.618   4.323  14.179  0.00  0.00    +0.000 A 
ATOM     14  S   UNL     1       5.704   3.744  15.503  0.00  0.00    +0.000 S 
BRANCH  13  15
ATOM     15  S   UNL     1       6.433   3.744  12.545  0.00  0.00    +0.000 S 
ATOM     16  H   UNL     1       6.309   4.952  11.978  0.00  0.00    +0.000 HD
ENDBRANCH  13  15
ENDBRANCH   9  10
ENDBRANCH   4   9
TORSDOF 4
ENDMDL
