MODEL 1
REMARK VINA RESULT:      -8.1      0.000      0.000
REMARK  Name = 
REMARK  14 active torsions:
REMARK  status: ('A' for Active; 'I' for Inactive)
REMARK    1  A    between atoms: C_1  and  C_2
REMARK    2  A    between atoms: C_2  and  O_3
REMARK    3  A    between atoms: O_3  and  C_4
REMARK    4  A    between atoms: C_7  and  C_8
REMARK    5  A    between atoms: C_8  and  N_9
REMARK    6  A    between atoms: C_19  and  C_20
REMARK    7  A    between atoms: C_20  and  N_21
REMARK    8  A    between atoms: C_22  and  C_24
REMARK    9  A    between atoms: C_24  and  N_25
REMARK   10  A    between atoms: C_24  and  C_26
REMARK   11  A    between atoms: C_26  and  C_27
REMARK   12  A    between atoms: C_28  and  C_29
REMARK   13  A    between atoms: C_31  and  O_32
REMARK   14  A    between atoms: C_34  and  C_35
REMARK                            x       y       z     vdW  Elec       q    Type
REMARK                         _______ _______ _______ _____ _____    ______ ____
ROOT
ATOM      1  C   UNL     1       1.389  10.410  18.257  0.00  0.00    +0.000 C 
ENDROOT
BRANCH   1   7
ATOM      2  C   UNL     1      -0.970  10.933  19.125  0.00  0.00    +0.000 A 
ATOM      3  C   UNL     1      -1.809  11.697  19.947  0.00  0.00    +0.000 A 
ATOM      4  C   UNL     1      -1.321  12.806  20.625  0.00  0.00    +0.000 A 
ATOM      5  C   UNL     1       0.031  13.132  20.554  0.00  0.00    +0.000 A 
ATOM      6  C   UNL     1       0.896  12.292  19.834  0.00  0.00    +0.000 A 
ATOM      7  C   UNL     1       0.410  11.198  19.093  0.00  0.00    +0.000 A 
BRANCH   2   8
ATOM      8  O   UNL     1      -1.454   9.941  18.305  0.00  0.00    +0.000 OA
BRANCH   8  10
ATOM      9  C   UNL     1      -2.599  10.873  16.401  0.00  0.00    +0.000 C 
ATOM     10  C   UNL     1      -2.753  10.221  17.757  0.00  0.00    +0.000 C 
ENDBRANCH   8  10
ENDBRANCH   2   8
BRANCH   5  11
ATOM     11  C   UNL     1       0.545  14.383  21.224  0.00  0.00    +0.000 C 
BRANCH  11  12
ATOM     12  N   UNL     1       0.639  15.565  20.395  0.00  0.00    +0.000 NA
ATOM     13  C   UNL     1      -0.622  16.016  19.794  0.00  0.00    +0.000 C 
ATOM     14  C   UNL     1      -0.139  16.868  18.654  0.00  0.00    +0.000 A 
ATOM     15  C   UNL     1      -0.879  17.686  17.848  0.00  0.00    +0.000 A 
ATOM     16  C   UNL     1      -0.240  18.401  16.849  0.00  0.00    +0.000 A 
ATOM     17  C   UNL     1       1.149  18.324  16.704  0.00  0.00    +0.000 A 
ATOM     18  C   UNL     1       1.886  17.452  17.512  0.00  0.00    +0.000 A 
ATOM     19  C   UNL     1       1.216  16.705  18.450  0.00  0.00    +0.000 A 
ATOM     20  C   UNL     1       1.665  15.586  19.343  0.00  0.00    +0.000 C 
ENDBRANCH  11  12
ENDBRANCH   5  11
ENDBRANCH   1   7
BRANCH   1  21
ATOM     21  N   UNL     1       1.648   9.086  18.783  0.00  0.00    +0.000 N 
ATOM     22  C   UNL     1       2.532   8.187  18.200  0.00  0.00    +0.000 C 
ATOM     23  O   UNL     1       3.144   8.413  17.163  0.00  0.00    +0.000 OA
ATOM     24  H   UNL     1       1.238   8.863  19.679  0.00  0.00    +0.000 HD
BRANCH  22  25
ATOM     25  C   UNL     1       2.579   6.840  18.963  0.00  0.00    +0.000 C 
BRANCH  25  26
ATOM     26  N   UNL     1       2.049   7.064  20.339  0.00  0.00    +0.000 NA
ATOM     27  H   UNL     1       1.044   7.236  20.266  0.00  0.00    +0.000 HD
ATOM     28  H   UNL     1       2.442   7.923  20.718  0.00  0.00    +0.000 HD
ENDBRANCH  25  26
BRANCH  25  29
ATOM     29  C   UNL     1       1.778   5.686  18.319  0.00  0.00    +0.000 C 
BRANCH  29  30
ATOM     30  C   UNL     1       2.407   4.298  18.266  0.00  0.00    +0.000 A 
ATOM     31  C   UNL     1       3.600   4.053  17.532  0.00  0.00    +0.000 A 
ATOM     32  C   UNL     1       4.327   5.083  16.708  0.00  0.00    +0.000 C 
ATOM     33  C   UNL     1       4.210   2.787  17.598  0.00  0.00    +0.000 A 
ATOM     34  C   UNL     1       3.692   1.799  18.420  0.00  0.00    +0.000 A 
ATOM     35  C   UNL     1       2.510   1.995  19.100  0.00  0.00    +0.000 A 
ATOM     36  C   UNL     1       1.887   3.249  19.080  0.00  0.00    +0.000 A 
ATOM     37  C   UNL     1       0.772   3.433  20.077  0.00  0.00    +0.000 C 
BRANCH  34  38
ATOM     38  O   UNL     1       4.294   0.585  18.560  0.00  0.00    +0.000 OA
ATOM     39  H   UNL     1       4.883   0.629  19.329  0.00  0.00    +0.000 HD
ENDBRANCH  34  38
ENDBRANCH  29  30
ENDBRANCH  25  29
ENDBRANCH  22  25
ENDBRANCH   1  21
TORSDOF 11
ENDMDL
MODEL 2
REMARK VINA RESULT:      -7.8      5.434      9.801
REMARK  Name = 
REMARK  14 active torsions:
REMARK  status: ('A' for Active; 'I' for Inactive)
REMARK    1  A    between atoms: C_1  and  C_2
REMARK    2  A    between atoms: C_2  and  O_3
REMARK    3  A    between atoms: O_3  and  C_4
REMARK    4  A    between atoms: C_7  and  C_8
REMARK    5  A    between atoms: C_8  and  N_9
REMARK    6  A    between atoms: C_19  and  C_20
REMARK    7  A    between atoms: C_20  and  N_21
REMARK    8  A    between atoms: C_22  and  C_24
REMARK    9  A    between atoms: C_24  and  N_25
REMARK   10  A    between atoms: C_24  and  C_26
REMARK   11  A    between atoms: C_26  and  C_27
REMARK   12  A    between atoms: C_28  and  C_29
REMARK   13  A    between atoms: C_31  and  O_32
REMARK   14  A    between atoms: C_34  and  C_35
REMARK                            x       y       z     vdW  Elec       q    Type
REMARK                         _______ _______ _______ _____ _____    ______ ____
ROOT
ATOM      1  C   UNL     1       8.024   5.769  18.670  0.00  0.00    +0.000 C 
ENDROOT
BRANCH   1   7
ATOM      2  C   UNL     1       6.316   4.960  16.932  0.00  0.00    +0.000 A 
ATOM      3  C   UNL     1       4.992   4.639  16.603  0.00  0.00    +0.000 A 
ATOM      4  C   UNL     1       3.955   4.905  17.487  0.00  0.00    +0.000 A 
ATOM      5  C   UNL     1       4.228   5.431  18.748  0.00  0.00    +0.000 A 
ATOM      6  C   UNL     1       5.565   5.632  19.126  0.00  0.00    +0.000 A 
ATOM      7  C   UNL     1       6.624   5.423  18.223  0.00  0.00    +0.000 A 
BRANCH   2   8
ATOM      8  O   UNL     1       7.339   4.874  16.017  0.00  0.00    +0.000 OA
BRANCH   8  10
ATOM      9  C   UNL     1       6.429   3.892  14.014  0.00  0.00    +0.000 C 
ATOM     10  C   UNL     1       6.938   5.159  14.667  0.00  0.00    +0.000 C 
ENDBRANCH   8  10
ENDBRANCH   2   8
BRANCH   5  11
ATOM     11  C   UNL     1       3.096   5.796  19.676  0.00  0.00    +0.000 C 
BRANCH  11  12
ATOM     12  N   UNL     1       2.693   7.186  19.685  0.00  0.00    +0.000 NA
ATOM     13  C   UNL     1       1.673   7.541  20.680  0.00  0.00    +0.000 C 
ATOM     14  C   UNL     1       1.122   8.822  20.120  0.00  0.00    +0.000 A 
ATOM     15  C   UNL     1       0.258   9.694  20.719  0.00  0.00    +0.000 A 
ATOM     16  C   UNL     1      -0.128  10.834  20.034  0.00  0.00    +0.000 A 
ATOM     17  C   UNL     1       0.401  11.111  18.770  0.00  0.00    +0.000 A 
ATOM     18  C   UNL     1       1.254  10.188  18.155  0.00  0.00    +0.000 A 
ATOM     19  C   UNL     1       1.566   9.034  18.830  0.00  0.00    +0.000 A 
ATOM     20  C   UNL     1       2.299   7.795  18.407  0.00  0.00    +0.000 C 
ENDBRANCH  11  12
ENDBRANCH   5  11
ENDBRANCH   1   7
BRANCH   1  21
ATOM     21  N   UNL     1       8.203   7.181  18.937  0.00  0.00    +0.000 N 
ATOM     22  C   UNL     1       8.130   8.162  17.957  0.00  0.00    +0.000 C 
ATOM     23  O   UNL     1       7.949   7.923  16.769  0.00  0.00    +0.000 OA
ATOM     24  H   UNL     1       8.277   7.457  19.905  0.00  0.00    +0.000 HD
BRANCH  22  25
ATOM     25  C   UNL     1       8.395   9.577  18.530  0.00  0.00    +0.000 C 
BRANCH  25  26
ATOM     26  N   UNL     1       9.046   9.426  19.863  0.00  0.00    +0.000 NA
ATOM     27  H   UNL     1       9.994   9.073  19.713  0.00  0.00    +0.000 HD
ATOM     28  H   UNL     1       8.570   8.699  20.393  0.00  0.00    +0.000 HD
ENDBRANCH  25  26
BRANCH  25  29
ATOM     29  C   UNL     1       9.286  10.488  17.657  0.00  0.00    +0.000 C 
BRANCH  29  30
ATOM     30  C   UNL     1       9.573  11.908  18.135  0.00  0.00    +0.000 A 
ATOM     31  C   UNL     1      10.837  12.265  18.677  0.00  0.00    +0.000 A 
ATOM     32  C   UNL     1      11.983  11.309  18.886  0.00  0.00    +0.000 C 
ATOM     33  C   UNL     1      11.101  13.608  19.003  0.00  0.00    +0.000 A 
ATOM     34  C   UNL     1      10.160  14.592  18.742  0.00  0.00    +0.000 A 
ATOM     35  C   UNL     1       8.910  14.264  18.265  0.00  0.00    +0.000 A 
ATOM     36  C   UNL     1       8.620  12.943  17.905  0.00  0.00    +0.000 A 
ATOM     37  C   UNL     1       7.339  12.749  17.134  0.00  0.00    +0.000 C 
BRANCH  34  38
ATOM     38  O   UNL     1      10.407  15.910  18.982  0.00  0.00    +0.000 OA
ATOM     39  H   UNL     1      11.313  15.989  19.318  0.00  0.00    +0.000 HD
ENDBRANCH  34  38
ENDBRANCH  29  30
ENDBRANCH  25  29
ENDBRANCH  22  25
ENDBRANCH   1  21
TORSDOF 11
ENDMDL
MODEL 3
REMARK VINA RESULT:      -7.8      3.692      6.027
REMARK  Name = 
REMARK  14 active torsions:
REMARK  status: ('A' for Active; 'I' for Inactive)
REMARK    1  A    between atoms: C_1  and  C_2
REMARK    2  A    between atoms: C_2  and  O_3
REMARK    3  A    between atoms: O_3  and  C_4
REMARK    4  A    between atoms: C_7  and  C_8
REMARK    5  A    between atoms: C_8  and  N_9
REMARK    6  A    between atoms: C_19  and  C_20
REMARK    7  A    between atoms: C_20  and  N_21
REMARK    8  A    between atoms: C_22  and  C_24
REMARK    9  A    between atoms: C_24  and  N_25
REMARK   10  A    between atoms: C_24  and  C_26
REMARK   11  A    between atoms: C_26  and  C_27
REMARK   12  A    between atoms: C_28  and  C_29
REMARK   13  A    between atoms: C_31  and  O_32
REMARK   14  A    between atoms: C_34  and  C_35
REMARK                            x       y       z     vdW  Elec       q    Type
REMARK                         _______ _______ _______ _____ _____    ______ ____
ROOT
ATOM      1  C   UNL     1       2.692   6.942  17.960  0.00  0.00    +0.000 C 
ENDROOT
BRANCH   1   7
ATOM      2  C   UNL     1       1.791   7.234  20.346  0.00  0.00    +0.000 A 
ATOM      3  C   UNL     1       1.167   8.040  21.308  0.00  0.00    +0.000 A 
ATOM      4  C   UNL     1       0.632   9.274  20.963  0.00  0.00    +0.000 A 
ATOM      5  C   UNL     1       0.773   9.760  19.665  0.00  0.00    +0.000 A 
ATOM      6  C   UNL     1       1.508   9.009  18.734  0.00  0.00    +0.000 A 
ATOM      7  C   UNL     1       2.007   7.732  19.050  0.00  0.00    +0.000 A 
BRANCH   2   8
ATOM      8  O   UNL     1       2.172   5.939  20.612  0.00  0.00    +0.000 OA
BRANCH   8  10
ATOM      9  C   UNL     1       1.614   3.614  20.905  0.00  0.00    +0.000 C 
ATOM     10  C   UNL     1       1.083   5.001  20.614  0.00  0.00    +0.000 C 
ENDBRANCH   8  10
ENDBRANCH   2   8
BRANCH   5  11
ATOM     11  C   UNL     1       0.120  11.061  19.270  0.00  0.00    +0.000 C 
BRANCH  11  12
ATOM     12  N   UNL     1      -1.320  11.042  19.124  0.00  0.00    +0.000 NA
ATOM     13  C   UNL     1      -1.812  10.945  17.744  0.00  0.00    +0.000 C 
ATOM     14  C   UNL     1      -3.220  11.453  17.878  0.00  0.00    +0.000 A 
ATOM     15  C   UNL     1      -4.212  11.427  16.939  0.00  0.00    +0.000 A 
ATOM     16  C   UNL     1      -5.456  11.943  17.261  0.00  0.00    +0.000 A 
ATOM     17  C   UNL     1      -5.705  12.434  18.547  0.00  0.00    +0.000 A 
ATOM     18  C   UNL     1      -4.666  12.489  19.484  0.00  0.00    +0.000 A 
ATOM     19  C   UNL     1      -3.426  12.032  19.113  0.00  0.00    +0.000 A 
ATOM     20  C   UNL     1      -2.092  12.096  19.798  0.00  0.00    +0.000 C 
ENDBRANCH  11  12
ENDBRANCH   5  11
ENDBRANCH   1   7
BRANCH   1  21
ATOM     21  N   UNL     1       3.777   6.119  18.451  0.00  0.00    +0.000 N 
ATOM     22  C   UNL     1       3.882   4.757  18.202  0.00  0.00    +0.000 C 
ATOM     23  O   UNL     1       3.044   4.115  17.578  0.00  0.00    +0.000 OA
ATOM     24  H   UNL     1       4.542   6.597  18.906  0.00  0.00    +0.000 HD
BRANCH  22  25
ATOM     25  C   UNL     1       5.127   4.135  18.881  0.00  0.00    +0.000 C 
BRANCH  25  26
ATOM     26  N   UNL     1       4.858   2.686  19.112  0.00  0.00    +0.000 NA
ATOM     27  H   UNL     1       5.269   2.429  20.012  0.00  0.00    +0.000 HD
ATOM     28  H   UNL     1       5.361   2.134  18.420  0.00  0.00    +0.000 HD
ENDBRANCH  25  26
BRANCH  25  29
ATOM     29  C   UNL     1       6.446   4.262  18.087  0.00  0.00    +0.000 C 
BRANCH  29  30
ATOM     30  C   UNL     1       7.098   5.635  17.963  0.00  0.00    +0.000 A 
ATOM     31  C   UNL     1       6.791   6.505  16.883  0.00  0.00    +0.000 A 
ATOM     32  C   UNL     1       5.861   6.167  15.747  0.00  0.00    +0.000 C 
ATOM     33  C   UNL     1       7.326   7.806  16.862  0.00  0.00    +0.000 A 
ATOM     34  C   UNL     1       8.100   8.264  17.917  0.00  0.00    +0.000 A 
ATOM     35  C   UNL     1       8.453   7.424  18.949  0.00  0.00    +0.000 A 
ATOM     36  C   UNL     1       7.920   6.131  19.018  0.00  0.00    +0.000 A 
ATOM     37  C   UNL     1       8.141   5.408  20.322  0.00  0.00    +0.000 C 
BRANCH  34  38
ATOM     38  O   UNL     1       8.579   9.539  17.962  0.00  0.00    +0.000 OA
ATOM     39  H   UNL     1       7.918  10.092  18.407  0.00  0.00    +0.000 HD
ENDBRANCH  34  38
ENDBRANCH  29  30
ENDBRANCH  25  29
ENDBRANCH  22  25
ENDBRANCH   1  21
TORSDOF 11
ENDMDL
MODEL 4
REMARK VINA RESULT:      -7.7      2.671      4.042
REMARK  Name = 
REMARK  14 active torsions:
REMARK  status: ('A' for Active; 'I' for Inactive)
REMARK    1  A    between atoms: C_1  and  C_2
REMARK    2  A    between atoms: C_2  and  O_3
REMARK    3  A    between atoms: O_3  and  C_4
REMARK    4  A    between atoms: C_7  and  C_8
REMARK    5  A    between atoms: C_8  and  N_9
REMARK    6  A    between atoms: C_19  and  C_20
REMARK    7  A    between atoms: C_20  and  N_21
REMARK    8  A    between atoms: C_22  and  C_24
REMARK    9  A    between atoms: C_24  and  N_25
REMARK   10  A    between atoms: C_24  and  C_26
REMARK   11  A    between atoms: C_26  and  C_27
REMARK   12  A    between atoms: C_28  and  C_29
REMARK   13  A    between atoms: C_31  and  O_32
REMARK   14  A    between atoms: C_34  and  C_35
REMARK                            x       y       z     vdW  Elec       q    Type
REMARK                         _______ _______ _______ _____ _____    ______ ____
ROOT
ATOM      1  C   UNL     1       0.556  10.676  18.367  0.00  0.00    +0.000 C 
ENDROOT
BRANCH   1   7
ATOM      2  C   UNL     1       0.031  12.007  20.498  0.00  0.00    +0.000 A 
ATOM      3  C   UNL     1       0.174  13.181  21.252  0.00  0.00    +0.000 A 
ATOM      4  C   UNL     1       0.788  14.303  20.711  0.00  0.00    +0.000 A 
ATOM      5  C   UNL     1       1.337  14.252  19.432  0.00  0.00    +0.000 A 
ATOM      6  C   UNL     1       1.307  13.039  18.726  0.00  0.00    +0.000 A 
ATOM      7  C   UNL     1       0.638  11.909  19.234  0.00  0.00    +0.000 A 
BRANCH   2   8
ATOM      8  O   UNL     1      -0.724  10.944  20.936  0.00  0.00    +0.000 OA
BRANCH   8  10
ATOM      9  C   UNL     1      -1.169  10.577  23.274  0.00  0.00    +0.000 C 
ATOM     10  C   UNL     1      -0.216  10.322  22.128  0.00  0.00    +0.000 C 
ENDBRANCH   8  10
ENDBRANCH   2   8
BRANCH   5  11
ATOM     11  C   UNL     1       1.930  15.494  18.814  0.00  0.00    +0.000 C 
BRANCH  11  12
ATOM     12  N   UNL     1       3.369  15.628  18.892  0.00  0.00    +0.000 NA
ATOM     13  C   UNL     1       4.114  15.113  17.736  0.00  0.00    +0.000 C 
ATOM     14  C   UNL     1       5.490  14.920  18.311  0.00  0.00    +0.000 A 
ATOM     15  C   UNL     1       6.642  14.620  17.642  0.00  0.00    +0.000 A 
ATOM     16  C   UNL     1       7.820  14.491  18.358  0.00  0.00    +0.000 A 
ATOM     17  C   UNL     1       7.836  14.718  19.738  0.00  0.00    +0.000 A 
ATOM     18  C   UNL     1       6.640  14.985  20.413  0.00  0.00    +0.000 A 
ATOM     19  C   UNL     1       5.477  15.041  19.686  0.00  0.00    +0.000 A 
ATOM     20  C   UNL     1       4.039  15.142  20.106  0.00  0.00    +0.000 C 
ENDBRANCH  11  12
ENDBRANCH   5  11
ENDBRANCH   1   7
BRANCH   1  21
ATOM     21  N   UNL     1       1.125   9.501  18.995  0.00  0.00    +0.000 N 
ATOM     22  C   UNL     1       2.035   8.660  18.369  0.00  0.00    +0.000 C 
ATOM     23  O   UNL     1       2.411   8.809  17.211  0.00  0.00    +0.000 OA
ATOM     24  H   UNL     1       0.919   9.363  19.974  0.00  0.00    +0.000 HD
BRANCH  22  25
ATOM     25  C   UNL     1       2.442   7.470  19.271  0.00  0.00    +0.000 C 
BRANCH  25  26
ATOM     26  N   UNL     1       1.730   7.606  20.574  0.00  0.00    +0.000 NA
ATOM     27  H   UNL     1       2.220   8.312  21.129  0.00  0.00    +0.000 HD
ATOM     28  H   UNL     1       1.821   6.740  21.102  0.00  0.00    +0.000 HD
ENDBRANCH  25  26
BRANCH  25  29
ATOM     29  C   UNL     1       2.135   6.068  18.697  0.00  0.00    +0.000 C 
BRANCH  29  30
ATOM     30  C   UNL     1       2.970   4.883  19.171  0.00  0.00    +0.000 A 
ATOM     31  C   UNL     1       2.431   3.901  20.045  0.00  0.00    +0.000 A 
ATOM     32  C   UNL     1       1.042   3.940  20.627  0.00  0.00    +0.000 C 
ATOM     33  C   UNL     1       3.193   2.764  20.371  0.00  0.00    +0.000 A 
ATOM     34  C   UNL     1       4.439   2.567  19.797  0.00  0.00    +0.000 A 
ATOM     35  C   UNL     1       5.004   3.528  18.988  0.00  0.00    +0.000 A 
ATOM     36  C   UNL     1       4.266   4.660  18.621  0.00  0.00    +0.000 A 
ATOM     37  C   UNL     1       4.865   5.492  17.516  0.00  0.00    +0.000 C 
BRANCH  34  38
ATOM     38  O   UNL     1       5.177   1.447  20.038  0.00  0.00    +0.000 OA
ATOM     39  H   UNL     1       4.878   1.066  20.878  0.00  0.00    +0.000 HD
ENDBRANCH  34  38
ENDBRANCH  29  30
ENDBRANCH  25  29
ENDBRANCH  22  25
ENDBRANCH   1  21
TORSDOF 11
ENDMDL
MODEL 5
REMARK VINA RESULT:      -7.6      3.450      6.002
REMARK  Name = 
REMARK  14 active torsions:
REMARK  status: ('A' for Active; 'I' for Inactive)
REMARK    1  A    between atoms: C_1  and  C_2
REMARK    2  A    between atoms: C_2  and  O_3
REMARK    3  A    between atoms: O_3  and  C_4
REMARK    4  A    between atoms: C_7  and  C_8
REMARK    5  A    between atoms: C_8  and  N_9
REMARK    6  A    between atoms: C_19  and  C_20
REMARK    7  A    between atoms: C_20  and  N_21
REMARK    8  A    between atoms: C_22  and  C_24
REMARK    9  A    between atoms: C_24  and  N_25
REMARK   10  A    between atoms: C_24  and  C_26
REMARK   11  A    between atoms: C_26  and  C_27
REMARK   12  A    between atoms: C_28  and  C_29
REMARK   13  A    between atoms: C_31  and  O_32
REMARK   14  A    between atoms: C_34  and  C_35
REMARK                            x       y       z     vdW  Elec       q    Type
REMARK                         _______ _______ _______ _____ _____    ______ ____
ROOT
ATOM      1  C   UNL     1       2.650   6.850  17.906  0.00  0.00    +0.000 C 
ENDROOT
BRANCH   1   7
ATOM      2  C   UNL     1       1.779   7.421  20.252  0.00  0.00    +0.000 A 
ATOM      3  C   UNL     1       1.282   8.372  21.154  0.00  0.00    +0.000 A 
ATOM      4  C   UNL     1       0.956   9.653  20.729  0.00  0.00    +0.000 A 
ATOM      5  C   UNL     1       1.189  10.033  19.409  0.00  0.00    +0.000 A 
ATOM      6  C   UNL     1       1.805   9.122  18.537  0.00  0.00    +0.000 A 
ATOM      7  C   UNL     1       2.088   7.802  18.935  0.00  0.00    +0.000 A 
BRANCH   2   8
ATOM      8  O   UNL     1       1.944   6.101  20.598  0.00  0.00    +0.000 OA
BRANCH   8  10
ATOM      9  C   UNL     1       1.116   3.839  20.589  0.00  0.00    +0.000 C 
ATOM     10  C   UNL     1       0.764   5.300  20.419  0.00  0.00    +0.000 C 
ENDBRANCH   8  10
ENDBRANCH   2   8
BRANCH   5  11
ATOM     11  C   UNL     1       0.759  11.397  18.928  0.00  0.00    +0.000 C 
BRANCH  11  12
ATOM     12  N   UNL     1      -0.620  11.527  18.507  0.00  0.00    +0.000 NA
ATOM     13  C   UNL     1      -1.485  12.298  19.408  0.00  0.00    +0.000 C 
ATOM     14  C   UNL     1      -2.855  11.830  19.004  0.00  0.00    +0.000 A 
ATOM     15  C   UNL     1      -4.061  12.339  19.393  0.00  0.00    +0.000 A 
ATOM     16  C   UNL     1      -5.222  11.768  18.899  0.00  0.00    +0.000 A 
ATOM     17  C   UNL     1      -5.155  10.721  17.975  0.00  0.00    +0.000 A 
ATOM     18  C   UNL     1      -3.912  10.186  17.618  0.00  0.00    +0.000 A 
ATOM     19  C   UNL     1      -2.781  10.729  18.176  0.00  0.00    +0.000 A 
ATOM     20  C   UNL     1      -1.343  10.301  18.137  0.00  0.00    +0.000 C 
ENDBRANCH  11  12
ENDBRANCH   5  11
ENDBRANCH   1   7
BRANCH   1  21
ATOM     21  N   UNL     1       3.752   6.055  18.409  0.00  0.00    +0.000 N 
ATOM     22  C   UNL     1       3.863   4.685  18.212  0.00  0.00    +0.000 C 
ATOM     23  O   UNL     1       3.019   4.013  17.631  0.00  0.00    +0.000 OA
ATOM     24  H   UNL     1       4.521   6.557  18.828  0.00  0.00    +0.000 HD
BRANCH  22  25
ATOM     25  C   UNL     1       5.126   4.101  18.891  0.00  0.00    +0.000 C 
BRANCH  25  26
ATOM     26  N   UNL     1       4.886   2.652  19.153  0.00  0.00    +0.000 NA
ATOM     27  H   UNL     1       3.914   2.542  19.450  0.00  0.00    +0.000 HD
ATOM     28  H   UNL     1       5.446   2.354  19.950  0.00  0.00    +0.000 HD
ENDBRANCH  25  26
BRANCH  25  29
ATOM     29  C   UNL     1       6.435   4.235  18.082  0.00  0.00    +0.000 C 
BRANCH  29  30
ATOM     30  C   UNL     1       7.081   5.611  17.957  0.00  0.00    +0.000 A 
ATOM     31  C   UNL     1       6.762   6.484  16.881  0.00  0.00    +0.000 A 
ATOM     32  C   UNL     1       5.824   6.146  15.752  0.00  0.00    +0.000 C 
ATOM     33  C   UNL     1       7.292   7.787  16.860  0.00  0.00    +0.000 A 
ATOM     34  C   UNL     1       8.073   8.244  17.911  0.00  0.00    +0.000 A 
ATOM     35  C   UNL     1       8.437   7.402  18.938  0.00  0.00    +0.000 A 
ATOM     36  C   UNL     1       7.909   6.107  19.006  0.00  0.00    +0.000 A 
ATOM     37  C   UNL     1       8.143   5.381  20.307  0.00  0.00    +0.000 C 
BRANCH  34  38
ATOM     38  O   UNL     1       8.548   9.520  17.956  0.00  0.00    +0.000 OA
ATOM     39  H   UNL     1       7.789  10.124  17.945  0.00  0.00    +0.000 HD
ENDBRANCH  34  38
ENDBRANCH  29  30
ENDBRANCH  25  29
ENDBRANCH  22  25
ENDBRANCH   1  21
TORSDOF 11
ENDMDL
MODEL 6
REMARK VINA RESULT:      -7.6      3.333     10.403
REMARK  Name = 
REMARK  14 active torsions:
REMARK  status: ('A' for Active; 'I' for Inactive)
REMARK    1  A    between atoms: C_1  and  C_2
REMARK    2  A    between atoms: C_2  and  O_3
REMARK    3  A    between atoms: O_3  and  C_4
REMARK    4  A    between atoms: C_7  and  C_8
REMARK    5  A    between atoms: C_8  and  N_9
REMARK    6  A    between atoms: C_19  and  C_20
REMARK    7  A    between atoms: C_20  and  N_21
REMARK    8  A    between atoms: C_22  and  C_24
REMARK    9  A    between atoms: C_24  and  N_25
REMARK   10  A    between atoms: C_24  and  C_26
REMARK   11  A    between atoms: C_26  and  C_27
REMARK   12  A    between atoms: C_28  and  C_29
REMARK   13  A    between atoms: C_31  and  O_32
REMARK   14  A    between atoms: C_34  and  C_35
REMARK                            x       y       z     vdW  Elec       q    Type
REMARK                         _______ _______ _______ _____ _____    ______ ____
ROOT
ATOM      1  C   UNL     1       2.050   8.863  17.521  0.00  0.00    +0.000 C 
ENDROOT
BRANCH   1   7
ATOM      2  C   UNL     1       2.080   7.231  19.502  0.00  0.00    +0.000 A 
ATOM      3  C   UNL     1       2.615   6.089  20.114  0.00  0.00    +0.000 A 
ATOM      4  C   UNL     1       3.730   5.455  19.584  0.00  0.00    +0.000 A 
ATOM      5  C   UNL     1       4.290   5.904  18.390  0.00  0.00    +0.000 A 
ATOM      6  C   UNL     1       3.677   6.968  17.710  0.00  0.00    +0.000 A 
ATOM      7  C   UNL     1       2.583   7.661  18.262  0.00  0.00    +0.000 A 
BRANCH   2   8
ATOM      8  O   UNL     1       1.093   7.984  20.094  0.00  0.00    +0.000 OA
BRANCH   8  10
ATOM      9  C   UNL     1       1.335   9.220  22.147  0.00  0.00    +0.000 C 
ATOM     10  C   UNL     1       1.053   7.870  21.526  0.00  0.00    +0.000 C 
ENDBRANCH   8  10
ENDBRANCH   2   8
BRANCH   5  11
ATOM     11  C   UNL     1       5.549   5.266  17.857  0.00  0.00    +0.000 C 
BRANCH  11  12
ATOM     12  N   UNL     1       5.719   5.278  16.420  0.00  0.00    +0.000 NA
ATOM     13  C   UNL     1       4.999   4.226  15.691  0.00  0.00    +0.000 C 
ATOM     14  C   UNL     1       5.748   4.178  14.389  0.00  0.00    +0.000 A 
ATOM     15  C   UNL     1       5.412   3.496  13.254  0.00  0.00    +0.000 A 
ATOM     16  C   UNL     1       6.237   3.587  12.146  0.00  0.00    +0.000 A 
ATOM     17  C   UNL     1       7.369   4.408  12.175  0.00  0.00    +0.000 A 
ATOM     18  C   UNL     1       7.720   5.068  13.358  0.00  0.00    +0.000 A 
ATOM     19  C   UNL     1       6.919   4.905  14.461  0.00  0.00    +0.000 A 
ATOM     20  C   UNL     1       7.090   5.326  15.891  0.00  0.00    +0.000 C 
ENDBRANCH  11  12
ENDBRANCH   5  11
ENDBRANCH   1   7
BRANCH   1  21
ATOM     21  N   UNL     1       1.304   9.769  18.370  0.00  0.00    +0.000 N 
ATOM     22  C   UNL     1       1.607  11.117  18.508  0.00  0.00    +0.000 C 
ATOM     23  O   UNL     1       2.559  11.659  17.957  0.00  0.00    +0.000 OA
ATOM     24  H   UNL     1       0.461   9.408  18.792  0.00  0.00    +0.000 HD
BRANCH  22  25
ATOM     25  C   UNL     1       0.660  11.827  19.507  0.00  0.00    +0.000 C 
BRANCH  25  26
ATOM     26  N   UNL     1       1.490  12.654  20.430  0.00  0.00    +0.000 NA
ATOM     27  H   UNL     1       1.063  12.615  21.358  0.00  0.00    +0.000 HD
ATOM     28  H   UNL     1       1.436  13.632  20.151  0.00  0.00    +0.000 HD
ENDBRANCH  25  26
BRANCH  25  29
ATOM     29  C   UNL     1      -0.410  12.741  18.869  0.00  0.00    +0.000 C 
BRANCH  29  30
ATOM     30  C   UNL     1      -1.879  12.484  19.190  0.00  0.00    +0.000 A 
ATOM     31  C   UNL     1      -2.517  13.113  20.294  0.00  0.00    +0.000 A 
ATOM     32  C   UNL     1      -1.831  14.032  21.271  0.00  0.00    +0.000 C 
ATOM     33  C   UNL     1      -3.898  12.939  20.492  0.00  0.00    +0.000 A 
ATOM     34  C   UNL     1      -4.651  12.210  19.584  0.00  0.00    +0.000 A 
ATOM     35  C   UNL     1      -4.048  11.549  18.537  0.00  0.00    +0.000 A 
ATOM     36  C   UNL     1      -2.680  11.719  18.293  0.00  0.00    +0.000 A 
ATOM     37  C   UNL     1      -2.189  11.189  16.970  0.00  0.00    +0.000 C 
BRANCH  34  38
ATOM     38  O   UNL     1      -6.002  12.075  19.708  0.00  0.00    +0.000 OA
ATOM     39  H   UNL     1      -6.189  11.743  20.600  0.00  0.00    +0.000 HD
ENDBRANCH  34  38
ENDBRANCH  29  30
ENDBRANCH  25  29
ENDBRANCH  22  25
ENDBRANCH   1  21
TORSDOF 11
ENDMDL
MODEL 7
REMARK VINA RESULT:      -7.6      5.481      9.814
REMARK  Name = 
REMARK  14 active torsions:
REMARK  status: ('A' for Active; 'I' for Inactive)
REMARK    1  A    between atoms: C_1  and  C_2
REMARK    2  A    between atoms: C_2  and  O_3
REMARK    3  A    between atoms: O_3  and  C_4
REMARK    4  A    between atoms: C_7  and  C_8
REMARK    5  A    between atoms: C_8  and  N_9
REMARK    6  A    between atoms: C_19  and  C_20
REMARK    7  A    between atoms: C_20  and  N_21
REMARK    8  A    between atoms: C_22  and  C_24
REMARK    9  A    between atoms: C_24  and  N_25
REMARK   10  A    between atoms: C_24  and  C_26
REMARK   11  A    between atoms: C_26  and  C_27
REMARK   12  A    between atoms: C_28  and  C_29
REMARK   13  A    between atoms: C_31  and  O_32
REMARK   14  A    between atoms: C_34  and  C_35
REMARK                            x       y       z     vdW  Elec       q    Type
REMARK                         _______ _______ _______ _____ _____    ______ ____
ROOT
ATOM      1  C   UNL     1       7.966   5.939  18.685  0.00  0.00    +0.000 C 
ENDROOT
BRANCH   1   7
ATOM      2  C   UNL     1       6.248   5.321  16.880  0.00  0.00    +0.000 A 
ATOM      3  C   UNL     1       4.918   5.056  16.522  0.00  0.00    +0.000 A 
ATOM      4  C   UNL     1       3.885   5.262  17.426  0.00  0.00    +0.000 A 
ATOM      5  C   UNL     1       4.164   5.666  18.730  0.00  0.00    +0.000 A 
ATOM      6  C   UNL     1       5.504   5.808  19.125  0.00  0.00    +0.000 A 
ATOM      7  C   UNL     1       6.561   5.661  18.207  0.00  0.00    +0.000 A 
BRANCH   2   8
ATOM      8  O   UNL     1       7.271   5.299  15.962  0.00  0.00    +0.000 OA
BRANCH   8  10
ATOM      9  C   UNL     1       7.419   5.125  13.564  0.00  0.00    +0.000 C 
ATOM     10  C   UNL     1       7.034   4.423  14.847  0.00  0.00    +0.000 C 
ENDBRANCH   8  10
ENDBRANCH   2   8
BRANCH   5  11
ATOM     11  C   UNL     1       3.037   5.968  19.686  0.00  0.00    +0.000 C 
BRANCH  11  12
ATOM     12  N   UNL     1       2.597   7.345  19.750  0.00  0.00    +0.000 NA
ATOM     13  C   UNL     1       1.572   7.634  20.760  0.00  0.00    +0.000 C 
ATOM     14  C   UNL     1       0.984   8.920  20.252  0.00  0.00    +0.000 A 
ATOM     15  C   UNL     1       0.099   9.745  20.886  0.00  0.00    +0.000 A 
ATOM     16  C   UNL     1      -0.320  10.900  20.248  0.00  0.00    +0.000 A 
ATOM     17  C   UNL     1       0.197  11.239  18.993  0.00  0.00    +0.000 A 
ATOM     18  C   UNL     1       1.072  10.364  18.340  0.00  0.00    +0.000 A 
ATOM     19  C   UNL     1       1.417   9.194  18.970  0.00  0.00    +0.000 A 
ATOM     20  C   UNL     1       2.181   7.992  18.497  0.00  0.00    +0.000 C 
ENDBRANCH  11  12
ENDBRANCH   5  11
ENDBRANCH   1   7
BRANCH   1  21
ATOM     21  N   UNL     1       8.208   7.341  18.953  0.00  0.00    +0.000 N 
ATOM     22  C   UNL     1       8.209   8.322  17.969  0.00  0.00    +0.000 C 
ATOM     23  O   UNL     1       8.045   8.087  16.777  0.00  0.00    +0.000 OA
ATOM     24  H   UNL     1       8.272   7.616  19.922  0.00  0.00    +0.000 HD
BRANCH  22  25
ATOM     25  C   UNL     1       8.530   9.723  18.545  0.00  0.00    +0.000 C 
BRANCH  25  26
ATOM     26  N   UNL     1       9.033   9.551  19.938  0.00  0.00    +0.000 NA
ATOM     27  H   UNL     1       8.606   8.706  20.326  0.00  0.00    +0.000 HD
ATOM     28  H   UNL     1       8.691  10.315  20.519  0.00  0.00    +0.000 HD
ENDBRANCH  25  26
BRANCH  25  29
ATOM     29  C   UNL     1       9.573  10.542  17.752  0.00  0.00    +0.000 C 
BRANCH  29  30
ATOM     30  C   UNL     1       9.761  12.016  18.094  0.00  0.00    +0.000 A 
ATOM     31  C   UNL     1       8.749  12.975  17.819  0.00  0.00    +0.000 A 
ATOM     32  C   UNL     1       7.442  12.671  17.134  0.00  0.00    +0.000 C 
ATOM     33  C   UNL     1       8.914  14.304  18.249  0.00  0.00    +0.000 A 
ATOM     34  C   UNL     1      10.025  14.669  18.993  0.00  0.00    +0.000 A 
ATOM     35  C   UNL     1      11.043  13.771  19.228  0.00  0.00    +0.000 A 
ATOM     36  C   UNL     1      10.904  12.434  18.838  0.00  0.00    +0.000 A 
ATOM     37  C   UNL     1      11.937  11.487  19.394  0.00  0.00    +0.000 C 
BRANCH  34  38
ATOM     38  O   UNL     1      10.185  15.930  19.483  0.00  0.00    +0.000 OA
ATOM     39  H   UNL     1       9.330  16.227  19.831  0.00  0.00    +0.000 HD
ENDBRANCH  34  38
ENDBRANCH  29  30
ENDBRANCH  25  29
ENDBRANCH  22  25
ENDBRANCH   1  21
TORSDOF 11
ENDMDL
MODEL 8
REMARK VINA RESULT:      -7.6      4.605      9.123
REMARK  Name = 
REMARK  14 active torsions:
REMARK  status: ('A' for Active; 'I' for Inactive)
REMARK    1  A    between atoms: C_1  and  C_2
REMARK    2  A    between atoms: C_2  and  O_3
REMARK    3  A    between atoms: O_3  and  C_4
REMARK    4  A    between atoms: C_7  and  C_8
REMARK    5  A    between atoms: C_8  and  N_9
REMARK    6  A    between atoms: C_19  and  C_20
REMARK    7  A    between atoms: C_20  and  N_21
REMARK    8  A    between atoms: C_22  and  C_24
REMARK    9  A    between atoms: C_24  and  N_25
REMARK   10  A    between atoms: C_24  and  C_26
REMARK   11  A    between atoms: C_26  and  C_27
REMARK   12  A    between atoms: C_28  and  C_29
REMARK   13  A    between atoms: C_31  and  O_32
REMARK   14  A    between atoms: C_34  and  C_35
REMARK                            x       y       z     vdW  Elec       q    Type
REMARK                         _______ _______ _______ _____ _____    ______ ____
ROOT
ATOM      1  C   UNL     1       3.571   6.531  17.313  0.00  0.00    +0.000 C 
ENDROOT
BRANCH   1   7
ATOM      2  C   UNL     1       5.386   5.494  18.805  0.00  0.00    +0.000 A 
ATOM      3  C   UNL     1       6.727   5.438  19.207  0.00  0.00    +0.000 A 
ATOM      4  C   UNL     1       7.645   6.376  18.755  0.00  0.00    +0.000 A 
ATOM      5  C   UNL     1       7.258   7.347  17.833  0.00  0.00    +0.000 A 
ATOM      6  C   UNL     1       5.947   7.325  17.333  0.00  0.00    +0.000 A 
ATOM      7  C   UNL     1       4.988   6.419  17.823  0.00  0.00    +0.000 A 
BRANCH   2   8
ATOM      8  O   UNL     1       4.418   4.695  19.367  0.00  0.00    +0.000 OA
BRANCH   8  10
ATOM      9  C   UNL     1       3.397   2.532  19.646  0.00  0.00    +0.000 C 
ATOM     10  C   UNL     1       4.491   3.319  18.960  0.00  0.00    +0.000 C 
ENDBRANCH   8  10
ENDBRANCH   2   8
BRANCH   5  11
ATOM     11  C   UNL     1       8.234   8.415  17.405  0.00  0.00    +0.000 C 
BRANCH  11  12
ATOM     12  N   UNL     1       8.327   9.582  18.257  0.00  0.00    +0.000 NA
ATOM     13  C   UNL     1       8.405  10.869  17.555  0.00  0.00    +0.000 C 
ATOM     14  C   UNL     1       8.990  11.766  18.610  0.00  0.00    +0.000 A 
ATOM     15  C   UNL     1       9.128  13.124  18.572  0.00  0.00    +0.000 A 
ATOM     16  C   UNL     1       9.689  13.773  19.659  0.00  0.00    +0.000 A 
ATOM     17  C   UNL     1      10.061  13.051  20.797  0.00  0.00    +0.000 A 
ATOM     18  C   UNL     1       9.950  11.656  20.804  0.00  0.00    +0.000 A 
ATOM     19  C   UNL     1       9.451  11.034  19.686  0.00  0.00    +0.000 A 
ATOM     20  C   UNL     1       9.354   9.585  19.308  0.00  0.00    +0.000 C 
ENDBRANCH  11  12
ENDBRANCH   5  11
ENDBRANCH   1   7
BRANCH   1  21
ATOM     21  N   UNL     1       2.967   7.817  17.596  0.00  0.00    +0.000 N 
ATOM     22  C   UNL     1       2.274   8.098  18.766  0.00  0.00    +0.000 C 
ATOM     23  O   UNL     1       2.073   7.274  19.651  0.00  0.00    +0.000 OA
ATOM     24  H   UNL     1       3.160   8.565  16.946  0.00  0.00    +0.000 HD
BRANCH  22  25
ATOM     25  C   UNL     1       1.711   9.541  18.776  0.00  0.00    +0.000 C 
BRANCH  25  26
ATOM     26  N   UNL     1       1.991  10.160  17.449  0.00  0.00    +0.000 NA
ATOM     27  H   UNL     1       2.800  10.777  17.552  0.00  0.00    +0.000 HD
ATOM     28  H   UNL     1       1.219  10.772  17.190  0.00  0.00    +0.000 HD
ENDBRANCH  25  26
BRANCH  25  29
ATOM     29  C   UNL     1       0.196   9.659  19.056  0.00  0.00    +0.000 C 
BRANCH  29  30
ATOM     30  C   UNL     1      -0.268  10.508  20.235  0.00  0.00    +0.000 A 
ATOM     31  C   UNL     1      -0.316   9.980  21.553  0.00  0.00    +0.000 A 
ATOM     32  C   UNL     1       0.021   8.559  21.922  0.00  0.00    +0.000 C 
ATOM     33  C   UNL     1      -0.642  10.825  22.630  0.00  0.00    +0.000 A 
ATOM     34  C   UNL     1      -0.855  12.178  22.421  0.00  0.00    +0.000 A 
ATOM     35  C   UNL     1      -0.864  12.703  21.148  0.00  0.00    +0.000 A 
ATOM     36  C   UNL     1      -0.520  11.900  20.054  0.00  0.00    +0.000 A 
ATOM     37  C   UNL     1      -0.283  12.636  18.760  0.00  0.00    +0.000 C 
BRANCH  34  38
ATOM     38  O   UNL     1      -1.107  13.038  23.448  0.00  0.00    +0.000 OA
ATOM     39  H   UNL     1      -0.377  13.675  23.492  0.00  0.00    +0.000 HD
ENDBRANCH  34  38
ENDBRANCH  29  30
ENDBRANCH  25  29
ENDBRANCH  22  25
ENDBRANCH   1  21
TORSDOF 11
ENDMDL
MODEL 9
REMARK VINA RESULT:      -7.6      2.921     10.032
REMARK  Name = 
REMARK  14 active torsions:
REMARK  status: ('A' for Active; 'I' for Inactive)
REMARK    1  A    between atoms: C_1  and  C_2
REMARK    2  A    between atoms: C_2  and  O_3
REMARK    3  A    between atoms: O_3  and  C_4
REMARK    4  A    between atoms: C_7  and  C_8
REMARK    5  A    between atoms: C_8  and  N_9
REMARK    6  A    between atoms: C_19  and  C_20
REMARK    7  A    between atoms: C_20  and  N_21
REMARK    8  A    between atoms: C_22  and  C_24
REMARK    9  A    between atoms: C_24  and  N_25
REMARK   10  A    between atoms: C_24  and  C_26
REMARK   11  A    between atoms: C_26  and  C_27
REMARK   12  A    between atoms: C_28  and  C_29
REMARK   13  A    between atoms: C_31  and  O_32
REMARK   14  A    between atoms: C_34  and  C_35
REMARK                            x       y       z     vdW  Elec       q    Type
REMARK                         _______ _______ _______ _____ _____    ______ ____
ROOT
ATOM      1  C   UNL     1       2.053   6.140  20.140  0.00  0.00    +0.000 C 
ENDROOT
BRANCH   1   7
ATOM      2  C   UNL     1       1.491   3.740  19.419  0.00  0.00    +0.000 A 
ATOM      3  C   UNL     1       1.645   2.690  18.503  0.00  0.00    +0.000 A 
ATOM      4  C   UNL     1       2.575   2.773  17.476  0.00  0.00    +0.000 A 
ATOM      5  C   UNL     1       3.320   3.937  17.299  0.00  0.00    +0.000 A 
ATOM      6  C   UNL     1       3.075   5.036  18.137  0.00  0.00    +0.000 A 
ATOM      7  C   UNL     1       2.178   4.950  19.219  0.00  0.00    +0.000 A 
BRANCH   2   8
ATOM      8  O   UNL     1       0.711   3.621  20.545  0.00  0.00    +0.000 OA
BRANCH   8  10
ATOM      9  C   UNL     1       2.650   2.667  21.610  0.00  0.00    +0.000 C 
ATOM     10  C   UNL     1       1.147   2.592  21.449  0.00  0.00    +0.000 C 
ENDBRANCH   8  10
ENDBRANCH   2   8
BRANCH   5  11
ATOM     11  C   UNL     1       4.388   3.997  16.235  0.00  0.00    +0.000 C 
BRANCH  11  12
ATOM     12  N   UNL     1       5.537   4.829  16.520  0.00  0.00    +0.000 NA
ATOM     13  C   UNL     1       6.206   4.562  17.800  0.00  0.00    +0.000 C 
ATOM     14  C   UNL     1       6.961   5.841  18.031  0.00  0.00    +0.000 A 
ATOM     15  C   UNL     1       7.899   6.098  18.990  0.00  0.00    +0.000 A 
ATOM     16  C   UNL     1       8.492   7.348  19.033  0.00  0.00    +0.000 A 
ATOM     17  C   UNL     1       8.171   8.314  18.074  0.00  0.00    +0.000 A 
ATOM     18  C   UNL     1       7.179   8.049  17.123  0.00  0.00    +0.000 A 
ATOM     19  C   UNL     1       6.561   6.823  17.147  0.00  0.00    +0.000 A 
ATOM     20  C   UNL     1       5.378   6.285  16.397  0.00  0.00    +0.000 C 
ENDBRANCH  11  12
ENDBRANCH   5  11
ENDBRANCH   1   7
BRANCH   1  21
ATOM     21  N   UNL     1       2.093   7.407  19.439  0.00  0.00    +0.000 N 
ATOM     22  C   UNL     1       1.530   8.576  19.934  0.00  0.00    +0.000 C 
ATOM     23  O   UNL     1       0.910   8.637  20.990  0.00  0.00    +0.000 OA
ATOM     24  H   UNL     1       2.655   7.447  18.601  0.00  0.00    +0.000 HD
BRANCH  22  25
ATOM     25  C   UNL     1       1.699   9.763  18.954  0.00  0.00    +0.000 C 
BRANCH  25  26
ATOM     26  N   UNL     1       1.770   9.217  17.567  0.00  0.00    +0.000 NA
ATOM     27  H   UNL     1       2.731   8.909  17.399  0.00  0.00    +0.000 HD
ATOM     28  H   UNL     1       1.608   9.968  16.899  0.00  0.00    +0.000 HD
ENDBRANCH  25  26
BRANCH  25  29
ATOM     29  C   UNL     1       0.577  10.824  18.999  0.00  0.00    +0.000 C 
BRANCH  29  30
ATOM     30  C   UNL     1       0.792  12.084  19.831  0.00  0.00    +0.000 A 
ATOM     31  C   UNL     1       1.619  13.143  19.370  0.00  0.00    +0.000 A 
ATOM     32  C   UNL     1       2.394  13.127  18.078  0.00  0.00    +0.000 C 
ATOM     33  C   UNL     1       1.703  14.335  20.113  0.00  0.00    +0.000 A 
ATOM     34  C   UNL     1       0.939  14.505  21.257  0.00  0.00    +0.000 A 
ATOM     35  C   UNL     1       0.170  13.474  21.751  0.00  0.00    +0.000 A 
ATOM     36  C   UNL     1       0.041  12.283  21.027  0.00  0.00    +0.000 A 
ATOM     37  C   UNL     1      -1.038  11.347  21.508  0.00  0.00    +0.000 C 
BRANCH  34  38
ATOM     38  O   UNL     1       0.946  15.669  21.965  0.00  0.00    +0.000 OA
ATOM     39  H   UNL     1       1.857  15.841  22.251  0.00  0.00    +0.000 HD
ENDBRANCH  34  38
ENDBRANCH  29  30
ENDBRANCH  25  29
ENDBRANCH  22  25
ENDBRANCH   1  21
TORSDOF 11
ENDMDL
