MODEL 1
REMARK VINA RESULT:      -8.3      0.000      0.000
REMARK  Name = 
REMARK  5 active torsions:
REMARK  status: ('A' for Active; 'I' for Inactive)
REMARK    1  A    between atoms: C_1  and  C_2
REMARK    2  A    between atoms: C_5  and  C_6
REMARK    3  A    between atoms: C_9  and  C_10
REMARK    4  A    between atoms: C_15  and  C_17
REMARK    5  A    between atoms: C_21  and  N_22
REMARK                            x       y       z     vdW  Elec       q    Type
REMARK                         _______ _______ _______ _____ _____    ______ ____
ROOT
ATOM      1  C   UNL     1       7.098   5.265  16.131  0.00  0.00    +0.000 C 
ATOM      2  C   UNL     1       6.127   5.833  15.075  0.00  0.00    +0.000 C 
ATOM      3  C   UNL     1       4.740   6.096  15.653  0.00  0.00    +0.000 C 
ATOM      4  C   UNL     1       4.189   4.867  16.358  0.00  0.00    +0.000 C 
ATOM      5  N   UNL     1       5.131   4.339  17.351  0.00  0.00    +0.000 N 
ATOM      6  C   UNL     1       4.974   4.269  18.738  0.00  0.00    +0.000 C 
ATOM      7  O   UNL     1       5.846   3.809  19.480  0.00  0.00    +0.000 OA
ATOM      8  C   UNL     1       6.458   4.028  16.799  0.00  0.00    +0.000 C 
ENDROOT
BRANCH   6   9
ATOM      9  C   UNL     1       3.754   4.775  19.424  0.00  0.00    +0.000 A 
ATOM     10  C   UNL     1       2.947   3.851  20.111  0.00  0.00    +0.000 A 
ATOM     11  C   UNL     1       1.770   4.262  20.748  0.00  0.00    +0.000 A 
ATOM     12  C   UNL     1       1.403   5.605  20.731  0.00  0.00    +0.000 A 
ATOM     13  C   UNL     1       2.196   6.524  20.036  0.00  0.00    +0.000 A 
ATOM     14  C   UNL     1       3.337   6.105  19.342  0.00  0.00    +0.000 A 
BRANCH  13  15
ATOM     15  N   UNL     1       1.849   7.951  20.022  0.00  0.00    +0.000 N 
ATOM     16  O   UNL     1       1.958   8.554  18.942  0.00  0.00    +0.000 OA
ATOM     17  O   UNL     1       1.446   8.457  21.074  0.00  0.00    +0.000 OA
ENDBRANCH  13  15
ENDBRANCH   6   9
BRANCH   1  21
ATOM     18  C   UNL     1       8.134   7.973  18.218  0.00  0.00    +0.000 A 
ATOM     19  N   UNL     1       8.328   6.967  19.083  0.00  0.00    +0.000 NA
ATOM     20  O   UNL     1       7.870   5.850  18.384  0.00  0.00    +0.000 OA
ATOM     21  C   UNL     1       7.477   6.293  17.152  0.00  0.00    +0.000 A 
ATOM     22  N   UNL     1       7.550   7.596  17.033  0.00  0.00    +0.000 NA
BRANCH  18  27
ATOM     23  C   UNL     1      10.503  11.764  20.290  0.00  0.00    +0.000 C 
ATOM     24  C   UNL     1       9.617  11.116  19.304  0.00  0.00    +0.000 A 
ATOM     25  C   UNL     1       9.003  11.555  18.152  0.00  0.00    +0.000 A 
ATOM     26  C   UNL     1       8.341  10.431  17.606  0.00  0.00    +0.000 A 
ATOM     27  C   UNL     1       8.583   9.370  18.459  0.00  0.00    +0.000 A 
ATOM     28  O   UNL     1       9.343   9.799  19.513  0.00  0.00    +0.000 OA
ENDBRANCH  18  27
ENDBRANCH   1  21
TORSDOF 4
ENDMDL
MODEL 2
REMARK VINA RESULT:      -8.3      0.659      1.043
REMARK  Name = 
REMARK  5 active torsions:
REMARK  status: ('A' for Active; 'I' for Inactive)
REMARK    1  A    between atoms: C_1  and  C_2
REMARK    2  A    between atoms: C_5  and  C_6
REMARK    3  A    between atoms: C_9  and  C_10
REMARK    4  A    between atoms: C_15  and  C_17
REMARK    5  A    between atoms: C_21  and  N_22
REMARK                            x       y       z     vdW  Elec       q    Type
REMARK                         _______ _______ _______ _____ _____    ______ ____
ROOT
ATOM      1  C   UNL     1       7.150   5.237  16.180  0.00  0.00    +0.000 C 
ATOM      2  C   UNL     1       6.189   5.724  15.075  0.00  0.00    +0.000 C 
ATOM      3  C   UNL     1       4.791   6.011  15.616  0.00  0.00    +0.000 C 
ATOM      4  C   UNL     1       4.241   4.825  16.392  0.00  0.00    +0.000 C 
ATOM      5  N   UNL     1       5.173   4.373  17.431  0.00  0.00    +0.000 N 
ATOM      6  C   UNL     1       4.997   4.393  18.818  0.00  0.00    +0.000 C 
ATOM      7  O   UNL     1       5.862   3.992  19.600  0.00  0.00    +0.000 OA
ATOM      8  C   UNL     1       6.512   4.041  16.919  0.00  0.00    +0.000 C 
ENDROOT
BRANCH   6   9
ATOM      9  C   UNL     1       3.762   4.932  19.452  0.00  0.00    +0.000 A 
ATOM     10  C   UNL     1       2.953   4.046  20.186  0.00  0.00    +0.000 A 
ATOM     11  C   UNL     1       1.763   4.486  20.777  0.00  0.00    +0.000 A 
ATOM     12  C   UNL     1       1.384   5.822  20.668  0.00  0.00    +0.000 A 
ATOM     13  C   UNL     1       2.180   6.702  19.927  0.00  0.00    +0.000 A 
ATOM     14  C   UNL     1       3.335   6.249  19.278  0.00  0.00    +0.000 A 
BRANCH  13  15
ATOM     15  N   UNL     1       1.821   8.121  19.815  0.00  0.00    +0.000 N 
ATOM     16  O   UNL     1       1.980   8.664  18.710  0.00  0.00    +0.000 OA
ATOM     17  O   UNL     1       1.360   8.680  20.815  0.00  0.00    +0.000 OA
ENDBRANCH  13  15
ENDBRANCH   6   9
BRANCH   1  21
ATOM     18  C   UNL     1       8.111   8.094  18.096  0.00  0.00    +0.000 A 
ATOM     19  N   UNL     1       8.359   7.146  19.011  0.00  0.00    +0.000 NA
ATOM     20  O   UNL     1       7.935   5.976  18.383  0.00  0.00    +0.000 OA
ATOM     21  C   UNL     1       7.503   6.334  17.136  0.00  0.00    +0.000 A 
ATOM     22  N   UNL     1       7.523   7.631  16.945  0.00  0.00    +0.000 NA
BRANCH  18  27
ATOM     23  C   UNL     1       8.168  12.971  17.387  0.00  0.00    +0.000 C 
ATOM     24  C   UNL     1       8.585  11.704  18.019  0.00  0.00    +0.000 A 
ATOM     25  C   UNL     1       9.391  11.404  19.096  0.00  0.00    +0.000 A 
ATOM     26  C   UNL     1       9.337  10.000  19.248  0.00  0.00    +0.000 A 
ATOM     27  C   UNL     1       8.507   9.520  18.252  0.00  0.00    +0.000 A 
ATOM     28  O   UNL     1       8.069  10.564  17.484  0.00  0.00    +0.000 OA
ENDBRANCH  18  27
ENDBRANCH   1  21
TORSDOF 4
ENDMDL
MODEL 3
REMARK VINA RESULT:      -8.2      3.939      5.220
REMARK  Name = 
REMARK  5 active torsions:
REMARK  status: ('A' for Active; 'I' for Inactive)
REMARK    1  A    between atoms: C_1  and  C_2
REMARK    2  A    between atoms: C_5  and  C_6
REMARK    3  A    between atoms: C_9  and  C_10
REMARK    4  A    between atoms: C_15  and  C_17
REMARK    5  A    between atoms: C_21  and  N_22
REMARK                            x       y       z     vdW  Elec       q    Type
REMARK                         _______ _______ _______ _____ _____    ______ ____
ROOT
ATOM      1  C   UNL     1       3.751   2.592  18.402  0.00  0.00    +0.000 C 
ATOM      2  C   UNL     1       2.434   2.270  17.667  0.00  0.00    +0.000 C 
ATOM      3  C   UNL     1       1.561   3.509  17.483  0.00  0.00    +0.000 C 
ATOM      4  C   UNL     1       1.337   4.230  18.803  0.00  0.00    +0.000 C 
ATOM      5  N   UNL     1       2.601   4.519  19.489  0.00  0.00    +0.000 N 
ATOM      6  C   UNL     1       3.163   5.766  19.775  0.00  0.00    +0.000 C 
ATOM      7  O   UNL     1       4.246   5.886  20.354  0.00  0.00    +0.000 OA
ATOM      8  C   UNL     1       3.431   3.327  19.722  0.00  0.00    +0.000 C 
ENDROOT
BRANCH   6   9
ATOM      9  C   UNL     1       2.510   7.041  19.370  0.00  0.00    +0.000 A 
ATOM     10  C   UNL     1       2.742   7.522  18.069  0.00  0.00    +0.000 A 
ATOM     11  C   UNL     1       2.182   8.730  17.641  0.00  0.00    +0.000 A 
ATOM     12  C   UNL     1       1.357   9.457  18.497  0.00  0.00    +0.000 A 
ATOM     13  C   UNL     1       1.136   8.988  19.797  0.00  0.00    +0.000 A 
ATOM     14  C   UNL     1       1.750   7.814  20.249  0.00  0.00    +0.000 A 
BRANCH  13  15
ATOM     15  N   UNL     1       0.251   9.718  20.714  0.00  0.00    +0.000 N 
ATOM     16  O   UNL     1       0.356   9.469  21.926  0.00  0.00    +0.000 OA
ATOM     17  O   UNL     1      -0.522  10.550  20.230  0.00  0.00    +0.000 OA
ENDBRANCH  13  15
ENDBRANCH   6   9
BRANCH   1  21
ATOM     18  C   UNL     1       5.888   4.213  16.043  0.00  0.00    +0.000 A 
ATOM     19  N   UNL     1       6.525   4.568  17.169  0.00  0.00    +0.000 NA
ATOM     20  O   UNL     1       5.715   4.045  18.175  0.00  0.00    +0.000 OA
ATOM     21  C   UNL     1       4.685   3.396  17.552  0.00  0.00    +0.000 A 
ATOM     22  N   UNL     1       4.710   3.537  16.249  0.00  0.00    +0.000 NA
BRANCH  18  27
ATOM     23  C   UNL     1       8.726   6.041  12.453  0.00  0.00    +0.000 C 
ATOM     24  C   UNL     1       7.665   5.184  13.016  0.00  0.00    +0.000 A 
ATOM     25  C   UNL     1       6.894   4.167  12.497  0.00  0.00    +0.000 A 
ATOM     26  C   UNL     1       6.104   3.687  13.566  0.00  0.00    +0.000 A 
ATOM     27  C   UNL     1       6.432   4.440  14.677  0.00  0.00    +0.000 A 
ATOM     28  O   UNL     1       7.369   5.375  14.332  0.00  0.00    +0.000 OA
ENDBRANCH  18  27
ENDBRANCH   1  21
TORSDOF 4
ENDMDL
MODEL 4
REMARK VINA RESULT:      -7.8      3.273      6.453
REMARK  Name = 
REMARK  5 active torsions:
REMARK  status: ('A' for Active; 'I' for Inactive)
REMARK    1  A    between atoms: C_1  and  C_2
REMARK    2  A    between atoms: C_5  and  C_6
REMARK    3  A    between atoms: C_9  and  C_10
REMARK    4  A    between atoms: C_15  and  C_17
REMARK    5  A    between atoms: C_21  and  N_22
REMARK                            x       y       z     vdW  Elec       q    Type
REMARK                         _______ _______ _______ _____ _____    ______ ____
ROOT
ATOM      1  C   UNL     1       1.546   2.858  20.341  0.00  0.00    +0.000 C 
ATOM      2  C   UNL     1       2.572   2.200  21.287  0.00  0.00    +0.000 C 
ATOM      3  C   UNL     1       4.006   2.390  20.801  0.00  0.00    +0.000 C 
ATOM      4  C   UNL     1       4.166   1.942  19.357  0.00  0.00    +0.000 C 
ATOM      5  N   UNL     1       3.177   2.572  18.476  0.00  0.00    +0.000 N 
ATOM      6  C   UNL     1       3.401   3.468  17.427  0.00  0.00    +0.000 C 
ATOM      7  O   UNL     1       2.482   3.944  16.756  0.00  0.00    +0.000 OA
ATOM      8  C   UNL     1       1.785   2.354  18.901  0.00  0.00    +0.000 C 
ENDROOT
BRANCH   6   9
ATOM      9  C   UNL     1       4.766   3.938  17.065  0.00  0.00    +0.000 A 
ATOM     10  C   UNL     1       5.240   3.664  15.769  0.00  0.00    +0.000 A 
ATOM     11  C   UNL     1       6.527   4.052  15.381  0.00  0.00    +0.000 A 
ATOM     12  C   UNL     1       7.344   4.745  16.271  0.00  0.00    +0.000 A 
ATOM     13  C   UNL     1       6.881   5.006  17.565  0.00  0.00    +0.000 A 
ATOM     14  C   UNL     1       5.620   4.560  17.977  0.00  0.00    +0.000 A 
BRANCH  13  15
ATOM     15  N   UNL     1       7.708   5.756  18.518  0.00  0.00    +0.000 N 
ATOM     16  O   UNL     1       8.165   5.133  19.490  0.00  0.00    +0.000 OA
ATOM     17  O   UNL     1       7.920   6.950  18.283  0.00  0.00    +0.000 OA
ENDBRANCH  13  15
ENDBRANCH   6   9
BRANCH   1  21
ATOM     18  C   UNL     1       1.728   6.413  20.043  0.00  0.00    +0.000 A 
ATOM     19  N   UNL     1       2.237   6.288  21.277  0.00  0.00    +0.000 NA
ATOM     20  O   UNL     1       2.135   4.921  21.530  0.00  0.00    +0.000 OA
ATOM     21  C   UNL     1       1.605   4.353  20.405  0.00  0.00    +0.000 A 
ATOM     22  N   UNL     1       1.270   5.238  19.498  0.00  0.00    +0.000 NA
BRANCH  18  27
ATOM     23  C   UNL     1       1.035  11.181  19.012  0.00  0.00    +0.000 C 
ATOM     24  C   UNL     1       1.477   9.802  18.733  0.00  0.00    +0.000 A 
ATOM     25  C   UNL     1       2.192   9.226  17.706  0.00  0.00    +0.000 A 
ATOM     26  C   UNL     1       2.357   7.866  18.054  0.00  0.00    +0.000 A 
ATOM     27  C   UNL     1       1.728   7.685  19.272  0.00  0.00    +0.000 A 
ATOM     28  O   UNL     1       1.166   8.867  19.673  0.00  0.00    +0.000 OA
ENDBRANCH  18  27
ENDBRANCH   1  21
TORSDOF 4
ENDMDL
MODEL 5
REMARK VINA RESULT:      -7.8      3.886      6.715
REMARK  Name = 
REMARK  5 active torsions:
REMARK  status: ('A' for Active; 'I' for Inactive)
REMARK    1  A    between atoms: C_1  and  C_2
REMARK    2  A    between atoms: C_5  and  C_6
REMARK    3  A    between atoms: C_9  and  C_10
REMARK    4  A    between atoms: C_15  and  C_17
REMARK    5  A    between atoms: C_21  and  N_22
REMARK                            x       y       z     vdW  Elec       q    Type
REMARK                         _______ _______ _______ _____ _____    ______ ____
ROOT
ATOM      1  C   UNL     1       1.638   2.748  20.324  0.00  0.00    +0.000 C 
ATOM      2  C   UNL     1       2.677   2.112  21.269  0.00  0.00    +0.000 C 
ATOM      3  C   UNL     1       4.107   2.330  20.782  0.00  0.00    +0.000 C 
ATOM      4  C   UNL     1       4.275   1.884  19.338  0.00  0.00    +0.000 C 
ATOM      5  N   UNL     1       3.272   2.494  18.458  0.00  0.00    +0.000 N 
ATOM      6  C   UNL     1       3.477   3.393  17.407  0.00  0.00    +0.000 C 
ATOM      7  O   UNL     1       2.548   3.850  16.737  0.00  0.00    +0.000 OA
ATOM      8  C   UNL     1       1.886   2.248  18.884  0.00  0.00    +0.000 C 
ENDROOT
BRANCH   6   9
ATOM      9  C   UNL     1       4.832   3.891  17.043  0.00  0.00    +0.000 A 
ATOM     10  C   UNL     1       5.711   4.243  18.083  0.00  0.00    +0.000 A 
ATOM     11  C   UNL     1       6.986   4.747  17.804  0.00  0.00    +0.000 A 
ATOM     12  C   UNL     1       7.410   4.875  16.483  0.00  0.00    +0.000 A 
ATOM     13  C   UNL     1       6.533   4.538  15.447  0.00  0.00    +0.000 A 
ATOM     14  C   UNL     1       5.233   4.098  15.723  0.00  0.00    +0.000 A 
BRANCH  13  15
ATOM     15  N   UNL     1       6.959   4.638  14.045  0.00  0.00    +0.000 N 
ATOM     16  O   UNL     1       7.846   5.463  13.776  0.00  0.00    +0.000 OA
ATOM     17  O   UNL     1       6.431   3.879  13.226  0.00  0.00    +0.000 OA
ENDBRANCH  13  15
ENDBRANCH   6   9
BRANCH   1  21
ATOM     18  C   UNL     1       1.769   6.305  20.025  0.00  0.00    +0.000 A 
ATOM     19  N   UNL     1       2.219   6.192  21.283  0.00  0.00    +0.000 NA
ATOM     20  O   UNL     1       2.130   4.823  21.534  0.00  0.00    +0.000 OA
ATOM     21  C   UNL     1       1.666   4.243  20.386  0.00  0.00    +0.000 A 
ATOM     22  N   UNL     1       1.360   5.121  19.462  0.00  0.00    +0.000 NA
BRANCH  18  27
ATOM     23  C   UNL     1       1.131  11.079  18.985  0.00  0.00    +0.000 C 
ATOM     24  C   UNL     1       1.557   9.694  18.709  0.00  0.00    +0.000 A 
ATOM     25  C   UNL     1       2.265   9.108  17.682  0.00  0.00    +0.000 A 
ATOM     26  C   UNL     1       2.414   7.746  18.033  0.00  0.00    +0.000 A 
ATOM     27  C   UNL     1       1.783   7.575  19.252  0.00  0.00    +0.000 A 
ATOM     28  O   UNL     1       1.236   8.764  19.650  0.00  0.00    +0.000 OA
ENDBRANCH  18  27
ENDBRANCH   1  21
TORSDOF 4
ENDMDL
MODEL 6
REMARK VINA RESULT:      -7.7      3.286      6.844
REMARK  Name = 
REMARK  5 active torsions:
REMARK  status: ('A' for Active; 'I' for Inactive)
REMARK    1  A    between atoms: C_1  and  C_2
REMARK    2  A    between atoms: C_5  and  C_6
REMARK    3  A    between atoms: C_9  and  C_10
REMARK    4  A    between atoms: C_15  and  C_17
REMARK    5  A    between atoms: C_21  and  N_22
REMARK                            x       y       z     vdW  Elec       q    Type
REMARK                         _______ _______ _______ _____ _____    ______ ____
ROOT
ATOM      1  C   UNL     1       1.338   3.465  20.432  0.00  0.00    +0.000 C 
ATOM      2  C   UNL     1       2.245   2.663  21.388  0.00  0.00    +0.000 C 
ATOM      3  C   UNL     1       3.705   2.678  20.943  0.00  0.00    +0.000 C 
ATOM      4  C   UNL     1       3.847   2.242  19.493  0.00  0.00    +0.000 C 
ATOM      5  N   UNL     1       2.970   3.010  18.603  0.00  0.00    +0.000 N 
ATOM      6  C   UNL     1       3.335   3.891  17.580  0.00  0.00    +0.000 C 
ATOM      7  O   UNL     1       2.503   4.493  16.898  0.00  0.00    +0.000 OA
ATOM      8  C   UNL     1       1.551   2.963  18.987  0.00  0.00    +0.000 C 
ENDROOT
BRANCH   6   9
ATOM      9  C   UNL     1       4.759   4.190  17.263  0.00  0.00    +0.000 A 
ATOM     10  C   UNL     1       5.257   3.794  16.009  0.00  0.00    +0.000 A 
ATOM     11  C   UNL     1       6.594   4.018  15.665  0.00  0.00    +0.000 A 
ATOM     12  C   UNL     1       7.442   4.668  16.559  0.00  0.00    +0.000 A 
ATOM     13  C   UNL     1       6.954   5.050  17.813  0.00  0.00    +0.000 A 
ATOM     14  C   UNL     1       5.634   4.766  18.184  0.00  0.00    +0.000 A 
BRANCH  13  15
ATOM     15  N   UNL     1       7.816   5.759  18.767  0.00  0.00    +0.000 N 
ATOM     16  O   UNL     1       8.070   6.951  18.529  0.00  0.00    +0.000 OA
ATOM     17  O   UNL     1       8.213   5.138  19.758  0.00  0.00    +0.000 OA
ENDBRANCH  13  15
ENDBRANCH   6   9
BRANCH   1  21
ATOM     18  C   UNL     1       1.474   7.027  20.657  0.00  0.00    +0.000 A 
ATOM     19  N   UNL     1       2.654   6.818  20.056  0.00  0.00    +0.000 NA
ATOM     20  O   UNL     1       2.740   5.428  19.991  0.00  0.00    +0.000 OA
ATOM     21  C   UNL     1       1.584   4.938  20.532  0.00  0.00    +0.000 A 
ATOM     22  N   UNL     1       0.813   5.879  21.021  0.00  0.00    +0.000 NA
BRANCH  18  27
ATOM     23  C   UNL     1      -0.798  10.788  22.887  0.00  0.00    +0.000 C 
ATOM     24  C   UNL     1      -0.116  10.109  21.770  0.00  0.00    +0.000 A 
ATOM     25  C   UNL     1       0.343  10.534  20.542  0.00  0.00    +0.000 A 
ATOM     26  C   UNL     1       0.980   9.418  19.952  0.00  0.00    +0.000 A 
ATOM     27  C   UNL     1       0.869   8.372  20.848  0.00  0.00    +0.000 A 
ATOM     28  O   UNL     1       0.173   8.790  21.950  0.00  0.00    +0.000 OA
ENDBRANCH  18  27
ENDBRANCH   1  21
TORSDOF 4
ENDMDL
MODEL 7
REMARK VINA RESULT:      -7.7      1.916      2.121
REMARK  Name = 
REMARK  5 active torsions:
REMARK  status: ('A' for Active; 'I' for Inactive)
REMARK    1  A    between atoms: C_1  and  C_2
REMARK    2  A    between atoms: C_5  and  C_6
REMARK    3  A    between atoms: C_9  and  C_10
REMARK    4  A    between atoms: C_15  and  C_17
REMARK    5  A    between atoms: C_21  and  N_22
REMARK                            x       y       z     vdW  Elec       q    Type
REMARK                         _______ _______ _______ _____ _____    ______ ____
ROOT
ATOM      1  C   UNL     1       7.325   5.424  16.006  0.00  0.00    +0.000 C 
ATOM      2  C   UNL     1       6.314   5.947  14.965  0.00  0.00    +0.000 C 
ATOM      3  C   UNL     1       4.909   6.081  15.546  0.00  0.00    +0.000 C 
ATOM      4  C   UNL     1       4.457   4.789  16.209  0.00  0.00    +0.000 C 
ATOM      5  N   UNL     1       5.436   4.305  17.188  0.00  0.00    +0.000 N 
ATOM      6  C   UNL     1       5.284   4.177  18.572  0.00  0.00    +0.000 C 
ATOM      7  O   UNL     1       6.188   3.764  19.301  0.00  0.00    +0.000 OA
ATOM      8  C   UNL     1       6.785   4.119  16.631  0.00  0.00    +0.000 C 
ENDROOT
BRANCH   6   9
ATOM      9  C   UNL     1       4.026   4.563  19.269  0.00  0.00    +0.000 A 
ATOM     10  C   UNL     1       3.714   5.931  19.366  0.00  0.00    +0.000 A 
ATOM     11  C   UNL     1       2.562   6.357  20.037  0.00  0.00    +0.000 A 
ATOM     12  C   UNL     1       1.693   5.421  20.591  0.00  0.00    +0.000 A 
ATOM     13  C   UNL     1       2.008   4.060  20.508  0.00  0.00    +0.000 A 
ATOM     14  C   UNL     1       3.194   3.636  19.896  0.00  0.00    +0.000 A 
BRANCH  13  15
ATOM     15  N   UNL     1       1.099   3.048  21.060  0.00  0.00    +0.000 N 
ATOM     16  O   UNL     1       0.204   2.618  20.315  0.00  0.00    +0.000 OA
ATOM     17  O   UNL     1       1.295   2.667  22.218  0.00  0.00    +0.000 OA
ENDBRANCH  13  15
ENDBRANCH   6   9
BRANCH   1  21
ATOM     18  C   UNL     1       8.188   8.117  18.189  0.00  0.00    +0.000 A 
ATOM     19  N   UNL     1       8.311   7.105  19.060  0.00  0.00    +0.000 NA
ATOM     20  O   UNL     1       7.911   5.993  18.319  0.00  0.00    +0.000 OA
ATOM     21  C   UNL     1       7.619   6.445  17.062  0.00  0.00    +0.000 A 
ATOM     22  N   UNL     1       7.703   7.749  16.958  0.00  0.00    +0.000 NA
BRANCH  18  27
ATOM     23  C   UNL     1      10.546  11.868  20.346  0.00  0.00    +0.000 C 
ATOM     24  C   UNL     1       9.642  11.243  19.362  0.00  0.00    +0.000 A 
ATOM     25  C   UNL     1       8.983  11.717  18.248  0.00  0.00    +0.000 A 
ATOM     26  C   UNL     1       8.326  10.603  17.676  0.00  0.00    +0.000 A 
ATOM     27  C   UNL     1       8.616   9.512  18.475  0.00  0.00    +0.000 A 
ATOM     28  O   UNL     1       9.401   9.913  19.523  0.00  0.00    +0.000 OA
ENDBRANCH  18  27
ENDBRANCH   1  21
TORSDOF 4
ENDMDL
MODEL 8
REMARK VINA RESULT:      -7.7      4.077      5.818
REMARK  Name = 
REMARK  5 active torsions:
REMARK  status: ('A' for Active; 'I' for Inactive)
REMARK    1  A    between atoms: C_1  and  C_2
REMARK    2  A    between atoms: C_5  and  C_6
REMARK    3  A    between atoms: C_9  and  C_10
REMARK    4  A    between atoms: C_15  and  C_17
REMARK    5  A    between atoms: C_21  and  N_22
REMARK                            x       y       z     vdW  Elec       q    Type
REMARK                         _______ _______ _______ _____ _____    ______ ____
ROOT
ATOM      1  C   UNL     1       2.673   2.177  19.429  0.00  0.00    +0.000 C 
ATOM      2  C   UNL     1       1.141   1.998  19.448  0.00  0.00    +0.000 C 
ATOM      3  C   UNL     1       0.405   3.329  19.334  0.00  0.00    +0.000 C 
ATOM      4  C   UNL     1       0.894   4.325  20.375  0.00  0.00    +0.000 C 
ATOM      5  N   UNL     1       2.352   4.474  20.345  0.00  0.00    +0.000 N 
ATOM      6  C   UNL     1       3.098   5.610  20.015  0.00  0.00    +0.000 C 
ATOM      7  O   UNL     1       4.332   5.614  20.016  0.00  0.00    +0.000 OA
ATOM      8  C   UNL     1       3.079   3.205  20.508  0.00  0.00    +0.000 C 
ENDROOT
BRANCH   6   9
ATOM      9  C   UNL     1       2.455   6.888  19.606  0.00  0.00    +0.000 A 
ATOM     10  C   UNL     1       2.520   7.260  18.251  0.00  0.00    +0.000 A 
ATOM     11  C   UNL     1       1.962   8.465  17.811  0.00  0.00    +0.000 A 
ATOM     12  C   UNL     1       1.305   9.298  18.714  0.00  0.00    +0.000 A 
ATOM     13  C   UNL     1       1.250   8.938  20.064  0.00  0.00    +0.000 A 
ATOM     14  C   UNL     1       1.867   7.765  20.518  0.00  0.00    +0.000 A 
BRANCH  13  15
ATOM     15  N   UNL     1       0.543   9.781  21.035  0.00  0.00    +0.000 N 
ATOM     16  O   UNL     1      -0.553  10.251  20.691  0.00  0.00    +0.000 OA
ATOM     17  O   UNL     1       1.066   9.951  22.141  0.00  0.00    +0.000 OA
ENDBRANCH  13  15
ENDBRANCH   6   9
BRANCH   1  21
ATOM     18  C   UNL     1       4.216   3.339  16.424  0.00  0.00    +0.000 A 
ATOM     19  N   UNL     1       2.938   3.381  16.023  0.00  0.00    +0.000 NA
ATOM     20  O   UNL     1       2.241   2.861  17.114  0.00  0.00    +0.000 OA
ATOM     21  C   UNL     1       3.171   2.589  18.079  0.00  0.00    +0.000 A 
ATOM     22  N   UNL     1       4.400   2.795  17.672  0.00  0.00    +0.000 NA
BRANCH  18  27
ATOM     23  C   UNL     1       7.070   4.408  12.552  0.00  0.00    +0.000 C 
ATOM     24  C   UNL     1       6.667   4.450  13.970  0.00  0.00    +0.000 A 
ATOM     25  C   UNL     1       7.117   5.161  15.062  0.00  0.00    +0.000 A 
ATOM     26  C   UNL     1       6.267   4.813  16.136  0.00  0.00    +0.000 A 
ATOM     27  C   UNL     1       5.349   3.905  15.643  0.00  0.00    +0.000 A 
ATOM     28  O   UNL     1       5.613   3.663  14.323  0.00  0.00    +0.000 OA
ENDBRANCH  18  27
ENDBRANCH   1  21
TORSDOF 4
ENDMDL
MODEL 9
REMARK VINA RESULT:      -7.6      1.990      2.389
REMARK  Name = 
REMARK  5 active torsions:
REMARK  status: ('A' for Active; 'I' for Inactive)
REMARK    1  A    between atoms: C_1  and  C_2
REMARK    2  A    between atoms: C_5  and  C_6
REMARK    3  A    between atoms: C_9  and  C_10
REMARK    4  A    between atoms: C_15  and  C_17
REMARK    5  A    between atoms: C_21  and  N_22
REMARK                            x       y       z     vdW  Elec       q    Type
REMARK                         _______ _______ _______ _____ _____    ______ ____
ROOT
ATOM      1  C   UNL     1       7.336   5.363  16.012  0.00  0.00    +0.000 C 
ATOM      2  C   UNL     1       6.320   5.813  14.942  0.00  0.00    +0.000 C 
ATOM      3  C   UNL     1       4.909   5.947  15.509  0.00  0.00    +0.000 C 
ATOM      4  C   UNL     1       4.479   4.680  16.232  0.00  0.00    +0.000 C 
ATOM      5  N   UNL     1       5.463   4.265  17.239  0.00  0.00    +0.000 N 
ATOM      6  C   UNL     1       5.305   4.202  18.627  0.00  0.00    +0.000 C 
ATOM      7  O   UNL     1       6.214   3.844  19.380  0.00  0.00    +0.000 OA
ATOM      8  C   UNL     1       6.818   4.079  16.698  0.00  0.00    +0.000 C 
ENDROOT
BRANCH   6   9
ATOM      9  C   UNL     1       4.036   4.596  19.298  0.00  0.00    +0.000 A 
ATOM     10  C   UNL     1       3.733   5.966  19.393  0.00  0.00    +0.000 A 
ATOM     11  C   UNL     1       2.571   6.399  20.041  0.00  0.00    +0.000 A 
ATOM     12  C   UNL     1       1.682   5.468  20.573  0.00  0.00    +0.000 A 
ATOM     13  C   UNL     1       1.988   4.105  20.492  0.00  0.00    +0.000 A 
ATOM     14  C   UNL     1       3.183   3.673  19.904  0.00  0.00    +0.000 A 
BRANCH  13  15
ATOM     15  N   UNL     1       1.059   3.099  21.021  0.00  0.00    +0.000 N 
ATOM     16  O   UNL     1       1.214   2.743  22.200  0.00  0.00    +0.000 OA
ATOM     17  O   UNL     1       0.168   2.686  20.272  0.00  0.00    +0.000 OA
ENDBRANCH  13  15
ENDBRANCH   6   9
BRANCH   1  21
ATOM     18  C   UNL     1       8.130   8.177  18.063  0.00  0.00    +0.000 A 
ATOM     19  N   UNL     1       8.274   7.212  18.983  0.00  0.00    +0.000 NA
ATOM     20  O   UNL     1       7.903   6.057  18.296  0.00  0.00    +0.000 OA
ATOM     21  C   UNL     1       7.603   6.440  17.018  0.00  0.00    +0.000 A 
ATOM     22  N   UNL     1       7.656   7.739  16.851  0.00  0.00    +0.000 NA
BRANCH  18  27
ATOM     23  C   UNL     1       8.237  13.073  17.514  0.00  0.00    +0.000 C 
ATOM     24  C   UNL     1       8.620  11.785  18.123  0.00  0.00    +0.000 A 
ATOM     25  C   UNL     1       9.375  11.447  19.225  0.00  0.00    +0.000 A 
ATOM     26  C   UNL     1       9.310  10.039  19.330  0.00  0.00    +0.000 A 
ATOM     27  C   UNL     1       8.524   9.595  18.283  0.00  0.00    +0.000 A 
ATOM     28  O   UNL     1       8.125  10.665  17.529  0.00  0.00    +0.000 OA
ENDBRANCH  18  27
ENDBRANCH   1  21
TORSDOF 4
ENDMDL
