MODEL 1
REMARK VINA RESULT:      -7.0      0.000      0.000
REMARK  Name = 
REMARK  8 active torsions:
REMARK  status: ('A' for Active; 'I' for Inactive)
REMARK    1  A    between atoms: C_1  and  O_2
REMARK    2  A    between atoms: O_2  and  C_3
REMARK    3  A    between atoms: C_10  and  C_11
REMARK    4  A    between atoms: N_17  and  C_18
REMARK    5  A    between atoms: C_22  and  O_23
REMARK    6  A    between atoms: O_23  and  C_24
REMARK    7  A    between atoms: C_25  and  O_26
REMARK    8  A    between atoms: O_26  and  C_27
REMARK                            x       y       z     vdW  Elec       q    Type
REMARK                         _______ _______ _______ _____ _____    ______ ____
ROOT
ATOM      1  C   UNL     1      -6.344  12.574  18.385  0.00  0.00    +0.000 A 
ATOM      2  C   UNL     1      -5.875  12.034  17.201  0.00  0.00    +0.000 A 
ATOM      3  C   UNL     1      -4.576  11.525  17.117  0.00  0.00    +0.000 A 
ATOM      4  O   UNL     1      -4.308  11.030  15.821  0.00  0.00    +0.000 OA
ATOM      5  C   UNL     1      -3.081  10.529  15.482  0.00  0.00    +0.000 A 
ATOM      6  O   UNL     1      -2.818  10.126  14.357  0.00  0.00    +0.000 OA
ATOM      7  C   UNL     1      -2.114  10.460  16.565  0.00  0.00    +0.000 A 
ATOM      8  C   UNL     1      -2.314  10.909  17.816  0.00  0.00    +0.000 A 
ATOM      9  C   UNL     1      -3.626  11.543  18.162  0.00  0.00    +0.000 A 
ATOM     10  C   UNL     1      -4.077  12.194  19.338  0.00  0.00    +0.000 A 
ATOM     11  C   UNL     1      -5.446  12.659  19.462  0.00  0.00    +0.000 A 
ENDROOT
BRANCH   8  12
ATOM     12  C   UNL     1      -1.124  10.550  18.621  0.00  0.00    +0.000 A 
ATOM     13  C   UNL     1      -0.018   9.976  17.981  0.00  0.00    +0.000 A 
ATOM     14  C   UNL     1       1.003   9.363  18.716  0.00  0.00    +0.000 A 
ATOM     15  C   UNL     1       0.900   9.292  20.118  0.00  0.00    +0.000 A 
ATOM     16  C   UNL     1       1.677   8.654  21.124  0.00  0.00    +0.000 A 
ATOM     17  C   UNL     1       1.083   8.912  22.338  0.00  0.00    +0.000 A 
ATOM     18  N   UNL     1      -0.000   9.720  22.112  0.00  0.00    +0.000 N 
ATOM     19  C   UNL     1      -0.827  10.291  23.151  0.00  0.00    +0.000 C 
ATOM     20  C   UNL     1      -0.178   9.913  20.754  0.00  0.00    +0.000 A 
ATOM     21  C   UNL     1      -1.203  10.550  20.029  0.00  0.00    +0.000 A 
ENDBRANCH   8  12
BRANCH   1  23
ATOM     22  C   UNL     1      -7.812  14.432  18.081  0.00  0.00    +0.000 C 
ATOM     23  O   UNL     1      -7.607  13.084  18.497  0.00  0.00    +0.000 OA
ENDBRANCH   1  23
BRANCH  10  24
ATOM     24  O   UNL     1      -3.329  12.670  20.389  0.00  0.00    +0.000 OA
ATOM     25  C   UNL     1      -2.456  13.766  20.283  0.00  0.00    +0.000 C 
ENDBRANCH  10  24
BRANCH  11  26
ATOM     26  O   UNL     1      -5.740  13.172  20.712  0.00  0.00    +0.000 OA
ATOM     27  C   UNL     1      -6.551  12.439  21.617  0.00  0.00    +0.000 C 
ENDBRANCH  11  26
TORSDOF 4
ENDMDL
MODEL 2
REMARK VINA RESULT:      -6.8      6.068      9.889
REMARK  Name = 
REMARK  8 active torsions:
REMARK  status: ('A' for Active; 'I' for Inactive)
REMARK    1  A    between atoms: C_1  and  O_2
REMARK    2  A    between atoms: O_2  and  C_3
REMARK    3  A    between atoms: C_10  and  C_11
REMARK    4  A    between atoms: N_17  and  C_18
REMARK    5  A    between atoms: C_22  and  O_23
REMARK    6  A    between atoms: O_23  and  C_24
REMARK    7  A    between atoms: C_25  and  O_26
REMARK    8  A    between atoms: O_26  and  C_27
REMARK                            x       y       z     vdW  Elec       q    Type
REMARK                         _______ _______ _______ _____ _____    ______ ____
ROOT
ATOM      1  C   UNL     1       4.496   2.627  19.641  0.00  0.00    +0.000 A 
ATOM      2  C   UNL     1       5.311   3.490  18.931  0.00  0.00    +0.000 A 
ATOM      3  C   UNL     1       4.862   4.768  18.585  0.00  0.00    +0.000 A 
ATOM      4  O   UNL     1       5.849   5.474  17.862  0.00  0.00    +0.000 OA
ATOM      5  C   UNL     1       5.621   6.730  17.369  0.00  0.00    +0.000 A 
ATOM      6  O   UNL     1       6.450   7.344  16.712  0.00  0.00    +0.000 OA
ATOM      7  C   UNL     1       4.336   7.312  17.717  0.00  0.00    +0.000 A 
ATOM      8  C   UNL     1       3.362   6.692  18.407  0.00  0.00    +0.000 A 
ATOM      9  C   UNL     1       3.577   5.283  18.866  0.00  0.00    +0.000 A 
ATOM     10  C   UNL     1       2.712   4.355  19.499  0.00  0.00    +0.000 A 
ATOM     11  C   UNL     1       3.190   3.054  19.928  0.00  0.00    +0.000 A 
ENDROOT
BRANCH   8  12
ATOM     12  C   UNL     1       2.274   7.670  18.632  0.00  0.00    +0.000 A 
ATOM     13  C   UNL     1       1.827   8.450  17.557  0.00  0.00    +0.000 A 
ATOM     14  C   UNL     1       1.018   9.572  17.767  0.00  0.00    +0.000 A 
ATOM     15  C   UNL     1       0.675   9.943  19.081  0.00  0.00    +0.000 A 
ATOM     16  C   UNL     1      -0.011  11.059  19.634  0.00  0.00    +0.000 A 
ATOM     17  C   UNL     1      -0.033  10.901  21.001  0.00  0.00    +0.000 A 
ATOM     18  N   UNL     1       0.573   9.708  21.295  0.00  0.00    +0.000 N 
ATOM     19  C   UNL     1       0.658   9.139  22.621  0.00  0.00    +0.000 C 
ATOM     20  C   UNL     1       1.078   9.132  20.145  0.00  0.00    +0.000 A 
ATOM     21  C   UNL     1       1.877   7.989  19.947  0.00  0.00    +0.000 A 
ENDBRANCH   8  12
BRANCH   1  23
ATOM     22  C   UNL     1       5.439   1.190  21.298  0.00  0.00    +0.000 C 
ATOM     23  O   UNL     1       4.905   1.369  19.989  0.00  0.00    +0.000 OA
ENDBRANCH   1  23
BRANCH  10  24
ATOM     24  O   UNL     1       1.342   4.407  19.611  0.00  0.00    +0.000 OA
ATOM     25  C   UNL     1       0.473   3.621  18.835  0.00  0.00    +0.000 C 
ENDBRANCH  10  24
BRANCH  11  26
ATOM     26  O   UNL     1       2.242   2.323  20.622  0.00  0.00    +0.000 OA
ATOM     27  C   UNL     1       2.023   2.558  22.003  0.00  0.00    +0.000 C 
ENDBRANCH  11  26
TORSDOF 4
ENDMDL
MODEL 3
REMARK VINA RESULT:      -6.7      3.966      7.309
REMARK  Name = 
REMARK  8 active torsions:
REMARK  status: ('A' for Active; 'I' for Inactive)
REMARK    1  A    between atoms: C_1  and  O_2
REMARK    2  A    between atoms: O_2  and  C_3
REMARK    3  A    between atoms: C_10  and  C_11
REMARK    4  A    between atoms: N_17  and  C_18
REMARK    5  A    between atoms: C_22  and  O_23
REMARK    6  A    between atoms: O_23  and  C_24
REMARK    7  A    between atoms: C_25  and  O_26
REMARK    8  A    between atoms: O_26  and  C_27
REMARK                            x       y       z     vdW  Elec       q    Type
REMARK                         _______ _______ _______ _____ _____    ______ ____
ROOT
ATOM      1  C   UNL     1       1.022  13.252  19.252  0.00  0.00    +0.000 A 
ATOM      2  C   UNL     1       1.150  12.199  20.140  0.00  0.00    +0.000 A 
ATOM      3  C   UNL     1       0.161  11.954  21.098  0.00  0.00    +0.000 A 
ATOM      4  O   UNL     1       0.497  10.839  21.899  0.00  0.00    +0.000 OA
ATOM      5  C   UNL     1      -0.294  10.437  22.940  0.00  0.00    +0.000 A 
ATOM      6  O   UNL     1      -0.005   9.496  23.666  0.00  0.00    +0.000 OA
ATOM      7  C   UNL     1      -1.534  11.177  23.104  0.00  0.00    +0.000 A 
ATOM      8  C   UNL     1      -1.909  12.240  22.370  0.00  0.00    +0.000 A 
ATOM      9  C   UNL     1      -0.998  12.737  21.290  0.00  0.00    +0.000 A 
ATOM     10  C   UNL     1      -1.069  13.876  20.448  0.00  0.00    +0.000 A 
ATOM     11  C   UNL     1      -0.089  14.098  19.402  0.00  0.00    +0.000 A 
ENDROOT
BRANCH   8  12
ATOM     12  C   UNL     1      -3.275  12.622  22.791  0.00  0.00    +0.000 A 
ATOM     13  C   UNL     1      -3.605  12.580  24.153  0.00  0.00    +0.000 A 
ATOM     14  C   UNL     1      -4.936  12.649  24.576  0.00  0.00    +0.000 A 
ATOM     15  C   UNL     1      -5.965  12.729  23.617  0.00  0.00    +0.000 A 
ATOM     16  C   UNL     1      -7.383  12.696  23.701  0.00  0.00    +0.000 A 
ATOM     17  C   UNL     1      -7.880  12.792  22.422  0.00  0.00    +0.000 A 
ATOM     18  N   UNL     1      -6.818  12.930  21.568  0.00  0.00    +0.000 N 
ATOM     19  C   UNL     1      -6.935  13.159  20.146  0.00  0.00    +0.000 C 
ATOM     20  C   UNL     1      -5.628  12.824  22.264  0.00  0.00    +0.000 A 
ATOM     21  C   UNL     1      -4.291  12.774  21.825  0.00  0.00    +0.000 A 
ENDBRANCH   8  12
BRANCH   1  23
ATOM     22  C   UNL     1       3.223  14.038  18.760  0.00  0.00    +0.000 C 
ATOM     23  O   UNL     1       1.974  13.521  18.308  0.00  0.00    +0.000 OA
ENDBRANCH   1  23
BRANCH  10  24
ATOM     24  O   UNL     1      -1.859  14.992  20.589  0.00  0.00    +0.000 OA
ATOM     25  C   UNL     1      -1.806  15.840  21.708  0.00  0.00    +0.000 C 
ENDBRANCH  10  24
BRANCH  11  26
ATOM     26  O   UNL     1      -0.371  15.197  18.609  0.00  0.00    +0.000 OA
ATOM     27  C   UNL     1       0.353  16.406  18.773  0.00  0.00    +0.000 C 
ENDBRANCH  11  26
TORSDOF 4
ENDMDL
MODEL 4
REMARK VINA RESULT:      -6.4      6.892      9.998
REMARK  Name = 
REMARK  8 active torsions:
REMARK  status: ('A' for Active; 'I' for Inactive)
REMARK    1  A    between atoms: C_1  and  O_2
REMARK    2  A    between atoms: O_2  and  C_3
REMARK    3  A    between atoms: C_10  and  C_11
REMARK    4  A    between atoms: N_17  and  C_18
REMARK    5  A    between atoms: C_22  and  O_23
REMARK    6  A    between atoms: O_23  and  C_24
REMARK    7  A    between atoms: C_25  and  O_26
REMARK    8  A    between atoms: O_26  and  C_27
REMARK                            x       y       z     vdW  Elec       q    Type
REMARK                         _______ _______ _______ _____ _____    ______ ____
ROOT
ATOM      1  C   UNL     1       1.471   7.459  20.408  0.00  0.00    +0.000 A 
ATOM      2  C   UNL     1       1.583   6.161  20.873  0.00  0.00    +0.000 A 
ATOM      3  C   UNL     1       2.444   5.254  20.247  0.00  0.00    +0.000 A 
ATOM      4  O   UNL     1       2.398   3.992  20.881  0.00  0.00    +0.000 OA
ATOM      5  C   UNL     1       3.117   2.925  20.414  0.00  0.00    +0.000 A 
ATOM      6  O   UNL     1       3.065   1.816  20.928  0.00  0.00    +0.000 OA
ATOM      7  C   UNL     1       3.990   3.207  19.287  0.00  0.00    +0.000 A 
ATOM      8  C   UNL     1       4.080   4.387  18.649  0.00  0.00    +0.000 A 
ATOM      9  C   UNL     1       3.223   5.529  19.102  0.00  0.00    +0.000 A 
ATOM     10  C   UNL     1       3.022   6.826  18.568  0.00  0.00    +0.000 A 
ATOM     11  C   UNL     1       2.189   7.799  19.250  0.00  0.00    +0.000 A 
ENDROOT
BRANCH   8  12
ATOM     12  C   UNL     1       5.156   4.274  17.639  0.00  0.00    +0.000 A 
ATOM     13  C   UNL     1       6.455   4.674  17.980  0.00  0.00    +0.000 A 
ATOM     14  C   UNL     1       7.435   4.858  16.997  0.00  0.00    +0.000 A 
ATOM     15  C   UNL     1       7.101   4.671  15.642  0.00  0.00    +0.000 A 
ATOM     16  C   UNL     1       7.804   4.884  14.425  0.00  0.00    +0.000 A 
ATOM     17  C   UNL     1       6.961   4.545  13.391  0.00  0.00    +0.000 A 
ATOM     18  N   UNL     1       5.790   4.089  13.937  0.00  0.00    +0.000 N 
ATOM     19  C   UNL     1       4.689   3.545  13.174  0.00  0.00    +0.000 C 
ATOM     20  C   UNL     1       5.820   4.221  15.312  0.00  0.00    +0.000 A 
ATOM     21  C   UNL     1       4.829   4.013  16.291  0.00  0.00    +0.000 A 
ENDBRANCH   8  12
BRANCH   1  23
ATOM     22  C   UNL     1       1.160   9.156  22.058  0.00  0.00    +0.000 C 
ATOM     23  O   UNL     1       0.634   8.367  20.994  0.00  0.00    +0.000 OA
ENDBRANCH   1  23
BRANCH  10  24
ATOM     24  O   UNL     1       3.352   7.294  17.317  0.00  0.00    +0.000 OA
ATOM     25  C   UNL     1       4.671   7.568  16.917  0.00  0.00    +0.000 C 
ENDBRANCH  10  24
BRANCH  11  26
ATOM     26  O   UNL     1       2.191   9.044  18.645  0.00  0.00    +0.000 OA
ATOM     27  C   UNL     1       1.032   9.520  17.980  0.00  0.00    +0.000 C 
ENDBRANCH  11  26
TORSDOF 4
ENDMDL
MODEL 5
REMARK VINA RESULT:      -6.4      2.787      4.768
REMARK  Name = 
REMARK  8 active torsions:
REMARK  status: ('A' for Active; 'I' for Inactive)
REMARK    1  A    between atoms: C_1  and  O_2
REMARK    2  A    between atoms: O_2  and  C_3
REMARK    3  A    between atoms: C_10  and  C_11
REMARK    4  A    between atoms: N_17  and  C_18
REMARK    5  A    between atoms: C_22  and  O_23
REMARK    6  A    between atoms: O_23  and  C_24
REMARK    7  A    between atoms: C_25  and  O_26
REMARK    8  A    between atoms: O_26  and  C_27
REMARK                            x       y       z     vdW  Elec       q    Type
REMARK                         _______ _______ _______ _____ _____    ______ ____
ROOT
ATOM      1  C   UNL     1      -3.311  10.406  16.518  0.00  0.00    +0.000 A 
ATOM      2  C   UNL     1      -2.044   9.874  16.679  0.00  0.00    +0.000 A 
ATOM      3  C   UNL     1      -1.262  10.223  17.784  0.00  0.00    +0.000 A 
ATOM      4  O   UNL     1      -0.010   9.570  17.745  0.00  0.00    +0.000 OA
ATOM      5  C   UNL     1       0.949   9.795  18.694  0.00  0.00    +0.000 A 
ATOM      6  O   UNL     1       2.052   9.265  18.660  0.00  0.00    +0.000 OA
ATOM      7  C   UNL     1       0.555  10.674  19.782  0.00  0.00    +0.000 A 
ATOM      8  C   UNL     1      -0.622  11.317  19.876  0.00  0.00    +0.000 A 
ATOM      9  C   UNL     1      -1.636  11.143  18.787  0.00  0.00    +0.000 A 
ATOM     10  C   UNL     1      -2.890  11.765  18.560  0.00  0.00    +0.000 A 
ATOM     11  C   UNL     1      -3.741  11.356  17.458  0.00  0.00    +0.000 A 
ENDROOT
BRANCH   8  12
ATOM     12  C   UNL     1      -0.653  12.016  21.180  0.00  0.00    +0.000 A 
ATOM     13  C   UNL     1      -1.416  11.476  22.224  0.00  0.00    +0.000 A 
ATOM     14  C   UNL     1      -1.711  12.229  23.366  0.00  0.00    +0.000 A 
ATOM     15  C   UNL     1      -1.262  13.560  23.454  0.00  0.00    +0.000 A 
ATOM     16  C   UNL     1      -1.482  14.605  24.393  0.00  0.00    +0.000 A 
ATOM     17  C   UNL     1      -0.800  15.715  23.949  0.00  0.00    +0.000 A 
ATOM     18  N   UNL     1      -0.136  15.370  22.801  0.00  0.00    +0.000 N 
ATOM     19  C   UNL     1       0.771  16.239  22.087  0.00  0.00    +0.000 C 
ATOM     20  C   UNL     1      -0.457  14.076  22.435  0.00  0.00    +0.000 A 
ATOM     21  C   UNL     1      -0.137  13.325  21.288  0.00  0.00    +0.000 A 
ENDBRANCH   8  12
BRANCH   1  23
ATOM     22  C   UNL     1      -3.484  10.076  14.160  0.00  0.00    +0.000 C 
ATOM     23  O   UNL     1      -4.098  10.089  15.446  0.00  0.00    +0.000 OA
ENDBRANCH   1  23
BRANCH  10  24
ATOM     24  O   UNL     1      -3.391  12.909  19.134  0.00  0.00    +0.000 OA
ATOM     25  C   UNL     1      -3.996  12.936  20.402  0.00  0.00    +0.000 C 
ENDBRANCH  10  24
BRANCH  11  26
ATOM     26  O   UNL     1      -4.970  11.992  17.450  0.00  0.00    +0.000 OA
ATOM     27  C   UNL     1      -6.131  11.317  17.908  0.00  0.00    +0.000 C 
ENDBRANCH  11  26
TORSDOF 4
ENDMDL
MODEL 6
REMARK VINA RESULT:      -6.4      2.068      4.317
REMARK  Name = 
REMARK  8 active torsions:
REMARK  status: ('A' for Active; 'I' for Inactive)
REMARK    1  A    between atoms: C_1  and  O_2
REMARK    2  A    between atoms: O_2  and  C_3
REMARK    3  A    between atoms: C_10  and  C_11
REMARK    4  A    between atoms: N_17  and  C_18
REMARK    5  A    between atoms: C_22  and  O_23
REMARK    6  A    between atoms: O_23  and  C_24
REMARK    7  A    between atoms: C_25  and  O_26
REMARK    8  A    between atoms: O_26  and  C_27
REMARK                            x       y       z     vdW  Elec       q    Type
REMARK                         _______ _______ _______ _____ _____    ______ ____
ROOT
ATOM      1  C   UNL     1      -4.642  12.586  19.421  0.00  0.00    +0.000 A 
ATOM      2  C   UNL     1      -3.914  13.076  20.491  0.00  0.00    +0.000 A 
ATOM      3  C   UNL     1      -2.604  12.642  20.715  0.00  0.00    +0.000 A 
ATOM      4  O   UNL     1      -2.053  13.265  21.858  0.00  0.00    +0.000 OA
ATOM      5  C   UNL     1      -0.798  12.960  22.309  0.00  0.00    +0.000 A 
ATOM      6  O   UNL     1      -0.316  13.462  23.315  0.00  0.00    +0.000 OA
ATOM      7  C   UNL     1      -0.048  12.027  21.485  0.00  0.00    +0.000 A 
ATOM      8  C   UNL     1      -0.517  11.409  20.386  0.00  0.00    +0.000 A 
ATOM      9  C   UNL     1      -1.924  11.673  19.946  0.00  0.00    +0.000 A 
ATOM     10  C   UNL     1      -2.713  11.098  18.918  0.00  0.00    +0.000 A 
ATOM     11  C   UNL     1      -4.046  11.592  18.629  0.00  0.00    +0.000 A 
ENDROOT
BRANCH   8  12
ATOM     12  C   UNL     1       0.596  10.634  19.794  0.00  0.00    +0.000 A 
ATOM     13  C   UNL     1       1.239  11.131  18.651  0.00  0.00    +0.000 A 
ATOM     14  C   UNL     1       2.089  10.319  17.892  0.00  0.00    +0.000 A 
ATOM     15  C   UNL     1       2.275   8.973  18.261  0.00  0.00    +0.000 A 
ATOM     16  C   UNL     1       2.956   7.880  17.659  0.00  0.00    +0.000 A 
ATOM     17  C   UNL     1       2.781   6.781  18.469  0.00  0.00    +0.000 A 
ATOM     18  N   UNL     1       2.059   7.178  19.564  0.00  0.00    +0.000 N 
ATOM     19  C   UNL     1       1.754   6.330  20.694  0.00  0.00    +0.000 C 
ATOM     20  C   UNL     1       1.675   8.499  19.431  0.00  0.00    +0.000 A 
ATOM     21  C   UNL     1       0.832   9.309  20.215  0.00  0.00    +0.000 A 
ENDBRANCH   8  12
BRANCH   1  23
ATOM     22  C   UNL     1      -6.710  13.400  20.295  0.00  0.00    +0.000 C 
ATOM     23  O   UNL     1      -5.927  12.987  19.178  0.00  0.00    +0.000 OA
ENDBRANCH   1  23
BRANCH  10  24
ATOM     24  O   UNL     1      -2.488   9.934  18.221  0.00  0.00    +0.000 OA
ATOM     25  C   UNL     1      -1.640   9.854  17.103  0.00  0.00    +0.000 C 
ENDBRANCH  10  24
BRANCH  11  26
ATOM     26  O   UNL     1      -4.628  10.989  17.528  0.00  0.00    +0.000 OA
ATOM     27  C   UNL     1      -4.656  11.655  16.276  0.00  0.00    +0.000 C 
ENDBRANCH  11  26
TORSDOF 4
ENDMDL
MODEL 7
REMARK VINA RESULT:      -6.3      7.358     10.442
REMARK  Name = 
REMARK  8 active torsions:
REMARK  status: ('A' for Active; 'I' for Inactive)
REMARK    1  A    between atoms: C_1  and  O_2
REMARK    2  A    between atoms: O_2  and  C_3
REMARK    3  A    between atoms: C_10  and  C_11
REMARK    4  A    between atoms: N_17  and  C_18
REMARK    5  A    between atoms: C_22  and  O_23
REMARK    6  A    between atoms: O_23  and  C_24
REMARK    7  A    between atoms: C_25  and  O_26
REMARK    8  A    between atoms: O_26  and  C_27
REMARK                            x       y       z     vdW  Elec       q    Type
REMARK                         _______ _______ _______ _____ _____    ______ ____
ROOT
ATOM      1  C   UNL     1       1.755   6.828  19.973  0.00  0.00    +0.000 A 
ATOM      2  C   UNL     1       1.774   5.457  20.157  0.00  0.00    +0.000 A 
ATOM      3  C   UNL     1       2.584   4.644  19.358  0.00  0.00    +0.000 A 
ATOM      4  O   UNL     1       2.443   3.284  19.714  0.00  0.00    +0.000 OA
ATOM      5  C   UNL     1       3.098   2.292  19.036  0.00  0.00    +0.000 A 
ATOM      6  O   UNL     1       2.965   1.106  19.306  0.00  0.00    +0.000 OA
ATOM      7  C   UNL     1       4.007   2.742  17.996  0.00  0.00    +0.000 A 
ATOM      8  C   UNL     1       4.186   4.020  17.618  0.00  0.00    +0.000 A 
ATOM      9  C   UNL     1       3.398   5.098  18.298  0.00  0.00    +0.000 A 
ATOM     10  C   UNL     1       3.293   6.489  18.046  0.00  0.00    +0.000 A 
ATOM     11  C   UNL     1       2.514   7.353  18.914  0.00  0.00    +0.000 A 
ENDROOT
BRANCH   8  12
ATOM     12  C   UNL     1       5.269   4.047  16.609  0.00  0.00    +0.000 A 
ATOM     13  C   UNL     1       6.499   4.628  16.946  0.00  0.00    +0.000 A 
ATOM     14  C   UNL     1       7.444   4.936  15.962  0.00  0.00    +0.000 A 
ATOM     15  C   UNL     1       7.143   4.689  14.609  0.00  0.00    +0.000 A 
ATOM     16  C   UNL     1       7.810   4.984  13.389  0.00  0.00    +0.000 A 
ATOM     17  C   UNL     1       7.026   4.518  12.359  0.00  0.00    +0.000 A 
ATOM     18  N   UNL     1       5.929   3.909  12.910  0.00  0.00    +0.000 N 
ATOM     19  C   UNL     1       4.917   3.207  12.154  0.00  0.00    +0.000 C 
ATOM     20  C   UNL     1       5.938   4.060  14.284  0.00  0.00    +0.000 A 
ATOM     21  C   UNL     1       4.984   3.727  15.265  0.00  0.00    +0.000 A 
ENDBRANCH   8  12
BRANCH   1  23
ATOM     22  C   UNL     1       1.619   8.464  21.707  0.00  0.00    +0.000 C 
ATOM     23  O   UNL     1       0.970   7.649  20.734  0.00  0.00    +0.000 OA
ENDBRANCH   1  23
BRANCH  10  24
ATOM     24  O   UNL     1       3.674   7.183  16.921  0.00  0.00    +0.000 OA
ATOM     25  C   UNL     1       5.002   7.557  16.657  0.00  0.00    +0.000 C 
ENDBRANCH  10  24
BRANCH  11  26
ATOM     26  O   UNL     1       2.608   8.693  18.582  0.00  0.00    +0.000 OA
ATOM     27  C   UNL     1       1.540   9.343  17.912  0.00  0.00    +0.000 C 
ENDBRANCH  11  26
TORSDOF 4
ENDMDL
MODEL 8
REMARK VINA RESULT:      -6.3      2.949      4.683
REMARK  Name = 
REMARK  8 active torsions:
REMARK  status: ('A' for Active; 'I' for Inactive)
REMARK    1  A    between atoms: C_1  and  O_2
REMARK    2  A    between atoms: O_2  and  C_3
REMARK    3  A    between atoms: C_10  and  C_11
REMARK    4  A    between atoms: N_17  and  C_18
REMARK    5  A    between atoms: C_22  and  O_23
REMARK    6  A    between atoms: O_23  and  C_24
REMARK    7  A    between atoms: C_25  and  O_26
REMARK    8  A    between atoms: O_26  and  C_27
REMARK                            x       y       z     vdW  Elec       q    Type
REMARK                         _______ _______ _______ _____ _____    ______ ____
ROOT
ATOM      1  C   UNL     1      -1.533  13.994  21.587  0.00  0.00    +0.000 A 
ATOM      2  C   UNL     1      -2.340  13.304  20.700  0.00  0.00    +0.000 A 
ATOM      3  C   UNL     1      -1.824  12.244  19.948  0.00  0.00    +0.000 A 
ATOM      4  O   UNL     1      -2.816  11.689  19.108  0.00  0.00    +0.000 OA
ATOM      5  C   UNL     1      -2.535  10.671  18.238  0.00  0.00    +0.000 A 
ATOM      6  O   UNL     1      -3.370  10.199  17.479  0.00  0.00    +0.000 OA
ATOM      7  C   UNL     1      -1.180  10.149  18.306  0.00  0.00    +0.000 A 
ATOM      8  C   UNL     1      -0.198  10.631  19.087  0.00  0.00    +0.000 A 
ATOM      9  C   UNL     1      -0.482  11.806  19.972  0.00  0.00    +0.000 A 
ATOM     10  C   UNL     1       0.363  12.586  20.802  0.00  0.00    +0.000 A 
ATOM     11  C   UNL     1      -0.175  13.639  21.642  0.00  0.00    +0.000 A 
ENDROOT
BRANCH   8  12
ATOM     12  C   UNL     1       0.980   9.750  18.928  0.00  0.00    +0.000 A 
ATOM     13  C   UNL     1       1.878   9.997  17.880  0.00  0.00    +0.000 A 
ATOM     14  C   UNL     1       2.834   9.045  17.511  0.00  0.00    +0.000 A 
ATOM     15  C   UNL     1       2.875   7.807  18.180  0.00  0.00    +0.000 A 
ATOM     16  C   UNL     1       3.620   6.612  17.981  0.00  0.00    +0.000 A 
ATOM     17  C   UNL     1       3.223   5.708  18.939  0.00  0.00    +0.000 A 
ATOM     18  N   UNL     1       2.299   6.324  19.742  0.00  0.00    +0.000 N 
ATOM     19  C   UNL     1       1.718   5.732  20.925  0.00  0.00    +0.000 C 
ATOM     20  C   UNL     1       2.014   7.588  19.259  0.00  0.00    +0.000 A 
ATOM     21  C   UNL     1       1.058   8.543  19.654  0.00  0.00    +0.000 A 
ENDBRANCH   8  12
BRANCH   1  23
ATOM     22  C   UNL     1      -2.557  16.150  21.631  0.00  0.00    +0.000 C 
ATOM     23  O   UNL     1      -2.006  15.038  22.332  0.00  0.00    +0.000 OA
ENDBRANCH   1  23
BRANCH  10  24
ATOM     24  O   UNL     1       1.736  12.647  20.803  0.00  0.00    +0.000 OA
ATOM     25  C   UNL     1       2.484  13.251  19.778  0.00  0.00    +0.000 C 
ENDBRANCH  10  24
BRANCH  11  26
ATOM     26  O   UNL     1       0.772  14.223  22.464  0.00  0.00    +0.000 OA
ATOM     27  C   UNL     1       1.141  15.581  22.282  0.00  0.00    +0.000 C 
ENDBRANCH  11  26
TORSDOF 4
ENDMDL
MODEL 9
REMARK VINA RESULT:      -6.2      3.637      5.977
REMARK  Name = 
REMARK  8 active torsions:
REMARK  status: ('A' for Active; 'I' for Inactive)
REMARK    1  A    between atoms: C_1  and  O_2
REMARK    2  A    between atoms: O_2  and  C_3
REMARK    3  A    between atoms: C_10  and  C_11
REMARK    4  A    between atoms: N_17  and  C_18
REMARK    5  A    between atoms: C_22  and  O_23
REMARK    6  A    between atoms: O_23  and  C_24
REMARK    7  A    between atoms: C_25  and  O_26
REMARK    8  A    between atoms: O_26  and  C_27
REMARK                            x       y       z     vdW  Elec       q    Type
REMARK                         _______ _______ _______ _____ _____    ______ ____
ROOT
ATOM      1  C   UNL     1      -1.205  13.208  20.585  0.00  0.00    +0.000 A 
ATOM      2  C   UNL     1      -1.025  12.555  21.791  0.00  0.00    +0.000 A 
ATOM      3  C   UNL     1      -0.380  11.316  21.838  0.00  0.00    +0.000 A 
ATOM      4  O   UNL     1      -0.309  10.832  23.164  0.00  0.00    +0.000 OA
ATOM      5  C   UNL     1       0.233   9.610  23.456  0.00  0.00    +0.000 A 
ATOM      6  O   UNL     1       0.273   9.158  24.592  0.00  0.00    +0.000 OA
ATOM      7  C   UNL     1       0.805   8.895  22.327  0.00  0.00    +0.000 A 
ATOM      8  C   UNL     1       0.773   9.308  21.048  0.00  0.00    +0.000 A 
ATOM      9  C   UNL     1       0.096  10.603  20.716  0.00  0.00    +0.000 A 
ATOM     10  C   UNL     1      -0.188  11.227  19.476  0.00  0.00    +0.000 A 
ATOM     11  C   UNL     1      -0.789  12.546  19.419  0.00  0.00    +0.000 A 
ENDROOT
BRANCH   8  12
ATOM     12  C   UNL     1       1.556   8.345  20.242  0.00  0.00    +0.000 A 
ATOM     13  C   UNL     1       1.933   8.696  18.938  0.00  0.00    +0.000 A 
ATOM     14  C   UNL     1       2.415   7.735  18.043  0.00  0.00    +0.000 A 
ATOM     15  C   UNL     1       2.491   6.388  18.447  0.00  0.00    +0.000 A 
ATOM     16  C   UNL     1       2.813   5.182  17.767  0.00  0.00    +0.000 A 
ATOM     17  C   UNL     1       2.701   4.150  18.672  0.00  0.00    +0.000 A 
ATOM     18  N   UNL     1       2.370   4.691  19.886  0.00  0.00    +0.000 N 
ATOM     19  C   UNL     1       2.259   3.938  21.115  0.00  0.00    +0.000 C 
ATOM     20  C   UNL     1       2.166   6.053  19.763  0.00  0.00    +0.000 A 
ATOM     21  C   UNL     1       1.696   7.012  20.681  0.00  0.00    +0.000 A 
ENDBRANCH   8  12
BRANCH   1  23
ATOM     22  C   UNL     1      -1.117  15.567  20.946  0.00  0.00    +0.000 C 
ATOM     23  O   UNL     1      -1.837  14.418  20.506  0.00  0.00    +0.000 OA
ENDBRANCH   1  23
BRANCH  10  24
ATOM     24  O   UNL     1      -0.166  10.672  18.218  0.00  0.00    +0.000 OA
ATOM     25  C   UNL     1      -1.244   9.956  17.670  0.00  0.00    +0.000 C 
ENDBRANCH  10  24
BRANCH  11  26
ATOM     26  O   UNL     1      -0.896  13.046  18.133  0.00  0.00    +0.000 OA
ATOM     27  C   UNL     1      -0.019  14.067  17.683  0.00  0.00    +0.000 C 
ENDBRANCH  11  26
TORSDOF 4
ENDMDL
