MODEL 1
REMARK VINA RESULT:      -8.8      0.000      0.000
REMARK  Name = 
REMARK  9 active torsions:
REMARK  status: ('A' for Active; 'I' for Inactive)
REMARK    1  A    between atoms: C_1  and  N_2
REMARK    2  A    between atoms: N_2  and  C_3
REMARK    3  A    between atoms: N_2  and  C_4
REMARK    4  A    between atoms: C_7  and  C_8
REMARK    5  A    between atoms: C_8  and  N_9
REMARK    6  A    between atoms: C_10  and  C_12
REMARK    7  A    between atoms: C_12  and  N_13
REMARK    8  A    between atoms: C_18  and  S_19
REMARK    9  A    between atoms: S_19  and  N_22
REMARK                            x       y       z     vdW  Elec       q    Type
REMARK                         _______ _______ _______ _____ _____    ______ ____
ROOT
ATOM      1  N   UNL     1       0.938  10.137  19.759  0.00  0.00    +0.000 N 
ATOM      2  C   UNL     1       0.031   9.633  20.681  0.00  0.00    +0.000 A 
ATOM      3  C   UNL     1       0.704   8.639  21.345  0.00  0.00    +0.000 A 
ATOM      4  C   UNL     1       1.499   8.068  20.322  0.00  0.00    +0.000 A 
ATOM      5  C   UNL     1       1.961   6.745  20.162  0.00  0.00    +0.000 A 
ATOM      6  C   UNL     1       2.466   6.352  18.923  0.00  0.00    +0.000 A 
ATOM      7  C   UNL     1       2.611   7.303  17.897  0.00  0.00    +0.000 A 
ATOM      8  C   UNL     1       2.218   8.662  18.060  0.00  0.00    +0.000 A 
ATOM      9  C   UNL     1       1.608   9.019  19.283  0.00  0.00    +0.000 A 
ENDROOT
BRANCH   6  10
ATOM     10  S   UNL     1       2.678   4.589  18.599  0.00  0.00    +0.000 S 
ATOM     11  O   UNL     1       2.612   3.927  19.891  0.00  0.00    +0.000 OA
ATOM     12  O   UNL     1       1.757   4.242  17.549  0.00  0.00    +0.000 OA
BRANCH  10  13
ATOM     13  N   UNL     1       4.277   4.418  18.005  0.00  0.00    +0.000 NA
ATOM     14  C   UNL     1       5.382   4.190  18.945  0.00  0.00    +0.000 C 
ATOM     15  C   UNL     1       6.538   5.174  18.740  0.00  0.00    +0.000 C 
ATOM     16  C   UNL     1       7.547   4.750  17.676  0.00  0.00    +0.000 C 
ATOM     17  C   UNL     1       6.982   4.765  16.257  0.00  0.00    +0.000 C 
ATOM     18  C   UNL     1       5.824   3.785  16.071  0.00  0.00    +0.000 C 
ATOM     19  C   UNL     1       4.477   4.311  16.538  0.00  0.00    +0.000 C 
ENDBRANCH  10  13
ENDBRANCH   6  10
BRANCH   1  20
ATOM     20  C   UNL     1       0.764  11.515  19.276  0.00  0.00    +0.000 C 
BRANCH  20  22
ATOM     21  N   UNL     1      -1.304  11.052  17.899  0.00  0.00    +0.000 N 
ATOM     22  C   UNL     1      -0.499  11.955  18.533  0.00  0.00    +0.000 C 
ATOM     23  O   UNL     1      -0.768  13.167  18.509  0.00  0.00    +0.000 OA
ATOM     24  H   UNL     1      -1.234  10.063  18.152  0.00  0.00    +0.000 HD
BRANCH  21  25
ATOM     25  C   UNL     1      -2.532  11.500  17.248  0.00  0.00    +0.000 C 
BRANCH  25  29
ATOM     26  C   UNL     1      -6.157  11.439  19.746  0.00  0.00    +0.000 A 
ATOM     27  C   UNL     1      -5.115  12.355  19.957  0.00  0.00    +0.000 A 
ATOM     28  C   UNL     1      -3.948  12.363  19.164  0.00  0.00    +0.000 A 
ATOM     29  C   UNL     1      -3.773  11.451  18.113  0.00  0.00    +0.000 A 
ATOM     30  C   UNL     1      -4.832  10.586  17.842  0.00  0.00    +0.000 A 
ATOM     31  C   UNL     1      -5.986  10.578  18.647  0.00  0.00    +0.000 A 
BRANCH  26  33
ATOM     32  C   UNL     1      -7.657  12.513  21.416  0.00  0.00    +0.000 C 
ATOM     33  N   UNL     1      -7.304  11.397  20.543  0.00  0.00    +0.000 N 
ATOM     34  C   UNL     1      -7.910  10.105  20.852  0.00  0.00    +0.000 C 
ENDBRANCH  26  33
ENDBRANCH  25  29
ENDBRANCH  21  25
ENDBRANCH  20  22
ENDBRANCH   1  20
TORSDOF 7
ENDMDL
MODEL 2
REMARK VINA RESULT:      -8.5      3.821      7.089
REMARK  Name = 
REMARK  9 active torsions:
REMARK  status: ('A' for Active; 'I' for Inactive)
REMARK    1  A    between atoms: C_1  and  N_2
REMARK    2  A    between atoms: N_2  and  C_3
REMARK    3  A    between atoms: N_2  and  C_4
REMARK    4  A    between atoms: C_7  and  C_8
REMARK    5  A    between atoms: C_8  and  N_9
REMARK    6  A    between atoms: C_10  and  C_12
REMARK    7  A    between atoms: C_12  and  N_13
REMARK    8  A    between atoms: C_18  and  S_19
REMARK    9  A    between atoms: S_19  and  N_22
REMARK                            x       y       z     vdW  Elec       q    Type
REMARK                         _______ _______ _______ _____ _____    ______ ____
ROOT
ATOM      1  N   UNL     1       0.800  10.166  19.993  0.00  0.00    +0.000 N 
ATOM      2  C   UNL     1      -0.045   9.616  20.948  0.00  0.00    +0.000 A 
ATOM      3  C   UNL     1       0.689   8.632  21.559  0.00  0.00    +0.000 A 
ATOM      4  C   UNL     1       1.451   8.106  20.488  0.00  0.00    +0.000 A 
ATOM      5  C   UNL     1       1.946   6.802  20.280  0.00  0.00    +0.000 A 
ATOM      6  C   UNL     1       2.403   6.448  19.012  0.00  0.00    +0.000 A 
ATOM      7  C   UNL     1       2.468   7.421  17.999  0.00  0.00    +0.000 A 
ATOM      8  C   UNL     1       2.041   8.763  18.207  0.00  0.00    +0.000 A 
ATOM      9  C   UNL     1       1.480   9.078  19.464  0.00  0.00    +0.000 A 
ENDROOT
BRANCH   6  10
ATOM     10  S   UNL     1       2.653   4.698  18.644  0.00  0.00    +0.000 S 
ATOM     11  O   UNL     1       2.555   3.997  19.912  0.00  0.00    +0.000 OA
ATOM     12  O   UNL     1       1.773   4.368  17.554  0.00  0.00    +0.000 OA
BRANCH  10  13
ATOM     13  N   UNL     1       4.273   4.569  18.098  0.00  0.00    +0.000 NA
ATOM     14  C   UNL     1       5.351   4.333  19.068  0.00  0.00    +0.000 C 
ATOM     15  C   UNL     1       6.496   5.341  18.928  0.00  0.00    +0.000 C 
ATOM     16  C   UNL     1       7.547   4.962  17.888  0.00  0.00    +0.000 C 
ATOM     17  C   UNL     1       7.028   5.006  16.451  0.00  0.00    +0.000 C 
ATOM     18  C   UNL     1       5.894   4.013  16.201  0.00  0.00    +0.000 C 
ATOM     19  C   UNL     1       4.524   4.505  16.637  0.00  0.00    +0.000 C 
ENDBRANCH  10  13
ENDBRANCH   6  10
BRANCH   1  20
ATOM     20  C   UNL     1       0.560  11.546  19.546  0.00  0.00    +0.000 C 
BRANCH  20  22
ATOM     21  N   UNL     1       1.599  13.835  19.288  0.00  0.00    +0.000 N 
ATOM     22  C   UNL     1       1.409  12.715  20.047  0.00  0.00    +0.000 C 
ATOM     23  O   UNL     1       1.937  12.614  21.167  0.00  0.00    +0.000 OA
ATOM     24  H   UNL     1       0.955  14.024  18.516  0.00  0.00    +0.000 HD
BRANCH  21  25
ATOM     25  C   UNL     1       2.368  14.956  19.821  0.00  0.00    +0.000 C 
BRANCH  25  29
ATOM     26  C   UNL     1       6.620  14.994  18.679  0.00  0.00    +0.000 A 
ATOM     27  C   UNL     1       6.194  15.227  19.996  0.00  0.00    +0.000 A 
ATOM     28  C   UNL     1       4.830  15.228  20.356  0.00  0.00    +0.000 A 
ATOM     29  C   UNL     1       3.823  14.990  19.409  0.00  0.00    +0.000 A 
ATOM     30  C   UNL     1       4.234  14.681  18.113  0.00  0.00    +0.000 A 
ATOM     31  C   UNL     1       5.597  14.695  17.762  0.00  0.00    +0.000 A 
BRANCH  26  33
ATOM     32  C   UNL     1       8.809  13.838  18.431  0.00  0.00    +0.000 C 
ATOM     33  N   UNL     1       7.964  15.022  18.300  0.00  0.00    +0.000 N 
ATOM     34  C   UNL     1       8.650  16.307  18.194  0.00  0.00    +0.000 C 
ENDBRANCH  26  33
ENDBRANCH  25  29
ENDBRANCH  21  25
ENDBRANCH  20  22
ENDBRANCH   1  20
TORSDOF 7
ENDMDL
MODEL 3
REMARK VINA RESULT:      -8.4      3.632      6.905
REMARK  Name = 
REMARK  9 active torsions:
REMARK  status: ('A' for Active; 'I' for Inactive)
REMARK    1  A    between atoms: C_1  and  N_2
REMARK    2  A    between atoms: N_2  and  C_3
REMARK    3  A    between atoms: N_2  and  C_4
REMARK    4  A    between atoms: C_7  and  C_8
REMARK    5  A    between atoms: C_8  and  N_9
REMARK    6  A    between atoms: C_10  and  C_12
REMARK    7  A    between atoms: C_12  and  N_13
REMARK    8  A    between atoms: C_18  and  S_19
REMARK    9  A    between atoms: S_19  and  N_22
REMARK                            x       y       z     vdW  Elec       q    Type
REMARK                         _______ _______ _______ _____ _____    ______ ____
ROOT
ATOM      1  N   UNL     1       0.498  10.270  20.258  0.00  0.00    +0.000 N 
ATOM      2  C   UNL     1      -0.221   9.617  21.250  0.00  0.00    +0.000 A 
ATOM      3  C   UNL     1       0.656   8.718  21.801  0.00  0.00    +0.000 A 
ATOM      4  C   UNL     1       1.407   8.293  20.679  0.00  0.00    +0.000 A 
ATOM      5  C   UNL     1       2.033   7.056  20.420  0.00  0.00    +0.000 A 
ATOM      6  C   UNL     1       2.451   6.770  19.122  0.00  0.00    +0.000 A 
ATOM      7  C   UNL     1       2.345   7.755  18.123  0.00  0.00    +0.000 A 
ATOM      8  C   UNL     1       1.782   9.037  18.379  0.00  0.00    +0.000 A 
ATOM      9  C   UNL     1       1.265   9.273  19.672  0.00  0.00    +0.000 A 
ENDROOT
BRANCH   6  10
ATOM     10  S   UNL     1       2.876   5.064  18.709  0.00  0.00    +0.000 S 
ATOM     11  O   UNL     1       2.908   4.337  19.967  0.00  0.00    +0.000 OA
ATOM     12  O   UNL     1       1.993   4.656  17.649  0.00  0.00    +0.000 OA
BRANCH  10  13
ATOM     13  N   UNL     1       4.477   5.122  18.098  0.00  0.00    +0.000 NA
ATOM     14  C   UNL     1       4.699   5.286  16.656  0.00  0.00    +0.000 C 
ATOM     15  C   UNL     1       5.645   4.225  16.085  0.00  0.00    +0.000 C 
ATOM     16  C   UNL     1       7.127   4.570  16.205  0.00  0.00    +0.000 C 
ATOM     17  C   UNL     1       7.638   4.578  17.645  0.00  0.00    +0.000 C 
ATOM     18  C   UNL     1       6.948   5.631  18.512  0.00  0.00    +0.000 C 
ATOM     19  C   UNL     1       5.600   5.200  19.065  0.00  0.00    +0.000 C 
ENDBRANCH  10  13
ENDBRANCH   6  10
BRANCH   1  20
ATOM     20  C   UNL     1       0.077  11.618  19.849  0.00  0.00    +0.000 C 
BRANCH  20  22
ATOM     21  N   UNL     1       0.927  13.948  19.366  0.00  0.00    +0.000 N 
ATOM     22  C   UNL     1       0.904  12.859  20.190  0.00  0.00    +0.000 C 
ATOM     23  O   UNL     1       1.570  12.846  21.238  0.00  0.00    +0.000 OA
ATOM     24  H   UNL     1       0.183  14.060  18.673  0.00  0.00    +0.000 HD
BRANCH  21  25
ATOM     25  C   UNL     1       1.682  15.138  19.749  0.00  0.00    +0.000 C 
BRANCH  25  29
ATOM     26  C   UNL     1       5.913  15.183  18.532  0.00  0.00    +0.000 A 
ATOM     27  C   UNL     1       4.866  15.094  17.603  0.00  0.00    +0.000 A 
ATOM     28  C   UNL     1       3.511  15.066  17.997  0.00  0.00    +0.000 A 
ATOM     29  C   UNL     1       3.141  15.130  19.348  0.00  0.00    +0.000 A 
ATOM     30  C   UNL     1       4.166  15.296  20.278  0.00  0.00    +0.000 A 
ATOM     31  C   UNL     1       5.515  15.311  19.875  0.00  0.00    +0.000 A 
BRANCH  26  33
ATOM     32  C   UNL     1       8.005  13.931  18.036  0.00  0.00    +0.000 C 
ATOM     33  N   UNL     1       7.260  15.180  18.161  0.00  0.00    +0.000 N 
ATOM     34  C   UNL     1       8.047  16.399  18.323  0.00  0.00    +0.000 C 
ENDBRANCH  26  33
ENDBRANCH  25  29
ENDBRANCH  21  25
ENDBRANCH  20  22
ENDBRANCH   1  20
TORSDOF 7
ENDMDL
MODEL 4
REMARK VINA RESULT:      -8.2      2.367     10.865
REMARK  Name = 
REMARK  9 active torsions:
REMARK  status: ('A' for Active; 'I' for Inactive)
REMARK    1  A    between atoms: C_1  and  N_2
REMARK    2  A    between atoms: N_2  and  C_3
REMARK    3  A    between atoms: N_2  and  C_4
REMARK    4  A    between atoms: C_7  and  C_8
REMARK    5  A    between atoms: C_8  and  N_9
REMARK    6  A    between atoms: C_10  and  C_12
REMARK    7  A    between atoms: C_12  and  N_13
REMARK    8  A    between atoms: C_18  and  S_19
REMARK    9  A    between atoms: S_19  and  N_22
REMARK                            x       y       z     vdW  Elec       q    Type
REMARK                         _______ _______ _______ _____ _____    ______ ____
ROOT
ATOM      1  N   UNL     1       2.149   7.452  19.586  0.00  0.00    +0.000 N 
ATOM      2  C   UNL     1       2.212   7.434  18.199  0.00  0.00    +0.000 A 
ATOM      3  C   UNL     1       2.449   8.734  17.830  0.00  0.00    +0.000 A 
ATOM      4  C   UNL     1       1.696   9.466  18.779  0.00  0.00    +0.000 A 
ATOM      5  C   UNL     1       1.058  10.719  18.663  0.00  0.00    +0.000 A 
ATOM      6  C   UNL     1       0.123  11.092  19.627  0.00  0.00    +0.000 A 
ATOM      7  C   UNL     1      -0.084  10.272  20.750  0.00  0.00    +0.000 A 
ATOM      8  C   UNL     1       0.603   9.037  20.925  0.00  0.00    +0.000 A 
ATOM      9  C   UNL     1       1.465   8.621  19.887  0.00  0.00    +0.000 A 
ENDROOT
BRANCH   6  10
ATOM     10  S   UNL     1      -0.971  12.484  19.272  0.00  0.00    +0.000 S 
ATOM     11  O   UNL     1      -1.467  12.949  20.556  0.00  0.00    +0.000 OA
ATOM     12  O   UNL     1      -0.251  13.372  18.398  0.00  0.00    +0.000 OA
BRANCH  10  13
ATOM     13  N   UNL     1      -2.296  11.820  18.410  0.00  0.00    +0.000 NA
ATOM     14  C   UNL     1      -2.053  10.833  17.350  0.00  0.00    +0.000 C 
ATOM     15  C   UNL     1      -2.742  11.205  16.034  0.00  0.00    +0.000 C 
ATOM     16  C   UNL     1      -4.194  10.745  15.928  0.00  0.00    +0.000 C 
ATOM     17  C   UNL     1      -5.135  11.470  16.890  0.00  0.00    +0.000 C 
ATOM     18  C   UNL     1      -4.783  11.229  18.357  0.00  0.00    +0.000 C 
ATOM     19  C   UNL     1      -3.669  12.117  18.888  0.00  0.00    +0.000 C 
ENDBRANCH  10  13
ENDBRANCH   6  10
BRANCH   1  20
ATOM     20  C   UNL     1       2.448   6.215  20.323  0.00  0.00    +0.000 C 
BRANCH  20  22
ATOM     21  N   UNL     1       4.592   5.177  19.477  0.00  0.00    +0.000 N 
ATOM     22  C   UNL     1       3.247   5.073  19.691  0.00  0.00    +0.000 C 
ATOM     23  O   UNL     1       2.632   4.045  19.363  0.00  0.00    +0.000 OA
ATOM     24  H   UNL     1       5.121   5.888  19.988  0.00  0.00    +0.000 HD
BRANCH  21  25
ATOM     25  C   UNL     1       5.332   4.046  18.925  0.00  0.00    +0.000 C 
BRANCH  25  29
ATOM     26  C   UNL     1       6.507   4.552  14.712  0.00  0.00    +0.000 A 
ATOM     27  C   UNL     1       5.197   4.220  15.091  0.00  0.00    +0.000 A 
ATOM     28  C   UNL     1       4.827   4.044  16.441  0.00  0.00    +0.000 A 
ATOM     29  C   UNL     1       5.756   4.199  17.480  0.00  0.00    +0.000 A 
ATOM     30  C   UNL     1       7.042   4.605  17.124  0.00  0.00    +0.000 A 
ATOM     31  C   UNL     1       7.404   4.765  15.774  0.00  0.00    +0.000 A 
BRANCH  26  33
ATOM     32  C   UNL     1       6.417   3.782  12.348  0.00  0.00    +0.000 C 
ATOM     33  N   UNL     1       6.896   4.698  13.378  0.00  0.00    +0.000 N 
ATOM     34  C   UNL     1       8.102   5.461  13.067  0.00  0.00    +0.000 C 
ENDBRANCH  26  33
ENDBRANCH  25  29
ENDBRANCH  21  25
ENDBRANCH  20  22
ENDBRANCH   1  20
TORSDOF 7
ENDMDL
MODEL 5
REMARK VINA RESULT:      -8.2      4.013      7.415
REMARK  Name = 
REMARK  9 active torsions:
REMARK  status: ('A' for Active; 'I' for Inactive)
REMARK    1  A    between atoms: C_1  and  N_2
REMARK    2  A    between atoms: N_2  and  C_3
REMARK    3  A    between atoms: N_2  and  C_4
REMARK    4  A    between atoms: C_7  and  C_8
REMARK    5  A    between atoms: C_8  and  N_9
REMARK    6  A    between atoms: C_10  and  C_12
REMARK    7  A    between atoms: C_12  and  N_13
REMARK    8  A    between atoms: C_18  and  S_19
REMARK    9  A    between atoms: S_19  and  N_22
REMARK                            x       y       z     vdW  Elec       q    Type
REMARK                         _______ _______ _______ _____ _____    ______ ____
ROOT
ATOM      1  N   UNL     1       0.431  10.768  19.411  0.00  0.00    +0.000 N 
ATOM      2  C   UNL     1      -0.441  10.252  20.360  0.00  0.00    +0.000 A 
ATOM      3  C   UNL     1       0.323   9.425  21.143  0.00  0.00    +0.000 A 
ATOM      4  C   UNL     1       1.219   8.856  20.206  0.00  0.00    +0.000 A 
ATOM      5  C   UNL     1       1.845   7.592  20.201  0.00  0.00    +0.000 A 
ATOM      6  C   UNL     1       2.441   7.139  19.025  0.00  0.00    +0.000 A 
ATOM      7  C   UNL     1       2.506   7.989  17.906  0.00  0.00    +0.000 A 
ATOM      8  C   UNL     1       1.944   9.297  17.913  0.00  0.00    +0.000 A 
ATOM      9  C   UNL     1       1.250   9.699  19.074  0.00  0.00    +0.000 A 
ENDROOT
BRANCH   6  10
ATOM     10  S   UNL     1       2.878   5.392  18.897  0.00  0.00    +0.000 S 
ATOM     11  O   UNL     1       2.956   4.891  20.259  0.00  0.00    +0.000 OA
ATOM     12  O   UNL     1       1.972   4.801  17.949  0.00  0.00    +0.000 OA
BRANCH  10  13
ATOM     13  N   UNL     1       4.461   5.360  18.238  0.00  0.00    +0.000 NA
ATOM     14  C   UNL     1       4.645   5.453  16.784  0.00  0.00    +0.000 C 
ATOM     15  C   UNL     1       5.531   4.331  16.233  0.00  0.00    +0.000 C 
ATOM     16  C   UNL     1       7.028   4.622  16.295  0.00  0.00    +0.000 C 
ATOM     17  C   UNL     1       7.583   4.672  17.718  0.00  0.00    +0.000 C 
ATOM     18  C   UNL     1       6.961   5.788  18.556  0.00  0.00    +0.000 C 
ATOM     19  C   UNL     1       5.615   5.436  19.167  0.00  0.00    +0.000 C 
ENDBRANCH  10  13
ENDBRANCH   6  10
BRANCH   1  20
ATOM     20  C   UNL     1       0.108  12.055  18.778  0.00  0.00    +0.000 C 
BRANCH  20  22
ATOM     21  N   UNL     1       2.133  13.567  18.815  0.00  0.00    +0.000 N 
ATOM     22  C   UNL     1       0.830  13.348  19.164  0.00  0.00    +0.000 C 
ATOM     23  O   UNL     1       0.200  14.194  19.819  0.00  0.00    +0.000 OA
ATOM     24  H   UNL     1       2.544  13.011  18.062  0.00  0.00    +0.000 HD
BRANCH  21  25
ATOM     25  C   UNL     1       2.774  14.836  19.150  0.00  0.00    +0.000 C 
BRANCH  25  29
ATOM     26  C   UNL     1       7.172  14.864  18.940  0.00  0.00    +0.000 A 
ATOM     27  C   UNL     1       6.368  14.639  17.813  0.00  0.00    +0.000 A 
ATOM     28  C   UNL     1       4.959  14.616  17.885  0.00  0.00    +0.000 A 
ATOM     29  C   UNL     1       4.286  14.824  19.099  0.00  0.00    +0.000 A 
ATOM     30  C   UNL     1       5.069  15.125  20.212  0.00  0.00    +0.000 A 
ATOM     31  C   UNL     1       6.474  15.133  20.131  0.00  0.00    +0.000 A 
BRANCH  26  33
ATOM     32  C   UNL     1       9.361  14.405  20.029  0.00  0.00    +0.000 C 
ATOM     33  N   UNL     1       8.568  14.857  18.891  0.00  0.00    +0.000 N 
ATOM     34  C   UNL     1       9.250  15.696  17.909  0.00  0.00    +0.000 C 
ENDBRANCH  26  33
ENDBRANCH  25  29
ENDBRANCH  21  25
ENDBRANCH  20  22
ENDBRANCH   1  20
TORSDOF 7
ENDMDL
MODEL 6
REMARK VINA RESULT:      -8.1      2.318      2.837
REMARK  Name = 
REMARK  9 active torsions:
REMARK  status: ('A' for Active; 'I' for Inactive)
REMARK    1  A    between atoms: C_1  and  N_2
REMARK    2  A    between atoms: N_2  and  C_3
REMARK    3  A    between atoms: N_2  and  C_4
REMARK    4  A    between atoms: C_7  and  C_8
REMARK    5  A    between atoms: C_8  and  N_9
REMARK    6  A    between atoms: C_10  and  C_12
REMARK    7  A    between atoms: C_12  and  N_13
REMARK    8  A    between atoms: C_18  and  S_19
REMARK    9  A    between atoms: S_19  and  N_22
REMARK                            x       y       z     vdW  Elec       q    Type
REMARK                         _______ _______ _______ _____ _____    ______ ____
ROOT
ATOM      1  N   UNL     1       0.868  10.048  19.920  0.00  0.00    +0.000 N 
ATOM      2  C   UNL     1       0.035   9.512  20.893  0.00  0.00    +0.000 A 
ATOM      3  C   UNL     1       0.776   8.533  21.505  0.00  0.00    +0.000 A 
ATOM      4  C   UNL     1       1.521   7.993  20.430  0.00  0.00    +0.000 A 
ATOM      5  C   UNL     1       2.010   6.684  20.230  0.00  0.00    +0.000 A 
ATOM      6  C   UNL     1       2.449   6.315  18.960  0.00  0.00    +0.000 A 
ATOM      7  C   UNL     1       2.501   7.276  17.935  0.00  0.00    +0.000 A 
ATOM      8  C   UNL     1       2.081   8.622  18.133  0.00  0.00    +0.000 A 
ATOM      9  C   UNL     1       1.538   8.952  19.394  0.00  0.00    +0.000 A 
ENDROOT
BRANCH   6  10
ATOM     10  S   UNL     1       2.690   4.561  18.608  0.00  0.00    +0.000 S 
ATOM     11  O   UNL     1       2.637   3.877  19.890  0.00  0.00    +0.000 OA
ATOM     12  O   UNL     1       1.773   4.213  17.555  0.00  0.00    +0.000 OA
BRANCH  10  13
ATOM     13  N   UNL     1       4.291   4.426  18.009  0.00  0.00    +0.000 NA
ATOM     14  C   UNL     1       5.402   4.214  18.945  0.00  0.00    +0.000 C 
ATOM     15  C   UNL     1       6.537   5.223  18.745  0.00  0.00    +0.000 C 
ATOM     16  C   UNL     1       7.553   4.827  17.676  0.00  0.00    +0.000 C 
ATOM     17  C   UNL     1       6.984   4.840  16.258  0.00  0.00    +0.000 C 
ATOM     18  C   UNL     1       5.846   3.837  16.068  0.00  0.00    +0.000 C 
ATOM     19  C   UNL     1       4.490   4.333  16.542  0.00  0.00    +0.000 C 
ENDBRANCH  10  13
ENDBRANCH   6  10
BRANCH   1  20
ATOM     20  C   UNL     1       0.624  11.423  19.461  0.00  0.00    +0.000 C 
BRANCH  20  22
ATOM     21  N   UNL     1      -0.681  13.457  20.201  0.00  0.00    +0.000 N 
ATOM     22  C   UNL     1       0.320  12.559  20.440  0.00  0.00    +0.000 C 
ATOM     23  O   UNL     1       1.023  12.651  21.460  0.00  0.00    +0.000 OA
ATOM     24  H   UNL     1      -1.411  13.216  19.526  0.00  0.00    +0.000 HD
BRANCH  21  25
ATOM     25  C   UNL     1      -0.981  14.494  21.184  0.00  0.00    +0.000 C 
BRANCH  25  29
ATOM     26  C   UNL     1      -4.909  14.044  23.122  0.00  0.00    +0.000 A 
ATOM     27  C   UNL     1      -4.768  14.171  21.732  0.00  0.00    +0.000 A 
ATOM     28  C   UNL     1      -3.509  14.330  21.115  0.00  0.00    +0.000 A 
ATOM     29  C   UNL     1      -2.325  14.363  21.867  0.00  0.00    +0.000 A 
ATOM     30  C   UNL     1      -2.443  14.160  23.241  0.00  0.00    +0.000 A 
ATOM     31  C   UNL     1      -3.704  14.015  23.847  0.00  0.00    +0.000 A 
BRANCH  26  33
ATOM     32  C   UNL     1      -6.771  12.611  23.941  0.00  0.00    +0.000 C 
ATOM     33  N   UNL     1      -6.150  13.918  23.751  0.00  0.00    +0.000 N 
ATOM     34  C   UNL     1      -7.033  15.079  23.824  0.00  0.00    +0.000 C 
ENDBRANCH  26  33
ENDBRANCH  25  29
ENDBRANCH  21  25
ENDBRANCH  20  22
ENDBRANCH   1  20
TORSDOF 7
ENDMDL
MODEL 7
REMARK VINA RESULT:      -8.0      3.941      7.003
REMARK  Name = 
REMARK  9 active torsions:
REMARK  status: ('A' for Active; 'I' for Inactive)
REMARK    1  A    between atoms: C_1  and  N_2
REMARK    2  A    between atoms: N_2  and  C_3
REMARK    3  A    between atoms: N_2  and  C_4
REMARK    4  A    between atoms: C_7  and  C_8
REMARK    5  A    between atoms: C_8  and  N_9
REMARK    6  A    between atoms: C_10  and  C_12
REMARK    7  A    between atoms: C_12  and  N_13
REMARK    8  A    between atoms: C_18  and  S_19
REMARK    9  A    between atoms: S_19  and  N_22
REMARK                            x       y       z     vdW  Elec       q    Type
REMARK                         _______ _______ _______ _____ _____    ______ ____
ROOT
ATOM      1  N   UNL     1       0.451  10.671  19.481  0.00  0.00    +0.000 N 
ATOM      2  C   UNL     1      -0.433  10.143  20.413  0.00  0.00    +0.000 A 
ATOM      3  C   UNL     1       0.323   9.309  21.197  0.00  0.00    +0.000 A 
ATOM      4  C   UNL     1       1.233   8.752  20.266  0.00  0.00    +0.000 A 
ATOM      5  C   UNL     1       1.862   7.489  20.255  0.00  0.00    +0.000 A 
ATOM      6  C   UNL     1       2.474   7.051  19.082  0.00  0.00    +0.000 A 
ATOM      7  C   UNL     1       2.552   7.913  17.973  0.00  0.00    +0.000 A 
ATOM      8  C   UNL     1       1.986   9.219  17.987  0.00  0.00    +0.000 A 
ATOM      9  C   UNL     1       1.276   9.608  19.144  0.00  0.00    +0.000 A 
ENDROOT
BRANCH   6  10
ATOM     10  S   UNL     1       2.917   5.306  18.942  0.00  0.00    +0.000 S 
ATOM     11  O   UNL     1       3.027   4.804  20.301  0.00  0.00    +0.000 OA
ATOM     12  O   UNL     1       1.993   4.712  18.013  0.00  0.00    +0.000 OA
BRANCH  10  13
ATOM     13  N   UNL     1       4.485   5.283  18.248  0.00  0.00    +0.000 NA
ATOM     14  C   UNL     1       4.634   5.328  16.787  0.00  0.00    +0.000 C 
ATOM     15  C   UNL     1       5.532   4.206  16.256  0.00  0.00    +0.000 C 
ATOM     16  C   UNL     1       7.024   4.529  16.273  0.00  0.00    +0.000 C 
ATOM     17  C   UNL     1       7.608   4.641  17.680  0.00  0.00    +0.000 C 
ATOM     18  C   UNL     1       6.982   5.773  18.493  0.00  0.00    +0.000 C 
ATOM     19  C   UNL     1       5.657   5.415  19.147  0.00  0.00    +0.000 C 
ENDBRANCH  10  13
ENDBRANCH   6  10
BRANCH   1  20
ATOM     20  C   UNL     1       0.132  11.964  18.858  0.00  0.00    +0.000 C 
BRANCH  20  22
ATOM     21  N   UNL     1       1.167  14.248  18.542  0.00  0.00    +0.000 N 
ATOM     22  C   UNL     1       0.709  13.278  19.388  0.00  0.00    +0.000 C 
ATOM     23  O   UNL     1       0.763  13.436  20.619  0.00  0.00    +0.000 OA
ATOM     24  H   UNL     1       0.871  14.231  17.563  0.00  0.00    +0.000 HD
BRANCH  21  25
ATOM     25  C   UNL     1       1.658  15.514  19.080  0.00  0.00    +0.000 C 
BRANCH  25  29
ATOM     26  C   UNL     1       6.016  16.110  18.874  0.00  0.00    +0.000 A 
ATOM     27  C   UNL     1       5.162  17.025  19.508  0.00  0.00    +0.000 A 
ATOM     28  C   UNL     1       3.765  16.839  19.560  0.00  0.00    +0.000 A 
ATOM     29  C   UNL     1       3.154  15.717  18.980  0.00  0.00    +0.000 A 
ATOM     30  C   UNL     1       3.996  14.761  18.414  0.00  0.00    +0.000 A 
ATOM     31  C   UNL     1       5.388  14.962  18.356  0.00  0.00    +0.000 A 
BRANCH  26  33
ATOM     32  C   UNL     1       8.048  17.433  19.428  0.00  0.00    +0.000 C 
ATOM     33  N   UNL     1       7.397  16.295  18.786  0.00  0.00    +0.000 N 
ATOM     34  C   UNL     1       8.139  15.636  17.714  0.00  0.00    +0.000 C 
ENDBRANCH  26  33
ENDBRANCH  25  29
ENDBRANCH  21  25
ENDBRANCH  20  22
ENDBRANCH   1  20
TORSDOF 7
ENDMDL
MODEL 8
REMARK VINA RESULT:      -7.9      3.852      7.127
REMARK  Name = 
REMARK  9 active torsions:
REMARK  status: ('A' for Active; 'I' for Inactive)
REMARK    1  A    between atoms: C_1  and  N_2
REMARK    2  A    between atoms: N_2  and  C_3
REMARK    3  A    between atoms: N_2  and  C_4
REMARK    4  A    between atoms: C_7  and  C_8
REMARK    5  A    between atoms: C_8  and  N_9
REMARK    6  A    between atoms: C_10  and  C_12
REMARK    7  A    between atoms: C_12  and  N_13
REMARK    8  A    between atoms: C_18  and  S_19
REMARK    9  A    between atoms: S_19  and  N_22
REMARK                            x       y       z     vdW  Elec       q    Type
REMARK                         _______ _______ _______ _____ _____    ______ ____
ROOT
ATOM      1  N   UNL     1       0.553  10.555  19.473  0.00  0.00    +0.000 N 
ATOM      2  C   UNL     1      -0.252  10.084  20.502  0.00  0.00    +0.000 A 
ATOM      3  C   UNL     1       0.554   9.258  21.243  0.00  0.00    +0.000 A 
ATOM      4  C   UNL     1       1.359   8.644  20.254  0.00  0.00    +0.000 A 
ATOM      5  C   UNL     1       1.956   7.366  20.232  0.00  0.00    +0.000 A 
ATOM      6  C   UNL     1       2.445   6.871  19.024  0.00  0.00    +0.000 A 
ATOM      7  C   UNL     1       2.439   7.691  17.882  0.00  0.00    +0.000 A 
ATOM      8  C   UNL     1       1.908   9.012  17.899  0.00  0.00    +0.000 A 
ATOM      9  C   UNL     1       1.318   9.459  19.101  0.00  0.00    +0.000 A 
ENDROOT
BRANCH   6  10
ATOM     10  S   UNL     1       2.832   5.111  18.908  0.00  0.00    +0.000 S 
ATOM     11  O   UNL     1       3.140   4.672  20.259  0.00  0.00    +0.000 OA
ATOM     12  O   UNL     1       1.767   4.495  18.162  0.00  0.00    +0.000 OA
BRANCH  10  13
ATOM     13  N   UNL     1       4.275   5.016  17.986  0.00  0.00    +0.000 NA
ATOM     14  C   UNL     1       5.540   5.482  18.567  0.00  0.00    +0.000 C 
ATOM     15  C   UNL     1       6.272   6.473  17.656  0.00  0.00    +0.000 C 
ATOM     16  C   UNL     1       7.164   5.821  16.602  0.00  0.00    +0.000 C 
ATOM     17  C   UNL     1       6.385   5.060  15.530  0.00  0.00    +0.000 C 
ATOM     18  C   UNL     1       5.582   3.891  16.100  0.00  0.00    +0.000 C 
ATOM     19  C   UNL     1       4.241   4.285  16.696  0.00  0.00    +0.000 C 
ENDBRANCH  10  13
ENDBRANCH   6  10
BRANCH   1  20
ATOM     20  C   UNL     1       0.208  11.834  18.835  0.00  0.00    +0.000 C 
BRANCH  20  22
ATOM     21  N   UNL     1       1.796  13.732  18.324  0.00  0.00    +0.000 N 
ATOM     22  C   UNL     1       0.929  13.135  19.194  0.00  0.00    +0.000 C 
ATOM     23  O   UNL     1       0.713  13.630  20.312  0.00  0.00    +0.000 OA
ATOM     24  H   UNL     1       1.755  13.481  17.333  0.00  0.00    +0.000 HD
BRANCH  21  25
ATOM     25  C   UNL     1       2.423  15.004  18.676  0.00  0.00    +0.000 C 
BRANCH  25  29
ATOM     26  C   UNL     1       6.787  14.895  19.246  0.00  0.00    +0.000 A 
ATOM     27  C   UNL     1       6.193  14.782  17.980  0.00  0.00    +0.000 A 
ATOM     28  C   UNL     1       4.793  14.803  17.802  0.00  0.00    +0.000 A 
ATOM     29  C   UNL     1       3.919  14.944  18.890  0.00  0.00    +0.000 A 
ATOM     30  C   UNL     1       4.497  15.135  20.145  0.00  0.00    +0.000 A 
ATOM     31  C   UNL     1       5.894  15.100  20.313  0.00  0.00    +0.000 A 
BRANCH  26  33
ATOM     32  C   UNL     1       8.933  13.642  19.123  0.00  0.00    +0.000 C 
ATOM     33  N   UNL     1       8.169  14.844  19.443  0.00  0.00    +0.000 N 
ATOM     34  C   UNL     1       8.794  15.793  20.360  0.00  0.00    +0.000 C 
ENDBRANCH  26  33
ENDBRANCH  25  29
ENDBRANCH  21  25
ENDBRANCH  20  22
ENDBRANCH   1  20
TORSDOF 7
ENDMDL
MODEL 9
REMARK VINA RESULT:      -7.9      2.579      3.425
REMARK  Name = 
REMARK  9 active torsions:
REMARK  status: ('A' for Active; 'I' for Inactive)
REMARK    1  A    between atoms: C_1  and  N_2
REMARK    2  A    between atoms: N_2  and  C_3
REMARK    3  A    between atoms: N_2  and  C_4
REMARK    4  A    between atoms: C_7  and  C_8
REMARK    5  A    between atoms: C_8  and  N_9
REMARK    6  A    between atoms: C_10  and  C_12
REMARK    7  A    between atoms: C_12  and  N_13
REMARK    8  A    between atoms: C_18  and  S_19
REMARK    9  A    between atoms: S_19  and  N_22
REMARK                            x       y       z     vdW  Elec       q    Type
REMARK                         _______ _______ _______ _____ _____    ______ ____
ROOT
ATOM      1  N   UNL     1       1.005   7.661  20.755  0.00  0.00    +0.000 N 
ATOM      2  C   UNL     1       1.890   8.526  20.125  0.00  0.00    +0.000 A 
ATOM      3  C   UNL     1       2.156   7.950  18.909  0.00  0.00    +0.000 A 
ATOM      4  C   UNL     1       2.171   6.569  19.218  0.00  0.00    +0.000 A 
ATOM      5  C   UNL     1       2.896   5.513  18.627  0.00  0.00    +0.000 A 
ATOM      6  C   UNL     1       2.980   4.294  19.298  0.00  0.00    +0.000 A 
ATOM      7  C   UNL     1       2.254   4.103  20.487  0.00  0.00    +0.000 A 
ATOM      8  C   UNL     1       1.457   5.132  21.064  0.00  0.00    +0.000 A 
ATOM      9  C   UNL     1       1.469   6.393  20.431  0.00  0.00    +0.000 A 
ENDROOT
BRANCH   6  10
ATOM     10  S   UNL     1       4.216   3.096  18.755  0.00  0.00    +0.000 S 
ATOM     11  O   UNL     1       4.889   2.631  19.956  0.00  0.00    +0.000 OA
ATOM     12  O   UNL     1       3.546   2.166  17.885  0.00  0.00    +0.000 OA
BRANCH  10  13
ATOM     13  N   UNL     1       5.352   3.990  17.833  0.00  0.00    +0.000 NA
ATOM     14  C   UNL     1       6.432   4.716  18.514  0.00  0.00    +0.000 C 
ATOM     15  C   UNL     1       6.512   6.184  18.083  0.00  0.00    +0.000 C 
ATOM     16  C   UNL     1       7.340   6.428  16.824  0.00  0.00    +0.000 C 
ATOM     17  C   UNL     1       6.707   5.855  15.557  0.00  0.00    +0.000 C 
ATOM     18  C   UNL     1       6.559   4.334  15.605  0.00  0.00    +0.000 C 
ATOM     19  C   UNL     1       5.330   3.849  16.356  0.00  0.00    +0.000 C 
ENDBRANCH  10  13
ENDBRANCH   6  10
BRANCH   1  20
ATOM     20  C   UNL     1       0.110   8.195  21.791  0.00  0.00    +0.000 C 
BRANCH  20  22
ATOM     21  N   UNL     1      -0.703  10.515  21.205  0.00  0.00    +0.000 N 
ATOM     22  C   UNL     1      -0.013   9.697  22.054  0.00  0.00    +0.000 C 
ATOM     23  O   UNL     1       0.546  10.160  23.062  0.00  0.00    +0.000 OA
ATOM     24  H   UNL     1      -1.374  10.100  20.554  0.00  0.00    +0.000 HD
BRANCH  21  25
ATOM     25  C   UNL     1      -0.849  11.934  21.516  0.00  0.00    +0.000 C 
BRANCH  25  29
ATOM     26  C   UNL     1      -4.791  13.028  23.144  0.00  0.00    +0.000 A 
ATOM     27  C   UNL     1      -4.519  13.036  21.768  0.00  0.00    +0.000 A 
ATOM     28  C   UNL     1      -3.251  12.699  21.250  0.00  0.00    +0.000 A 
ATOM     29  C   UNL     1      -2.191  12.331  22.092  0.00  0.00    +0.000 A 
ATOM     30  C   UNL     1      -2.467  12.244  23.455  0.00  0.00    +0.000 A 
ATOM     31  C   UNL     1      -3.733  12.595  23.963  0.00  0.00    +0.000 A 
BRANCH  26  33
ATOM     32  C   UNL     1      -7.108  12.414  23.810  0.00  0.00    +0.000 C 
ATOM     33  N   UNL     1      -6.031  13.390  23.674  0.00  0.00    +0.000 N 
ATOM     34  C   UNL     1      -6.419  14.799  23.686  0.00  0.00    +0.000 C 
ENDBRANCH  26  33
ENDBRANCH  25  29
ENDBRANCH  21  25
ENDBRANCH  20  22
ENDBRANCH   1  20
TORSDOF 7
ENDMDL
