MODEL 1
REMARK VINA RESULT:      -7.2      0.000      0.000
REMARK  Name = 
REMARK  5 active torsions:
REMARK  status: ('A' for Active; 'I' for Inactive)
REMARK    1  A    between atoms: C_1  and  C_2
REMARK    2  A    between atoms: C_2  and  O_3
REMARK    3  A    between atoms: O_3  and  C_4
REMARK    4  A    between atoms: C_13  and  C_14
REMARK    5  A    between atoms: N_16  and  C_17
REMARK                            x       y       z     vdW  Elec       q    Type
REMARK                         _______ _______ _______ _____ _____    ______ ____
ROOT
ATOM      1  C   UNL     1       4.304   4.982  18.136  0.00  0.00    +0.000 A 
ATOM      2  C   UNL     1       3.784   4.674  19.391  0.00  0.00    +0.000 A 
ATOM      3  C   UNL     1       2.908   5.554  20.038  0.00  0.00    +0.000 A 
ATOM      4  C   UNL     1       2.547   6.766  19.422  0.00  0.00    +0.000 A 
ATOM      5  N   UNL     1       1.694   7.718  19.947  0.00  0.00    +0.000 NA
ATOM      6  C   UNL     1       1.601   8.762  19.153  0.00  0.00    +0.000 A 
ATOM      7  N   UNL     1       0.859   9.865  19.460  0.00  0.00    +0.000 N 
ATOM      8  C   UNL     1       1.077  11.166  18.846  0.00  0.00    +0.000 C 
ATOM      9  C   UNL     1       1.329  12.197  19.952  0.00  0.00    +0.000 C 
ATOM     10  C   UNL     1       0.200  12.212  21.000  0.00  0.00    +0.000 C 
ATOM     11  C   UNL     1      -0.022  10.795  21.545  0.00  0.00    +0.000 C 
ATOM     12  C   UNL     1      -0.228   9.770  20.428  0.00  0.00    +0.000 C 
ATOM     13  S   UNL     1       2.495   8.594  17.677  0.00  0.00    +0.000 S 
ATOM     14  C   UNL     1       3.080   7.062  18.172  0.00  0.00    +0.000 A 
ATOM     15  C   UNL     1       3.953   6.183  17.507  0.00  0.00    +0.000 A 
ENDROOT
BRANCH  10  16
ATOM     16  C   UNL     1      -1.063  12.827  20.393  0.00  0.00    +0.000 C 
ATOM     17  O   UNL     1      -0.994  13.776  19.619  0.00  0.00    +0.000 OA
ATOM     18  N   UNL     1      -2.252  12.270  20.831  0.00  0.00    +0.000 N 
ATOM     19  H   UNL     1      -2.242  11.720  21.684  0.00  0.00    +0.000 HD
BRANCH  18  20
ATOM     20  C   UNL     1      -3.533  12.600  20.320  0.00  0.00    +0.000 A 
ATOM     21  C   UNL     1      -4.388  13.514  20.944  0.00  0.00    +0.000 A 
ATOM     22  C   UNL     1      -5.648  13.795  20.406  0.00  0.00    +0.000 A 
ATOM     23  C   UNL     1      -6.057  13.169  19.233  0.00  0.00    +0.000 A 
ATOM     24 BR   UNL     1      -7.767  13.550  18.522  0.00  0.00    +0.000 Br
ATOM     25  C   UNL     1      -5.213  12.273  18.582  0.00  0.00    +0.000 A 
ATOM     26  C   UNL     1      -3.958  12.004  19.127  0.00  0.00    +0.000 A 
ATOM     27  F   UNL     1      -3.153  11.133  18.498  0.00  0.00    +0.000 F 
ENDBRANCH  18  20
ENDBRANCH  10  16
BRANCH   1  28
ATOM     28  O   UNL     1       5.167   4.195  17.416  0.00  0.00    +0.000 OA
BRANCH  28  30
ATOM     29  C   UNL     1       6.494   4.056  15.429  0.00  0.00    +0.000 C 
ATOM     30  C   UNL     1       6.174   4.873  16.666  0.00  0.00    +0.000 C 
ENDBRANCH  28  30
ENDBRANCH   1  28
TORSDOF 4
ENDMDL
MODEL 2
REMARK VINA RESULT:      -7.0      0.927      1.286
REMARK  Name = 
REMARK  5 active torsions:
REMARK  status: ('A' for Active; 'I' for Inactive)
REMARK    1  A    between atoms: C_1  and  C_2
REMARK    2  A    between atoms: C_2  and  O_3
REMARK    3  A    between atoms: O_3  and  C_4
REMARK    4  A    between atoms: C_13  and  C_14
REMARK    5  A    between atoms: N_16  and  C_17
REMARK                            x       y       z     vdW  Elec       q    Type
REMARK                         _______ _______ _______ _____ _____    ______ ____
ROOT
ATOM      1  C   UNL     1       4.140   4.889  18.383  0.00  0.00    +0.000 A 
ATOM      2  C   UNL     1       3.631   4.636  19.656  0.00  0.00    +0.000 A 
ATOM      3  C   UNL     1       2.780   5.555  20.282  0.00  0.00    +0.000 A 
ATOM      4  C   UNL     1       2.432   6.751  19.627  0.00  0.00    +0.000 A 
ATOM      5  N   UNL     1       1.603   7.736  20.127  0.00  0.00    +0.000 NA
ATOM      6  C   UNL     1       1.518   8.753  19.297  0.00  0.00    +0.000 A 
ATOM      7  N   UNL     1       0.800   9.879  19.573  0.00  0.00    +0.000 N 
ATOM      8  C   UNL     1       1.033  11.153  18.910  0.00  0.00    +0.000 C 
ATOM      9  C   UNL     1       1.319  12.219  19.975  0.00  0.00    +0.000 C 
ATOM     10  C   UNL     1       0.204  12.292  21.036  0.00  0.00    +0.000 C 
ATOM     11  C   UNL     1      -0.036  10.900  21.635  0.00  0.00    +0.000 C 
ATOM     12  C   UNL     1      -0.275   9.839  20.558  0.00  0.00    +0.000 C 
ATOM     13  S   UNL     1       2.390   8.515  17.817  0.00  0.00    +0.000 S 
ATOM     14  C   UNL     1       2.954   6.992  18.360  0.00  0.00    +0.000 A 
ATOM     15  C   UNL     1       3.802   6.073  17.716  0.00  0.00    +0.000 A 
ENDROOT
BRANCH  10  16
ATOM     16  C   UNL     1      -1.056  12.907  20.423  0.00  0.00    +0.000 C 
ATOM     17  O   UNL     1      -0.982  13.849  19.640  0.00  0.00    +0.000 OA
ATOM     18  N   UNL     1      -2.247  12.361  20.866  0.00  0.00    +0.000 N 
ATOM     19  H   UNL     1      -2.241  11.819  21.725  0.00  0.00    +0.000 HD
BRANCH  18  20
ATOM     20  C   UNL     1      -3.527  12.692  20.353  0.00  0.00    +0.000 A 
ATOM     21  C   UNL     1      -4.093  12.049  19.247  0.00  0.00    +0.000 A 
ATOM     22  C   UNL     1      -5.355  12.423  18.772  0.00  0.00    +0.000 A 
ATOM     23  C   UNL     1      -6.063  13.437  19.409  0.00  0.00    +0.000 A 
ATOM     24 BR   UNL     1      -7.762  13.939  18.750  0.00  0.00    +0.000 Br
ATOM     25  C   UNL     1      -5.529  14.076  20.525  0.00  0.00    +0.000 A 
ATOM     26  C   UNL     1      -4.272  13.692  20.990  0.00  0.00    +0.000 A 
ATOM     27  F   UNL     1      -3.760  14.317  22.062  0.00  0.00    +0.000 F 
ENDBRANCH  18  20
ENDBRANCH  10  16
BRANCH   1  28
ATOM     28  O   UNL     1       4.979   4.062  17.682  0.00  0.00    +0.000 OA
BRANCH  28  30
ATOM     29  C   UNL     1       6.232   4.152  15.645  0.00  0.00    +0.000 C 
ATOM     30  C   UNL     1       6.109   4.674  17.063  0.00  0.00    +0.000 C 
ENDBRANCH  28  30
ENDBRANCH   1  28
TORSDOF 4
ENDMDL
MODEL 3
REMARK VINA RESULT:      -6.8      2.057      2.212
REMARK  Name = 
REMARK  5 active torsions:
REMARK  status: ('A' for Active; 'I' for Inactive)
REMARK    1  A    between atoms: C_1  and  C_2
REMARK    2  A    between atoms: C_2  and  O_3
REMARK    3  A    between atoms: O_3  and  C_4
REMARK    4  A    between atoms: C_13  and  C_14
REMARK    5  A    between atoms: N_16  and  C_17
REMARK                            x       y       z     vdW  Elec       q    Type
REMARK                         _______ _______ _______ _____ _____    ______ ____
ROOT
ATOM      1  C   UNL     1       4.284   4.946  17.922  0.00  0.00    +0.000 A 
ATOM      2  C   UNL     1       3.960   4.466  19.190  0.00  0.00    +0.000 A 
ATOM      3  C   UNL     1       3.113   5.194  20.035  0.00  0.00    +0.000 A 
ATOM      4  C   UNL     1       2.583   6.426  19.608  0.00  0.00    +0.000 A 
ATOM      5  N   UNL     1       1.737   7.239  20.338  0.00  0.00    +0.000 NA
ATOM      6  C   UNL     1       1.461   8.346  19.683  0.00  0.00    +0.000 A 
ATOM      7  N   UNL     1       0.685   9.341  20.201  0.00  0.00    +0.000 N 
ATOM      8  C   UNL     1       0.721  10.712  19.715  0.00  0.00    +0.000 C 
ATOM      9  C   UNL     1       1.038  11.644  20.890  0.00  0.00    +0.000 C 
ATOM     10  C   UNL     1       0.060  11.451  22.064  0.00  0.00    +0.000 C 
ATOM     11  C   UNL     1       0.020   9.972  22.470  0.00  0.00    +0.000 C 
ATOM     12  C   UNL     1      -0.254   9.051  21.279  0.00  0.00    +0.000 C 
ATOM     13  S   UNL     1       2.163   8.409  18.099  0.00  0.00    +0.000 S 
ATOM     14  C   UNL     1       2.922   6.893  18.343  0.00  0.00    +0.000 A 
ATOM     15  C   UNL     1       3.763   6.168  17.481  0.00  0.00    +0.000 A 
ENDROOT
BRANCH  10  16
ATOM     16  C   UNL     1      -1.316  12.008  21.691  0.00  0.00    +0.000 C 
ATOM     17  O   UNL     1      -1.827  11.751  20.605  0.00  0.00    +0.000 OA
ATOM     18  N   UNL     1      -1.882  12.847  22.633  0.00  0.00    +0.000 N 
ATOM     19  H   UNL     1      -1.280  13.253  23.343  0.00  0.00    +0.000 HD
BRANCH  18  20
ATOM     20  C   UNL     1      -3.193  13.383  22.553  0.00  0.00    +0.000 A 
ATOM     21  C   UNL     1      -3.550  14.387  21.648  0.00  0.00    +0.000 A 
ATOM     22  C   UNL     1      -4.855  14.891  21.617  0.00  0.00    +0.000 A 
ATOM     23  C   UNL     1      -5.814  14.383  22.487  0.00  0.00    +0.000 A 
ATOM     24 BR   UNL     1      -7.571  15.080  22.443  0.00  0.00    +0.000 Br
ATOM     25  C   UNL     1      -5.488  13.368  23.382  0.00  0.00    +0.000 A 
ATOM     26  C   UNL     1      -4.184  12.872  23.400  0.00  0.00    +0.000 A 
ATOM     27  F   UNL     1      -3.874  11.898  24.270  0.00  0.00    +0.000 F 
ENDBRANCH  18  20
ENDBRANCH  10  16
BRANCH   1  28
ATOM     28  O   UNL     1       5.101   4.316  17.019  0.00  0.00    +0.000 OA
BRANCH  28  30
ATOM     29  C   UNL     1       6.314   4.186  14.959  0.00  0.00    +0.000 C 
ATOM     30  C   UNL     1       5.359   5.012  15.799  0.00  0.00    +0.000 C 
ENDBRANCH  28  30
ENDBRANCH   1  28
TORSDOF 4
ENDMDL
MODEL 4
REMARK VINA RESULT:      -6.7      1.345      1.502
REMARK  Name = 
REMARK  5 active torsions:
REMARK  status: ('A' for Active; 'I' for Inactive)
REMARK    1  A    between atoms: C_1  and  C_2
REMARK    2  A    between atoms: C_2  and  O_3
REMARK    3  A    between atoms: O_3  and  C_4
REMARK    4  A    between atoms: C_13  and  C_14
REMARK    5  A    between atoms: N_16  and  C_17
REMARK                            x       y       z     vdW  Elec       q    Type
REMARK                         _______ _______ _______ _____ _____    ______ ____
ROOT
ATOM      1  C   UNL     1       4.239   5.739  17.796  0.00  0.00    +0.000 A 
ATOM      2  C   UNL     1       4.090   5.176  19.062  0.00  0.00    +0.000 A 
ATOM      3  C   UNL     1       3.232   5.754  20.005  0.00  0.00    +0.000 A 
ATOM      4  C   UNL     1       2.511   6.917  19.680  0.00  0.00    +0.000 A 
ATOM      5  N   UNL     1       1.631   7.583  20.512  0.00  0.00    +0.000 NA
ATOM      6  C   UNL     1       1.158   8.666  19.935  0.00  0.00    +0.000 A 
ATOM      7  N   UNL     1       0.306   9.529  20.559  0.00  0.00    +0.000 N 
ATOM      8  C   UNL     1       0.121  10.909  20.135  0.00  0.00    +0.000 C 
ATOM      9  C   UNL     1       0.414  11.833  21.323  0.00  0.00    +0.000 C 
ATOM     10  C   UNL     1      -0.426  11.469  22.562  0.00  0.00    +0.000 C 
ATOM     11  C   UNL     1      -0.238   9.985  22.901  0.00  0.00    +0.000 C 
ATOM     12  C   UNL     1      -0.491   9.078  21.694  0.00  0.00    +0.000 C 
ATOM     13  S   UNL     1       1.706   8.879  18.303  0.00  0.00    +0.000 S 
ATOM     14  C   UNL     1       2.675   7.471  18.414  0.00  0.00    +0.000 A 
ATOM     15  C   UNL     1       3.527   6.895  17.455  0.00  0.00    +0.000 A 
ENDROOT
BRANCH  10  16
ATOM     16  C   UNL     1      -1.890  11.850  22.327  0.00  0.00    +0.000 C 
ATOM     17  O   UNL     1      -2.766  11.506  23.116  0.00  0.00    +0.000 OA
ATOM     18  N   UNL     1      -2.133  12.540  21.154  0.00  0.00    +0.000 N 
ATOM     19  H   UNL     1      -1.431  12.511  20.421  0.00  0.00    +0.000 HD
BRANCH  18  20
ATOM     20  C   UNL     1      -3.387  13.092  20.787  0.00  0.00    +0.000 A 
ATOM     21  C   UNL     1      -3.932  14.222  21.406  0.00  0.00    +0.000 A 
ATOM     22  C   UNL     1      -5.179  14.719  21.015  0.00  0.00    +0.000 A 
ATOM     23  C   UNL     1      -5.886  14.093  19.993  0.00  0.00    +0.000 A 
ATOM     24 BR   UNL     1      -7.576  14.770  19.483  0.00  0.00    +0.000 Br
ATOM     25  C   UNL     1      -5.354  12.981  19.347  0.00  0.00    +0.000 A 
ATOM     26  C   UNL     1      -4.108  12.497  19.744  0.00  0.00    +0.000 A 
ATOM     27  F   UNL     1      -3.603  11.419  19.122  0.00  0.00    +0.000 F 
ENDBRANCH  18  20
ENDBRANCH  10  16
BRANCH   1  28
ATOM     28  O   UNL     1       5.050   5.257  16.801  0.00  0.00    +0.000 OA
BRANCH  28  30
ATOM     29  C   UNL     1       7.216   6.155  17.287  0.00  0.00    +0.000 C 
ATOM     30  C   UNL     1       6.378   4.895  17.179  0.00  0.00    +0.000 C 
ENDBRANCH  28  30
ENDBRANCH   1  28
TORSDOF 4
ENDMDL
MODEL 5
REMARK VINA RESULT:      -6.7      1.445      1.790
REMARK  Name = 
REMARK  5 active torsions:
REMARK  status: ('A' for Active; 'I' for Inactive)
REMARK    1  A    between atoms: C_1  and  C_2
REMARK    2  A    between atoms: C_2  and  O_3
REMARK    3  A    between atoms: O_3  and  C_4
REMARK    4  A    between atoms: C_13  and  C_14
REMARK    5  A    between atoms: N_16  and  C_17
REMARK                            x       y       z     vdW  Elec       q    Type
REMARK                         _______ _______ _______ _____ _____    ______ ____
ROOT
ATOM      1  C   UNL     1       3.704   4.853  18.739  0.00  0.00    +0.000 A 
ATOM      2  C   UNL     1       3.209   4.678  20.029  0.00  0.00    +0.000 A 
ATOM      3  C   UNL     1       2.413   5.661  20.629  0.00  0.00    +0.000 A 
ATOM      4  C   UNL     1       2.107   6.843  19.929  0.00  0.00    +0.000 A 
ATOM      5  N   UNL     1       1.333   7.886  20.401  0.00  0.00    +0.000 NA
ATOM      6  C   UNL     1       1.279   8.869  19.529  0.00  0.00    +0.000 A 
ATOM      7  N   UNL     1       0.618  10.038  19.768  0.00  0.00    +0.000 N 
ATOM      8  C   UNL     1       0.896  11.270  19.045  0.00  0.00    +0.000 C 
ATOM      9  C   UNL     1       1.250  12.366  20.058  0.00  0.00    +0.000 C 
ATOM     10  C   UNL     1       0.161  12.536  21.134  0.00  0.00    +0.000 C 
ATOM     11  C   UNL     1      -0.131  11.184  21.797  0.00  0.00    +0.000 C 
ATOM     12  C   UNL     1      -0.438  10.090  20.771  0.00  0.00    +0.000 C 
ATOM     13  S   UNL     1       2.110   8.528  18.045  0.00  0.00    +0.000 S 
ATOM     14  C   UNL     1       2.615   7.005  18.644  0.00  0.00    +0.000 A 
ATOM     15  C   UNL     1       3.407   6.021  18.027  0.00  0.00    +0.000 A 
ENDROOT
BRANCH  10  16
ATOM     16  C   UNL     1      -1.082  13.182  20.517  0.00  0.00    +0.000 C 
ATOM     17  O   UNL     1      -0.980  14.026  19.631  0.00  0.00    +0.000 OA
ATOM     18  N   UNL     1      -2.284  12.785  21.073  0.00  0.00    +0.000 N 
ATOM     19  H   UNL     1      -2.271  12.338  21.985  0.00  0.00    +0.000 HD
BRANCH  18  20
ATOM     20  C   UNL     1      -3.562  13.162  20.587  0.00  0.00    +0.000 A 
ATOM     21  C   UNL     1      -4.275  12.403  19.653  0.00  0.00    +0.000 A 
ATOM     22  C   UNL     1      -5.527  12.826  19.195  0.00  0.00    +0.000 A 
ATOM     23  C   UNL     1      -6.079  14.008  19.679  0.00  0.00    +0.000 A 
ATOM     24 BR   UNL     1      -7.768  14.573  19.044  0.00  0.00    +0.000 Br
ATOM     25  C   UNL     1      -5.398  14.768  20.626  0.00  0.00    +0.000 A 
ATOM     26  C   UNL     1      -4.152  14.334  21.076  0.00  0.00    +0.000 A 
ATOM     27  F   UNL     1      -3.496  15.075  21.983  0.00  0.00    +0.000 F 
ENDBRANCH  18  20
ENDBRANCH  10  16
BRANCH   1  28
ATOM     28  O   UNL     1       4.491   3.958  18.060  0.00  0.00    +0.000 OA
BRANCH  28  30
ATOM     29  C   UNL     1       3.545   1.759  18.110  0.00  0.00    +0.000 C 
ATOM     30  C   UNL     1       3.812   2.988  17.262  0.00  0.00    +0.000 C 
ENDBRANCH  28  30
ENDBRANCH   1  28
TORSDOF 4
ENDMDL
MODEL 6
REMARK VINA RESULT:      -6.6      0.988      1.182
REMARK  Name = 
REMARK  5 active torsions:
REMARK  status: ('A' for Active; 'I' for Inactive)
REMARK    1  A    between atoms: C_1  and  C_2
REMARK    2  A    between atoms: C_2  and  O_3
REMARK    3  A    between atoms: O_3  and  C_4
REMARK    4  A    between atoms: C_13  and  C_14
REMARK    5  A    between atoms: N_16  and  C_17
REMARK                            x       y       z     vdW  Elec       q    Type
REMARK                         _______ _______ _______ _____ _____    ______ ____
ROOT
ATOM      1  C   UNL     1       3.748   4.714  18.759  0.00  0.00    +0.000 A 
ATOM      2  C   UNL     1       3.207   4.471  20.020  0.00  0.00    +0.000 A 
ATOM      3  C   UNL     1       2.385   5.419  20.641  0.00  0.00    +0.000 A 
ATOM      4  C   UNL     1       2.099   6.634  19.992  0.00  0.00    +0.000 A 
ATOM      5  N   UNL     1       1.303   7.649  20.488  0.00  0.00    +0.000 NA
ATOM      6  C   UNL     1       1.274   8.676  19.667  0.00  0.00    +0.000 A 
ATOM      7  N   UNL     1       0.599   9.828  19.941  0.00  0.00    +0.000 N 
ATOM      8  C   UNL     1       0.897  11.097  19.294  0.00  0.00    +0.000 C 
ATOM      9  C   UNL     1       1.208  12.141  20.374  0.00  0.00    +0.000 C 
ATOM     10  C   UNL     1       0.079  12.251  21.417  0.00  0.00    +0.000 C 
ATOM     11  C   UNL     1      -0.229  10.865  21.998  0.00  0.00    +0.000 C 
ATOM     12  C   UNL     1      -0.493   9.825  20.907  0.00  0.00    +0.000 C 
ATOM     13  S   UNL     1       2.161   8.415  18.199  0.00  0.00    +0.000 S 
ATOM     14  C   UNL     1       2.651   6.864  18.736  0.00  0.00    +0.000 A 
ATOM     15  C   UNL     1       3.471   5.917  18.098  0.00  0.00    +0.000 A 
ENDROOT
BRANCH  10  16
ATOM     16  C   UNL     1      -1.144  12.924  20.789  0.00  0.00    +0.000 C 
ATOM     17  O   UNL     1      -1.019  13.895  20.050  0.00  0.00    +0.000 OA
ATOM     18  N   UNL     1      -2.363  12.390  21.168  0.00  0.00    +0.000 N 
ATOM     19  H   UNL     1      -2.399  11.813  22.002  0.00  0.00    +0.000 HD
BRANCH  18  20
ATOM     20  C   UNL     1      -3.615  12.776  20.627  0.00  0.00    +0.000 A 
ATOM     21  C   UNL     1      -4.418  13.769  21.198  0.00  0.00    +0.000 A 
ATOM     22  C   UNL     1      -5.652  14.104  20.632  0.00  0.00    +0.000 A 
ATOM     23  C   UNL     1      -6.086  13.453  19.481  0.00  0.00    +0.000 A 
ATOM     24 BR   UNL     1      -7.761  13.907  18.732  0.00  0.00    +0.000 Br
ATOM     25  C   UNL     1      -5.295  12.477  18.882  0.00  0.00    +0.000 A 
ATOM     26  C   UNL     1      -4.065  12.155  19.455  0.00  0.00    +0.000 A 
ATOM     27  F   UNL     1      -3.309  11.208  18.876  0.00  0.00    +0.000 F 
ENDBRANCH  18  20
ENDBRANCH  10  16
BRANCH   1  28
ATOM     28  O   UNL     1       4.563   3.858  18.064  0.00  0.00    +0.000 OA
BRANCH  28  30
ATOM     29  C   UNL     1       2.925   2.123  17.877  0.00  0.00    +0.000 C 
ATOM     30  C   UNL     1       3.926   2.985  17.132  0.00  0.00    +0.000 C 
ENDBRANCH  28  30
ENDBRANCH   1  28
TORSDOF 4
ENDMDL
MODEL 7
REMARK VINA RESULT:      -6.6      1.718      1.762
REMARK  Name = 
REMARK  5 active torsions:
REMARK  status: ('A' for Active; 'I' for Inactive)
REMARK    1  A    between atoms: C_1  and  C_2
REMARK    2  A    between atoms: C_2  and  O_3
REMARK    3  A    between atoms: O_3  and  C_4
REMARK    4  A    between atoms: C_13  and  C_14
REMARK    5  A    between atoms: N_16  and  C_17
REMARK                            x       y       z     vdW  Elec       q    Type
REMARK                         _______ _______ _______ _____ _____    ______ ____
ROOT
ATOM      1  C   UNL     1       4.630   5.268  17.798  0.00  0.00    +0.000 A 
ATOM      2  C   UNL     1       4.309   4.829  19.081  0.00  0.00    +0.000 A 
ATOM      3  C   UNL     1       3.407   5.545  19.877  0.00  0.00    +0.000 A 
ATOM      4  C   UNL     1       2.817   6.723  19.385  0.00  0.00    +0.000 A 
ATOM      5  N   UNL     1       1.912   7.519  20.062  0.00  0.00    +0.000 NA
ATOM      6  C   UNL     1       1.587   8.578  19.353  0.00  0.00    +0.000 A 
ATOM      7  N   UNL     1       0.747   9.549  19.811  0.00  0.00    +0.000 N 
ATOM      8  C   UNL     1       0.715  10.897  19.263  0.00  0.00    +0.000 C 
ATOM      9  C   UNL     1       0.957  11.897  20.399  0.00  0.00    +0.000 C 
ATOM     10  C   UNL     1      -0.031  11.703  21.564  0.00  0.00    +0.000 C 
ATOM     11  C   UNL     1       0.003  10.243  22.037  0.00  0.00    +0.000 C 
ATOM     12  C   UNL     1      -0.195   9.256  20.885  0.00  0.00    +0.000 C 
ATOM     13  S   UNL     1       2.315   8.610  17.779  0.00  0.00    +0.000 S 
ATOM     14  C   UNL     1       3.153   7.152  18.105  0.00  0.00    +0.000 A 
ATOM     15  C   UNL     1       4.050   6.437  17.292  0.00  0.00    +0.000 A 
ENDROOT
BRANCH  10  16
ATOM     16  C   UNL     1      -1.429  12.163  21.143  0.00  0.00    +0.000 C 
ATOM     17  O   UNL     1      -1.890  11.856  20.048  0.00  0.00    +0.000 OA
ATOM     18  N   UNL     1      -2.075  12.979  22.054  0.00  0.00    +0.000 N 
ATOM     19  H   UNL     1      -1.521  13.434  22.772  0.00  0.00    +0.000 HD
BRANCH  18  20
ATOM     20  C   UNL     1      -3.414  13.427  21.927  0.00  0.00    +0.000 A 
ATOM     21  C   UNL     1      -4.498  12.761  22.508  0.00  0.00    +0.000 A 
ATOM     22  C   UNL     1      -5.802  13.238  22.342  0.00  0.00    +0.000 A 
ATOM     23  C   UNL     1      -6.029  14.393  21.602  0.00  0.00    +0.000 A 
ATOM     24 BR   UNL     1      -7.798  15.021  21.377  0.00  0.00    +0.000 Br
ATOM     25  C   UNL     1      -4.964  15.086  21.033  0.00  0.00    +0.000 A 
ATOM     26  C   UNL     1      -3.668  14.602  21.208  0.00  0.00    +0.000 A 
ATOM     27  F   UNL     1      -2.646  15.270  20.651  0.00  0.00    +0.000 F 
ENDBRANCH  18  20
ENDBRANCH  10  16
BRANCH   1  28
ATOM     28  O   UNL     1       5.499   4.646  16.938  0.00  0.00    +0.000 OA
BRANCH  28  30
ATOM     29  C   UNL     1       6.244   3.996  14.758  0.00  0.00    +0.000 C 
ATOM     30  C   UNL     1       5.287   4.870  15.544  0.00  0.00    +0.000 C 
ENDBRANCH  28  30
ENDBRANCH   1  28
TORSDOF 4
ENDMDL
MODEL 8
REMARK VINA RESULT:      -6.4      1.530      1.767
REMARK  Name = 
REMARK  5 active torsions:
REMARK  status: ('A' for Active; 'I' for Inactive)
REMARK    1  A    between atoms: C_1  and  C_2
REMARK    2  A    between atoms: C_2  and  O_3
REMARK    3  A    between atoms: O_3  and  C_4
REMARK    4  A    between atoms: C_13  and  C_14
REMARK    5  A    between atoms: N_16  and  C_17
REMARK                            x       y       z     vdW  Elec       q    Type
REMARK                         _______ _______ _______ _____ _____    ______ ____
ROOT
ATOM      1  C   UNL     1       3.294   5.011  18.840  0.00  0.00    +0.000 A 
ATOM      2  C   UNL     1       2.791   4.863  20.131  0.00  0.00    +0.000 A 
ATOM      3  C   UNL     1       2.067   5.895  20.740  0.00  0.00    +0.000 A 
ATOM      4  C   UNL     1       1.841   7.098  20.048  0.00  0.00    +0.000 A 
ATOM      5  N   UNL     1       1.143   8.190  20.528  0.00  0.00    +0.000 NA
ATOM      6  C   UNL     1       1.154   9.180  19.662  0.00  0.00    +0.000 A 
ATOM      7  N   UNL     1       0.576  10.390  19.910  0.00  0.00    +0.000 N 
ATOM      8  C   UNL     1       0.936  11.605  19.195  0.00  0.00    +0.000 C 
ATOM      9  C   UNL     1       1.367  12.667  20.213  0.00  0.00    +0.000 C 
ATOM     10  C   UNL     1       0.295  12.905  21.293  0.00  0.00    +0.000 C 
ATOM     11  C   UNL     1      -0.087  11.571  21.948  0.00  0.00    +0.000 C 
ATOM     12  C   UNL     1      -0.472  10.508  20.917  0.00  0.00    +0.000 C 
ATOM     13  S   UNL     1       1.955   8.792  18.174  0.00  0.00    +0.000 S 
ATOM     14  C   UNL     1       2.355   7.233  18.762  0.00  0.00    +0.000 A 
ATOM     15  C   UNL     1       3.076   6.202  18.136  0.00  0.00    +0.000 A 
ENDROOT
BRANCH  10  16
ATOM     16  C   UNL     1      -0.902  13.639  20.684  0.00  0.00    +0.000 C 
ATOM     17  O   UNL     1      -0.804  14.219  19.607  0.00  0.00    +0.000 OA
ATOM     18  N   UNL     1      -2.046  13.638  21.461  0.00  0.00    +0.000 N 
ATOM     19  H   UNL     1      -1.958  13.418  22.449  0.00  0.00    +0.000 HD
BRANCH  18  20
ATOM     20  C   UNL     1      -3.301  14.153  21.051  0.00  0.00    +0.000 A 
ATOM     21  C   UNL     1      -3.678  15.485  21.247  0.00  0.00    +0.000 A 
ATOM     22  C   UNL     1      -4.935  15.941  20.834  0.00  0.00    +0.000 A 
ATOM     23  C   UNL     1      -5.819  15.066  20.211  0.00  0.00    +0.000 A 
ATOM     24 BR   UNL     1      -7.518  15.692  19.667  0.00  0.00    +0.000 Br
ATOM     25  C   UNL     1      -5.457  13.741  19.984  0.00  0.00    +0.000 A 
ATOM     26  C   UNL     1      -4.200  13.300  20.398  0.00  0.00    +0.000 A 
ATOM     27  F   UNL     1      -3.860  12.019  20.183  0.00  0.00    +0.000 F 
ENDBRANCH  18  20
ENDBRANCH  10  16
BRANCH   1  28
ATOM     28  O   UNL     1       4.015   4.068  18.153  0.00  0.00    +0.000 OA
BRANCH  28  30
ATOM     29  C   UNL     1       2.592   2.209  17.655  0.00  0.00    +0.000 C 
ATOM     30  C   UNL     1       3.761   2.704  18.485  0.00  0.00    +0.000 C 
ENDBRANCH  28  30
ENDBRANCH   1  28
TORSDOF 4
ENDMDL
MODEL 9
REMARK VINA RESULT:      -6.4      1.552      1.674
REMARK  Name = 
REMARK  5 active torsions:
REMARK  status: ('A' for Active; 'I' for Inactive)
REMARK    1  A    between atoms: C_1  and  C_2
REMARK    2  A    between atoms: C_2  and  O_3
REMARK    3  A    between atoms: O_3  and  C_4
REMARK    4  A    between atoms: C_13  and  C_14
REMARK    5  A    between atoms: N_16  and  C_17
REMARK                            x       y       z     vdW  Elec       q    Type
REMARK                         _______ _______ _______ _____ _____    ______ ____
ROOT
ATOM      1  C   UNL     1       4.112   5.068  18.198  0.00  0.00    +0.000 A 
ATOM      2  C   UNL     1       3.659   4.746  19.476  0.00  0.00    +0.000 A 
ATOM      3  C   UNL     1       2.818   5.618  20.177  0.00  0.00    +0.000 A 
ATOM      4  C   UNL     1       2.423   6.836  19.594  0.00  0.00    +0.000 A 
ATOM      5  N   UNL     1       1.597   7.781  20.173  0.00  0.00    +0.000 NA
ATOM      6  C   UNL     1       1.462   8.833  19.396  0.00  0.00    +0.000 A 
ATOM      7  N   UNL     1       0.735   9.931  19.752  0.00  0.00    +0.000 N 
ATOM      8  C   UNL     1       0.920  11.239  19.142  0.00  0.00    +0.000 C 
ATOM      9  C   UNL     1       1.229  12.259  20.244  0.00  0.00    +0.000 C 
ATOM     10  C   UNL     1       0.156  12.261  21.350  0.00  0.00    +0.000 C 
ATOM     11  C   UNL     1      -0.035  10.838  21.891  0.00  0.00    +0.000 C 
ATOM     12  C   UNL     1      -0.298   9.824  20.775  0.00  0.00    +0.000 C 
ATOM     13  S   UNL     1       2.277   8.682  17.873  0.00  0.00    +0.000 S 
ATOM     14  C   UNL     1       2.889   7.146  18.320  0.00  0.00    +0.000 A 
ATOM     15  C   UNL     1       3.726   6.275  17.602  0.00  0.00    +0.000 A 
ENDROOT
BRANCH  10  16
ATOM     16  C   UNL     1      -1.138  12.880  20.817  0.00  0.00    +0.000 C 
ATOM     17  O   UNL     1      -1.480  12.718  19.649  0.00  0.00    +0.000 OA
ATOM     18  N   UNL     1      -1.831  13.659  21.725  0.00  0.00    +0.000 N 
ATOM     19  H   UNL     1      -1.339  13.995  22.548  0.00  0.00    +0.000 HD
BRANCH  18  20
ATOM     20  C   UNL     1      -3.106  14.233  21.489  0.00  0.00    +0.000 A 
ATOM     21  C   UNL     1      -3.277  15.507  20.939  0.00  0.00    +0.000 A 
ATOM     22  C   UNL     1      -4.558  16.032  20.738  0.00  0.00    +0.000 A 
ATOM     23  C   UNL     1      -5.677  15.279  21.077  0.00  0.00    +0.000 A 
ATOM     24 BR   UNL     1      -7.402  16.006  20.810  0.00  0.00    +0.000 Br
ATOM     25  C   UNL     1      -5.532  14.000  21.606  0.00  0.00    +0.000 A 
ATOM     26  C   UNL     1      -4.250  13.486  21.799  0.00  0.00    +0.000 A 
ATOM     27  F   UNL     1      -4.116  12.254  22.316  0.00  0.00    +0.000 F 
ENDBRANCH  18  20
ENDBRANCH  10  16
BRANCH   1  28
ATOM     28  O   UNL     1       4.936   4.290  17.426  0.00  0.00    +0.000 OA
BRANCH  28  30
ATOM     29  C   UNL     1       6.880   4.780  16.118  0.00  0.00    +0.000 C 
ATOM     30  C   UNL     1       6.335   4.559  17.516  0.00  0.00    +0.000 C 
ENDBRANCH  28  30
ENDBRANCH   1  28
TORSDOF 4
ENDMDL
