MODEL 1
REMARK VINA RESULT:      -8.2      0.000      0.000
REMARK  Name = 
REMARK  5 active torsions:
REMARK  status: ('A' for Active; 'I' for Inactive)
REMARK    1  A    between atoms: C_2  and  C_27
REMARK    2  A    between atoms: N_3  and  C_4
REMARK    3  A    between atoms: N_10  and  C_11
REMARK    4  A    between atoms: N_14  and  C_15
REMARK    5  A    between atoms: C_15  and  C_16
REMARK                            x       y       z     vdW  Elec       q    Type
REMARK                         _______ _______ _______ _____ _____    ______ ____
ROOT
ATOM      1  C   UNL     1       1.909   7.953  19.438  0.00  0.00    +0.000 A 
ATOM      2  C   UNL     1       1.711   7.654  20.791  0.00  0.00    +0.000 A 
ATOM      3  C   UNL     1       1.140   8.579  21.680  0.00  0.00    +0.000 A 
ATOM      4  C   UNL     1       0.733   9.846  21.215  0.00  0.00    +0.000 A 
ATOM      5  N   UNL     1       0.078  10.832  21.952  0.00  0.00    +0.000 NA
ATOM      6  C   UNL     1      -0.185  11.873  21.195  0.00  0.00    +0.000 A 
ATOM      7  N   UNL     1      -0.876  12.984  21.539  0.00  0.00    +0.000 N 
ATOM      8  S   UNL     1       0.426  11.757  19.581  0.00  0.00    +0.000 S 
ATOM      9  C   UNL     1       0.979  10.157  19.880  0.00  0.00    +0.000 A 
ATOM     10  C   UNL     1       1.568   9.237  18.980  0.00  0.00    +0.000 A 
ATOM     11  H   UNL     1      -0.882  13.752  20.879  0.00  0.00    +0.000 HD
ENDROOT
BRANCH   7  12
ATOM     12  C   UNL     1      -1.435  13.242  22.864  0.00  0.00    +0.000 C 
ATOM     13  C   UNL     1      -2.598  12.321  23.225  0.00  0.00    +0.000 C 
ATOM     14  C   UNL     1      -3.800  12.536  22.311  0.00  0.00    +0.000 C 
ATOM     15  N   UNL     1      -4.265  13.922  22.220  0.00  0.00    +0.000 NA
ATOM     16  C   UNL     1      -3.216  14.934  22.113  0.00  0.00    +0.000 C 
ATOM     17  C   UNL     1      -1.956  14.685  22.952  0.00  0.00    +0.000 C 
BRANCH  15  18
ATOM     18  C   UNL     1      -5.325  14.095  21.195  0.00  0.00    +0.000 C 
BRANCH  18  19
ATOM     19  C   UNL     1      -5.825  12.834  20.500  0.00  0.00    +0.000 A 
ATOM     20  C   UNL     1      -5.229  12.396  19.306  0.00  0.00    +0.000 A 
ATOM     21  C   UNL     1      -5.706  11.268  18.635  0.00  0.00    +0.000 A 
ATOM     22  C   UNL     1      -6.773  10.544  19.160  0.00  0.00    +0.000 A 
ATOM     23  C   UNL     1      -7.364  10.951  20.355  0.00  0.00    +0.000 A 
ATOM     24  C   UNL     1      -6.893  12.088  21.021  0.00  0.00    +0.000 A 
ENDBRANCH  18  19
ENDBRANCH  15  18
ENDBRANCH   7  12
BRANCH   1  27
ATOM     25  N   UNL     1       3.857   5.709  19.744  0.00  0.00    +0.000 NA
ATOM     26  C   UNL     1       3.436   6.159  18.597  0.00  0.00    +0.000 C 
ATOM     27  N   UNL     1       2.331   6.976  18.507  0.00  0.00    +0.000 N 
ATOM     28  H   UNL     1       3.220   6.047  20.469  0.00  0.00    +0.000 HD
ATOM     29  H   UNL     1       1.876   7.020  17.603  0.00  0.00    +0.000 HD
BRANCH  26  30
ATOM     30  C   UNL     1       4.205   5.683  17.443  0.00  0.00    +0.000 A 
ATOM     31  C   UNL     1       4.893   6.448  16.507  0.00  0.00    +0.000 A 
ATOM     32  C   UNL     1       5.499   5.663  15.484  0.00  0.00    +0.000 A 
ATOM     33  C   UNL     1       5.264   4.320  15.668  0.00  0.00    +0.000 A 
ATOM     34  S   UNL     1       4.337   4.016  17.079  0.00  0.00    +0.000 S 
ENDBRANCH  26  30
ENDBRANCH   1  27
TORSDOF 5
ENDMDL
MODEL 2
REMARK VINA RESULT:      -8.0      1.910      2.554
REMARK  Name = 
REMARK  5 active torsions:
REMARK  status: ('A' for Active; 'I' for Inactive)
REMARK    1  A    between atoms: C_2  and  C_27
REMARK    2  A    between atoms: N_3  and  C_4
REMARK    3  A    between atoms: N_10  and  C_11
REMARK    4  A    between atoms: N_14  and  C_15
REMARK    5  A    between atoms: C_15  and  C_16
REMARK                            x       y       z     vdW  Elec       q    Type
REMARK                         _______ _______ _______ _____ _____    ______ ____
ROOT
ATOM      1  C   UNL     1       1.140   8.470  20.930  0.00  0.00    +0.000 A 
ATOM      2  C   UNL     1       1.210   9.059  22.199  0.00  0.00    +0.000 A 
ATOM      3  C   UNL     1       0.480  10.213  22.522  0.00  0.00    +0.000 A 
ATOM      4  C   UNL     1      -0.366  10.806  21.564  0.00  0.00    +0.000 A 
ATOM      5  N   UNL     1      -1.213  11.897  21.762  0.00  0.00    +0.000 NA
ATOM      6  C   UNL     1      -1.885  12.160  20.663  0.00  0.00    +0.000 A 
ATOM      7  N   UNL     1      -2.852  13.092  20.498  0.00  0.00    +0.000 N 
ATOM      8  S   UNL     1      -1.465  11.169  19.311  0.00  0.00    +0.000 S 
ATOM      9  C   UNL     1      -0.393  10.247  20.288  0.00  0.00    +0.000 A 
ATOM     10  C   UNL     1       0.350   9.092  19.947  0.00  0.00    +0.000 A 
ATOM     11  H   UNL     1      -3.184  13.258  19.556  0.00  0.00    +0.000 HD
ENDROOT
BRANCH   7  12
ATOM     12  C   UNL     1      -3.304  14.018  21.534  0.00  0.00    +0.000 C 
ATOM     13  C   UNL     1      -4.173  13.361  22.603  0.00  0.00    +0.000 C 
ATOM     14  C   UNL     1      -5.487  12.841  22.029  0.00  0.00    +0.000 C 
ATOM     15  N   UNL     1      -6.269  13.830  21.283  0.00  0.00    +0.000 NA
ATOM     16  C   UNL     1      -5.502  14.697  20.390  0.00  0.00    +0.000 C 
ATOM     17  C   UNL     1      -4.133  15.153  20.911  0.00  0.00    +0.000 C 
BRANCH  15  18
ATOM     18  C   UNL     1      -7.447  13.227  20.612  0.00  0.00    +0.000 C 
BRANCH  18  19
ATOM     19  C   UNL     1      -7.356  11.747  20.256  0.00  0.00    +0.000 A 
ATOM     20  C   UNL     1      -7.916  10.777  21.104  0.00  0.00    +0.000 A 
ATOM     21  C   UNL     1      -7.802   9.415  20.814  0.00  0.00    +0.000 A 
ATOM     22  C   UNL     1      -7.146   9.002  19.658  0.00  0.00    +0.000 A 
ATOM     23  C   UNL     1      -6.602   9.951  18.794  0.00  0.00    +0.000 A 
ATOM     24  C   UNL     1      -6.707  11.314  19.090  0.00  0.00    +0.000 A 
ENDBRANCH  18  19
ENDBRANCH  15  18
ENDBRANCH   7  12
BRANCH   1  27
ATOM     25  N   UNL     1       2.752   7.598  18.572  0.00  0.00    +0.000 NA
ATOM     26  C   UNL     1       2.211   6.781  19.429  0.00  0.00    +0.000 C 
ATOM     27  N   UNL     1       1.740   7.223  20.646  0.00  0.00    +0.000 N 
ATOM     28  H   UNL     1       2.767   8.531  18.991  0.00  0.00    +0.000 HD
ATOM     29  H   UNL     1       1.640   6.523  21.371  0.00  0.00    +0.000 HD
BRANCH  26  30
ATOM     30  C   UNL     1       2.199   5.379  19.001  0.00  0.00    +0.000 A 
ATOM     31  C   UNL     1       2.635   4.857  17.788  0.00  0.00    +0.000 A 
ATOM     32  C   UNL     1       2.437   3.450  17.683  0.00  0.00    +0.000 A 
ATOM     33  C   UNL     1       1.861   2.933  18.820  0.00  0.00    +0.000 A 
ATOM     34  S   UNL     1       1.585   4.138  20.008  0.00  0.00    +0.000 S 
ENDBRANCH  26  30
ENDBRANCH   1  27
TORSDOF 5
ENDMDL
MODEL 3
REMARK VINA RESULT:      -7.9      3.582     11.553
REMARK  Name = 
REMARK  5 active torsions:
REMARK  status: ('A' for Active; 'I' for Inactive)
REMARK    1  A    between atoms: C_2  and  C_27
REMARK    2  A    between atoms: N_3  and  C_4
REMARK    3  A    between atoms: N_10  and  C_11
REMARK    4  A    between atoms: N_14  and  C_15
REMARK    5  A    between atoms: C_15  and  C_16
REMARK                            x       y       z     vdW  Elec       q    Type
REMARK                         _______ _______ _______ _____ _____    ______ ____
ROOT
ATOM      1  C   UNL     1       0.208  11.018  20.781  0.00  0.00    +0.000 A 
ATOM      2  C   UNL     1       0.380  10.084  21.810  0.00  0.00    +0.000 A 
ATOM      3  C   UNL     1       0.962   8.827  21.581  0.00  0.00    +0.000 A 
ATOM      4  C   UNL     1       1.407   8.479  20.290  0.00  0.00    +0.000 A 
ATOM      5  N   UNL     1       2.076   7.311  19.927  0.00  0.00    +0.000 NA
ATOM      6  C   UNL     1       2.375   7.332  18.647  0.00  0.00    +0.000 A 
ATOM      7  N   UNL     1       3.089   6.412  17.957  0.00  0.00    +0.000 N 
ATOM      8  S   UNL     1       1.783   8.715  17.796  0.00  0.00    +0.000 S 
ATOM      9  C   UNL     1       1.186   9.391  19.260  0.00  0.00    +0.000 A 
ATOM     10  C   UNL     1       0.587  10.654  19.477  0.00  0.00    +0.000 A 
ATOM     11  H   UNL     1       3.123   6.509  16.949  0.00  0.00    +0.000 HD
ENDROOT
BRANCH   7  12
ATOM     12  C   UNL     1       3.636   5.183  18.525  0.00  0.00    +0.000 C 
ATOM     13  C   UNL     1       5.008   5.366  19.169  0.00  0.00    +0.000 C 
ATOM     14  C   UNL     1       6.070   5.759  18.145  0.00  0.00    +0.000 C 
ATOM     15  N   UNL     1       6.171   4.865  16.988  0.00  0.00    +0.000 NA
ATOM     16  C   UNL     1       4.900   4.418  16.423  0.00  0.00    +0.000 C 
ATOM     17  C   UNL     1       3.787   4.111  17.434  0.00  0.00    +0.000 C 
BRANCH  15  18
ATOM     18  C   UNL     1       7.099   5.387  15.953  0.00  0.00    +0.000 C 
BRANCH  18  19
ATOM     19  C   UNL     1       6.951   4.820  14.546  0.00  0.00    +0.000 A 
ATOM     20  C   UNL     1       7.768   5.287  13.503  0.00  0.00    +0.000 A 
ATOM     21  C   UNL     1       7.615   4.809  12.199  0.00  0.00    +0.000 A 
ATOM     22  C   UNL     1       6.657   3.838  11.922  0.00  0.00    +0.000 A 
ATOM     23  C   UNL     1       5.851   3.347  12.948  0.00  0.00    +0.000 A 
ATOM     24  C   UNL     1       5.998   3.834  14.251  0.00  0.00    +0.000 A 
ENDBRANCH  18  19
ENDBRANCH  15  18
ENDBRANCH   7  12
BRANCH   1  27
ATOM     25  N   UNL     1       1.787  13.494  21.325  0.00  0.00    +0.000 NA
ATOM     26  C   UNL     1       0.514  13.373  21.566  0.00  0.00    +0.000 C 
ATOM     27  N   UNL     1      -0.225  12.340  21.031  0.00  0.00    +0.000 N 
ATOM     28  H   UNL     1       2.062  12.740  20.691  0.00  0.00    +0.000 HD
ATOM     29  H   UNL     1      -1.226  12.481  20.983  0.00  0.00    +0.000 HD
BRANCH  26  30
ATOM     30  C   UNL     1      -0.047  14.441  22.399  0.00  0.00    +0.000 A 
ATOM     31  C   UNL     1      -1.076  14.341  23.328  0.00  0.00    +0.000 A 
ATOM     32  C   UNL     1      -1.404  15.590  23.934  0.00  0.00    +0.000 A 
ATOM     33  C   UNL     1      -0.612  16.607  23.455  0.00  0.00    +0.000 A 
ATOM     34  S   UNL     1       0.529  16.050  22.303  0.00  0.00    +0.000 S 
ENDBRANCH  26  30
ENDBRANCH   1  27
TORSDOF 5
ENDMDL
MODEL 4
REMARK VINA RESULT:      -7.9      3.537     11.583
REMARK  Name = 
REMARK  5 active torsions:
REMARK  status: ('A' for Active; 'I' for Inactive)
REMARK    1  A    between atoms: C_2  and  C_27
REMARK    2  A    between atoms: N_3  and  C_4
REMARK    3  A    between atoms: N_10  and  C_11
REMARK    4  A    between atoms: N_14  and  C_15
REMARK    5  A    between atoms: C_15  and  C_16
REMARK                            x       y       z     vdW  Elec       q    Type
REMARK                         _______ _______ _______ _____ _____    ______ ____
ROOT
ATOM      1  C   UNL     1      -0.022  10.762  20.819  0.00  0.00    +0.000 A 
ATOM      2  C   UNL     1       0.071   9.760  21.794  0.00  0.00    +0.000 A 
ATOM      3  C   UNL     1       0.729   8.545  21.548  0.00  0.00    +0.000 A 
ATOM      4  C   UNL     1       1.334   8.309  20.297  0.00  0.00    +0.000 A 
ATOM      5  N   UNL     1       2.090   7.194  19.936  0.00  0.00    +0.000 NA
ATOM      6  C   UNL     1       2.533   7.321  18.705  0.00  0.00    +0.000 A 
ATOM      7  N   UNL     1       3.360   6.480  18.041  0.00  0.00    +0.000 N 
ATOM      8  S   UNL     1       1.985   8.743  17.888  0.00  0.00    +0.000 S 
ATOM      9  C   UNL     1       1.194   9.286  19.315  0.00  0.00    +0.000 A 
ATOM     10  C   UNL     1       0.521  10.509  19.547  0.00  0.00    +0.000 A 
ATOM     11  H   UNL     1       3.506   6.653  17.054  0.00  0.00    +0.000 HD
ENDROOT
BRANCH   7  12
ATOM     12  C   UNL     1       3.891   5.232  18.582  0.00  0.00    +0.000 C 
ATOM     13  C   UNL     1       5.302   5.363  19.150  0.00  0.00    +0.000 C 
ATOM     14  C   UNL     1       6.320   5.714  18.069  0.00  0.00    +0.000 C 
ATOM     15  N   UNL     1       6.324   4.816  16.911  0.00  0.00    +0.000 NA
ATOM     16  C   UNL     1       5.008   4.417  16.417  0.00  0.00    +0.000 C 
ATOM     17  C   UNL     1       3.941   4.154  17.488  0.00  0.00    +0.000 C 
BRANCH  15  18
ATOM     18  C   UNL     1       7.213   5.301  15.826  0.00  0.00    +0.000 C 
BRANCH  18  19
ATOM     19  C   UNL     1       6.929   4.785  14.419  0.00  0.00    +0.000 A 
ATOM     20  C   UNL     1       5.919   3.832  14.203  0.00  0.00    +0.000 A 
ATOM     21  C   UNL     1       5.678   3.317  12.927  0.00  0.00    +0.000 A 
ATOM     22  C   UNL     1       6.425   3.765  11.842  0.00  0.00    +0.000 A 
ATOM     23  C   UNL     1       7.416   4.726  12.034  0.00  0.00    +0.000 A 
ATOM     24  C   UNL     1       7.666   5.234  13.314  0.00  0.00    +0.000 A 
ENDBRANCH  18  19
ENDBRANCH  15  18
ENDBRANCH   7  12
BRANCH   1  27
ATOM     25  N   UNL     1       1.399  13.310  21.458  0.00  0.00    +0.000 NA
ATOM     26  C   UNL     1       0.133  13.103  21.683  0.00  0.00    +0.000 C 
ATOM     27  N   UNL     1      -0.536  12.046  21.108  0.00  0.00    +0.000 N 
ATOM     28  H   UNL     1       1.723  12.596  20.802  0.00  0.00    +0.000 HD
ATOM     29  H   UNL     1      -1.544  12.126  21.056  0.00  0.00    +0.000 HD
BRANCH  26  30
ATOM     30  C   UNL     1      -0.498  14.107  22.546  0.00  0.00    +0.000 A 
ATOM     31  C   UNL     1      -0.009  15.364  22.884  0.00  0.00    +0.000 A 
ATOM     32  C   UNL     1      -0.861  16.070  23.783  0.00  0.00    +0.000 A 
ATOM     33  C   UNL     1      -1.979  15.336  24.103  0.00  0.00    +0.000 A 
ATOM     34  S   UNL     1      -2.005  13.819  23.303  0.00  0.00    +0.000 S 
ENDBRANCH  26  30
ENDBRANCH   1  27
TORSDOF 5
ENDMDL
MODEL 5
REMARK VINA RESULT:      -7.9      3.136     11.512
REMARK  Name = 
REMARK  5 active torsions:
REMARK  status: ('A' for Active; 'I' for Inactive)
REMARK    1  A    between atoms: C_2  and  C_27
REMARK    2  A    between atoms: N_3  and  C_4
REMARK    3  A    between atoms: N_10  and  C_11
REMARK    4  A    between atoms: N_14  and  C_15
REMARK    5  A    between atoms: C_15  and  C_16
REMARK                            x       y       z     vdW  Elec       q    Type
REMARK                         _______ _______ _______ _____ _____    ______ ____
ROOT
ATOM      1  C   UNL     1       0.245  10.924  20.818  0.00  0.00    +0.000 A 
ATOM      2  C   UNL     1       0.307   9.928  21.800  0.00  0.00    +0.000 A 
ATOM      3  C   UNL     1       0.870   8.668  21.543  0.00  0.00    +0.000 A 
ATOM      4  C   UNL     1       1.408   8.380  20.273  0.00  0.00    +0.000 A 
ATOM      5  N   UNL     1       2.072   7.212  19.895  0.00  0.00    +0.000 NA
ATOM      6  C   UNL     1       2.474   7.297  18.647  0.00  0.00    +0.000 A 
ATOM      7  N   UNL     1       3.215   6.396  17.961  0.00  0.00    +0.000 N 
ATOM      8  S   UNL     1       1.992   8.746  17.836  0.00  0.00    +0.000 S 
ATOM      9  C   UNL     1       1.298   9.355  19.285  0.00  0.00    +0.000 A 
ATOM     10  C   UNL     1       0.719  10.623  19.529  0.00  0.00    +0.000 A 
ATOM     11  H   UNL     1       3.334   6.549  16.967  0.00  0.00    +0.000 HD
ENDROOT
BRANCH   7  12
ATOM     12  C   UNL     1       3.680   5.119  18.496  0.00  0.00    +0.000 C 
ATOM     13  C   UNL     1       5.044   5.202  19.177  0.00  0.00    +0.000 C 
ATOM     14  C   UNL     1       6.150   5.571  18.194  0.00  0.00    +0.000 C 
ATOM     15  N   UNL     1       6.231   4.714  17.008  0.00  0.00    +0.000 NA
ATOM     16  C   UNL     1       4.951   4.359  16.397  0.00  0.00    +0.000 C 
ATOM     17  C   UNL     1       3.799   4.079  17.371  0.00  0.00    +0.000 C 
BRANCH  15  18
ATOM     18  C   UNL     1       7.211   5.219  16.014  0.00  0.00    +0.000 C 
BRANCH  18  19
ATOM     19  C   UNL     1       7.013   4.783  14.566  0.00  0.00    +0.000 A 
ATOM     20  C   UNL     1       6.082   3.780  14.248  0.00  0.00    +0.000 A 
ATOM     21  C   UNL     1       5.922   3.338  12.933  0.00  0.00    +0.000 A 
ATOM     22  C   UNL     1       6.674   3.908  11.910  0.00  0.00    +0.000 A 
ATOM     23  C   UNL     1       7.588   4.918  12.204  0.00  0.00    +0.000 A 
ATOM     24  C   UNL     1       7.756   5.354  13.522  0.00  0.00    +0.000 A 
ENDBRANCH  18  19
ENDBRANCH  15  18
ENDBRANCH   7  12
BRANCH   1  27
ATOM     25  N   UNL     1      -2.404  12.247  20.425  0.00  0.00    +0.000 NA
ATOM     26  C   UNL     1      -1.293  12.888  20.644  0.00  0.00    +0.000 C 
ATOM     27  N   UNL     1      -0.169  12.243  21.111  0.00  0.00    +0.000 N 
ATOM     28  H   UNL     1      -2.260  11.268  20.685  0.00  0.00    +0.000 HD
ATOM     29  H   UNL     1       0.530  12.824  21.558  0.00  0.00    +0.000 HD
BRANCH  26  30
ATOM     30  C   UNL     1      -1.371  14.332  20.396  0.00  0.00    +0.000 A 
ATOM     31  C   UNL     1      -0.595  15.087  19.524  0.00  0.00    +0.000 A 
ATOM     32  C   UNL     1      -0.906  16.477  19.562  0.00  0.00    +0.000 A 
ATOM     33  C   UNL     1      -1.916  16.746  20.456  0.00  0.00    +0.000 A 
ATOM     34  S   UNL     1      -2.493  15.324  21.223  0.00  0.00    +0.000 S 
ENDBRANCH  26  30
ENDBRANCH   1  27
TORSDOF 5
ENDMDL
MODEL 6
REMARK VINA RESULT:      -7.8      2.332      3.378
REMARK  Name = 
REMARK  5 active torsions:
REMARK  status: ('A' for Active; 'I' for Inactive)
REMARK    1  A    between atoms: C_2  and  C_27
REMARK    2  A    between atoms: N_3  and  C_4
REMARK    3  A    between atoms: N_10  and  C_11
REMARK    4  A    between atoms: N_14  and  C_15
REMARK    5  A    between atoms: C_15  and  C_16
REMARK                            x       y       z     vdW  Elec       q    Type
REMARK                         _______ _______ _______ _____ _____    ______ ____
ROOT
ATOM      1  C   UNL     1       2.352   7.126  18.667  0.00  0.00    +0.000 A 
ATOM      2  C   UNL     1       2.258   8.183  17.754  0.00  0.00    +0.000 A 
ATOM      3  C   UNL     1       1.695   9.420  18.106  0.00  0.00    +0.000 A 
ATOM      4  C   UNL     1       1.217   9.632  19.415  0.00  0.00    +0.000 A 
ATOM      5  N   UNL     1       0.713  10.824  19.934  0.00  0.00    +0.000 NA
ATOM      6  C   UNL     1       0.394  10.674  21.200  0.00  0.00    +0.000 A 
ATOM      7  N   UNL     1      -0.050  11.627  22.053  0.00  0.00    +0.000 N 
ATOM      8  S   UNL     1       0.596   9.067  21.805  0.00  0.00    +0.000 S 
ATOM      9  C   UNL     1       1.266   8.561  20.304  0.00  0.00    +0.000 A 
ATOM     10  C   UNL     1       1.817   7.306  19.955  0.00  0.00    +0.000 A 
ATOM     11  H   UNL     1      -0.374  11.323  22.963  0.00  0.00    +0.000 HD
ENDROOT
BRANCH   7  12
ATOM     12  C   UNL     1      -0.293  13.021  21.692  0.00  0.00    +0.000 C 
ATOM     13  C   UNL     1      -0.909  13.845  22.819  0.00  0.00    +0.000 C 
ATOM     14  C   UNL     1      -2.305  13.352  23.188  0.00  0.00    +0.000 C 
ATOM     15  N   UNL     1      -3.241  13.255  22.066  0.00  0.00    +0.000 NA
ATOM     16  C   UNL     1      -2.692  12.695  20.832  0.00  0.00    +0.000 C 
ATOM     17  C   UNL     1      -1.252  13.104  20.494  0.00  0.00    +0.000 C 
BRANCH  15  18
ATOM     18  C   UNL     1      -4.523  12.615  22.455  0.00  0.00    +0.000 C 
BRANCH  18  19
ATOM     19  C   UNL     1      -5.656  13.544  22.877  0.00  0.00    +0.000 A 
ATOM     20  C   UNL     1      -6.598  13.126  23.834  0.00  0.00    +0.000 A 
ATOM     21  C   UNL     1      -7.667  13.948  24.197  0.00  0.00    +0.000 A 
ATOM     22  C   UNL     1      -7.800  15.211  23.628  0.00  0.00    +0.000 A 
ATOM     23  C   UNL     1      -6.864  15.651  22.693  0.00  0.00    +0.000 A 
ATOM     24  C   UNL     1      -5.799  14.823  22.321  0.00  0.00    +0.000 A 
ENDBRANCH  18  19
ENDBRANCH  15  18
ENDBRANCH   7  12
BRANCH   1  27
ATOM     25  N   UNL     1       1.404   4.560  17.468  0.00  0.00    +0.000 NA
ATOM     26  C   UNL     1       2.531   4.696  18.104  0.00  0.00    +0.000 C 
ATOM     27  N   UNL     1       3.061   5.939  18.372  0.00  0.00    +0.000 N 
ATOM     28  H   UNL     1       1.066   5.494  17.221  0.00  0.00    +0.000 HD
ATOM     29  H   UNL     1       4.054   5.974  18.564  0.00  0.00    +0.000 HD
BRANCH  26  30
ATOM     30  C   UNL     1       3.185   3.430  18.450  0.00  0.00    +0.000 A 
ATOM     31  C   UNL     1       2.922   2.168  17.929  0.00  0.00    +0.000 A 
ATOM     32  C   UNL     1       3.714   1.144  18.523  0.00  0.00    +0.000 A 
ATOM     33  C   UNL     1       4.565   1.651  19.477  0.00  0.00    +0.000 A 
ATOM     34  S   UNL     1       4.419   3.352  19.633  0.00  0.00    +0.000 S 
ENDBRANCH  26  30
ENDBRANCH   1  27
TORSDOF 5
ENDMDL
MODEL 7
REMARK VINA RESULT:      -7.8      3.979     10.870
REMARK  Name = 
REMARK  5 active torsions:
REMARK  status: ('A' for Active; 'I' for Inactive)
REMARK    1  A    between atoms: C_2  and  C_27
REMARK    2  A    between atoms: N_3  and  C_4
REMARK    3  A    between atoms: N_10  and  C_11
REMARK    4  A    between atoms: N_14  and  C_15
REMARK    5  A    between atoms: C_15  and  C_16
REMARK                            x       y       z     vdW  Elec       q    Type
REMARK                         _______ _______ _______ _____ _____    ______ ____
ROOT
ATOM      1  C   UNL     1       0.735  12.062  20.348  0.00  0.00    +0.000 A 
ATOM      2  C   UNL     1       0.346  11.206  21.386  0.00  0.00    +0.000 A 
ATOM      3  C   UNL     1       0.489   9.813  21.292  0.00  0.00    +0.000 A 
ATOM      4  C   UNL     1       1.052   9.237  20.135  0.00  0.00    +0.000 A 
ATOM      5  N   UNL     1       1.335   7.887  19.931  0.00  0.00    +0.000 NA
ATOM      6  C   UNL     1       1.890   7.707  18.754  0.00  0.00    +0.000 A 
ATOM      7  N   UNL     1       2.371   6.551  18.241  0.00  0.00    +0.000 N 
ATOM      8  S   UNL     1       2.015   9.140  17.795  0.00  0.00    +0.000 S 
ATOM      9  C   UNL     1       1.390  10.088  19.085  0.00  0.00    +0.000 A 
ATOM     10  C   UNL     1       1.235  11.492  19.164  0.00  0.00    +0.000 A 
ATOM     11  H   UNL     1       2.652   6.553  17.269  0.00  0.00    +0.000 HD
ENDROOT
BRANCH   7  12
ATOM     12  C   UNL     1       2.320   5.256  18.915  0.00  0.00    +0.000 C 
ATOM     13  C   UNL     1       3.374   5.095  20.008  0.00  0.00    +0.000 C 
ATOM     14  C   UNL     1       4.790   5.118  19.441  0.00  0.00    +0.000 C 
ATOM     15  N   UNL     1       5.037   4.162  18.359  0.00  0.00    +0.000 NA
ATOM     16  C   UNL     1       3.973   4.046  17.363  0.00  0.00    +0.000 C 
ATOM     17  C   UNL     1       2.538   4.119  17.904  0.00  0.00    +0.000 C 
BRANCH  15  18
ATOM     18  C   UNL     1       6.374   4.344  17.739  0.00  0.00    +0.000 C 
BRANCH  18  19
ATOM     19  C   UNL     1       7.003   5.728  17.852  0.00  0.00    +0.000 A 
ATOM     20  C   UNL     1       7.943   6.002  18.860  0.00  0.00    +0.000 A 
ATOM     21  C   UNL     1       8.494   7.277  19.003  0.00  0.00    +0.000 A 
ATOM     22  C   UNL     1       8.132   8.295  18.125  0.00  0.00    +0.000 A 
ATOM     23  C   UNL     1       7.216   8.037  17.107  0.00  0.00    +0.000 A 
ATOM     24  C   UNL     1       6.656   6.763  16.970  0.00  0.00    +0.000 A 
ENDBRANCH  18  19
ENDBRANCH  15  18
ENDBRANCH   7  12
BRANCH   1  27
ATOM     25  N   UNL     1      -1.227  14.115  19.424  0.00  0.00    +0.000 NA
ATOM     26  C   UNL     1      -0.012  14.386  19.805  0.00  0.00    +0.000 C 
ATOM     27  N   UNL     1       0.746  13.468  20.497  0.00  0.00    +0.000 N 
ATOM     28  H   UNL     1      -1.459  13.176  19.754  0.00  0.00    +0.000 HD
ATOM     29  H   UNL     1       1.523  13.836  21.032  0.00  0.00    +0.000 HD
BRANCH  26  30
ATOM     30  C   UNL     1       0.435  15.743  19.476  0.00  0.00    +0.000 A 
ATOM     31  C   UNL     1      -0.272  16.729  18.798  0.00  0.00    +0.000 A 
ATOM     32  C   UNL     1       0.480  17.925  18.609  0.00  0.00    +0.000 A 
ATOM     33  C   UNL     1       1.739  17.822  19.153  0.00  0.00    +0.000 A 
ATOM     34  S   UNL     1       1.996  16.301  19.903  0.00  0.00    +0.000 S 
ENDBRANCH  26  30
ENDBRANCH   1  27
TORSDOF 5
ENDMDL
MODEL 8
REMARK VINA RESULT:      -7.7      1.176      1.289
REMARK  Name = 
REMARK  5 active torsions:
REMARK  status: ('A' for Active; 'I' for Inactive)
REMARK    1  A    between atoms: C_2  and  C_27
REMARK    2  A    between atoms: N_3  and  C_4
REMARK    3  A    between atoms: N_10  and  C_11
REMARK    4  A    between atoms: N_14  and  C_15
REMARK    5  A    between atoms: C_15  and  C_16
REMARK                            x       y       z     vdW  Elec       q    Type
REMARK                         _______ _______ _______ _____ _____    ______ ____
ROOT
ATOM      1  C   UNL     1       1.468   8.650  20.191  0.00  0.00    +0.000 A 
ATOM      2  C   UNL     1       1.414   8.403  21.569  0.00  0.00    +0.000 A 
ATOM      3  C   UNL     1       0.773   9.282  22.455  0.00  0.00    +0.000 A 
ATOM      4  C   UNL     1       0.147  10.446  21.966  0.00  0.00    +0.000 A 
ATOM      5  N   UNL     1      -0.597  11.365  22.707  0.00  0.00    +0.000 NA
ATOM      6  C   UNL     1      -1.067  12.311  21.925  0.00  0.00    +0.000 A 
ATOM      7  N   UNL     1      -1.893  13.326  22.271  0.00  0.00    +0.000 N 
ATOM      8  S   UNL     1      -0.561  12.194  20.276  0.00  0.00    +0.000 S 
ATOM      9  C   UNL     1       0.248  10.714  20.603  0.00  0.00    +0.000 A 
ATOM     10  C   UNL     1       0.904   9.841  19.703  0.00  0.00    +0.000 A 
ATOM     11  H   UNL     1      -2.062  14.046  21.579  0.00  0.00    +0.000 HD
ENDROOT
BRANCH   7  12
ATOM     12  C   UNL     1      -2.389  13.573  23.622  0.00  0.00    +0.000 C 
ATOM     13  C   UNL     1      -3.494  12.612  24.052  0.00  0.00    +0.000 C 
ATOM     14  C   UNL     1      -4.752  12.773  23.203  0.00  0.00    +0.000 C 
ATOM     15  N   UNL     1      -5.274  14.140  23.128  0.00  0.00    +0.000 NA
ATOM     16  C   UNL     1      -4.272  15.190  22.958  0.00  0.00    +0.000 C 
ATOM     17  C   UNL     1      -2.960  14.996  23.730  0.00  0.00    +0.000 C 
BRANCH  15  18
ATOM     18  C   UNL     1      -6.393  14.263  22.161  0.00  0.00    +0.000 C 
BRANCH  18  19
ATOM     19  C   UNL     1      -6.463  13.221  21.050  0.00  0.00    +0.000 A 
ATOM     20  C   UNL     1      -5.636  13.332  19.919  0.00  0.00    +0.000 A 
ATOM     21  C   UNL     1      -5.721  12.411  18.873  0.00  0.00    +0.000 A 
ATOM     22  C   UNL     1      -6.616  11.348  18.951  0.00  0.00    +0.000 A 
ATOM     23  C   UNL     1      -7.430  11.210  20.075  0.00  0.00    +0.000 A 
ATOM     24  C   UNL     1      -7.353  12.139  21.118  0.00  0.00    +0.000 A 
ENDBRANCH  18  19
ENDBRANCH  15  18
ENDBRANCH   7  12
BRANCH   1  27
ATOM     25  N   UNL     1       2.344   5.829  20.632  0.00  0.00    +0.000 NA
ATOM     26  C   UNL     1       2.629   6.524  19.570  0.00  0.00    +0.000 C 
ATOM     27  N   UNL     1       1.965   7.694  19.276  0.00  0.00    +0.000 N 
ATOM     28  H   UNL     1       1.575   6.296  21.118  0.00  0.00    +0.000 HD
ATOM     29  H   UNL     1       1.998   8.000  18.311  0.00  0.00    +0.000 HD
BRANCH  26  30
ATOM     30  C   UNL     1       3.664   5.928  18.718  0.00  0.00    +0.000 A 
ATOM     31  C   UNL     1       4.141   6.404  17.503  0.00  0.00    +0.000 A 
ATOM     32  C   UNL     1       5.122   5.551  16.916  0.00  0.00    +0.000 A 
ATOM     33  C   UNL     1       5.371   4.451  17.702  0.00  0.00    +0.000 A 
ATOM     34  S   UNL     1       4.443   4.464  19.144  0.00  0.00    +0.000 S 
ENDBRANCH  26  30
ENDBRANCH   1  27
TORSDOF 5
ENDMDL
MODEL 9
REMARK VINA RESULT:      -7.7      3.030     11.591
REMARK  Name = 
REMARK  5 active torsions:
REMARK  status: ('A' for Active; 'I' for Inactive)
REMARK    1  A    between atoms: C_2  and  C_27
REMARK    2  A    between atoms: N_3  and  C_4
REMARK    3  A    between atoms: N_10  and  C_11
REMARK    4  A    between atoms: N_14  and  C_15
REMARK    5  A    between atoms: C_15  and  C_16
REMARK                            x       y       z     vdW  Elec       q    Type
REMARK                         _______ _______ _______ _____ _____    ______ ____
ROOT
ATOM      1  C   UNL     1       0.412  10.732  21.108  0.00  0.00    +0.000 A 
ATOM      2  C   UNL     1       0.512   9.708  22.058  0.00  0.00    +0.000 A 
ATOM      3  C   UNL     1       1.036   8.446  21.735  0.00  0.00    +0.000 A 
ATOM      4  C   UNL     1       1.494   8.185  20.428  0.00  0.00    +0.000 A 
ATOM      5  N   UNL     1       2.113   7.018  19.981  0.00  0.00    +0.000 NA
ATOM      6  C   UNL     1       2.443   7.130  18.714  0.00  0.00    +0.000 A 
ATOM      7  N   UNL     1       3.126   6.236  17.962  0.00  0.00    +0.000 N 
ATOM      8  S   UNL     1       1.942   8.609  17.971  0.00  0.00    +0.000 S 
ATOM      9  C   UNL     1       1.344   9.190  19.475  0.00  0.00    +0.000 A 
ATOM     10  C   UNL     1       0.804  10.460  19.786  0.00  0.00    +0.000 A 
ATOM     11  H   UNL     1       3.189   6.415  16.967  0.00  0.00    +0.000 HD
ENDROOT
BRANCH   7  12
ATOM     12  C   UNL     1       3.598   4.937  18.435  0.00  0.00    +0.000 C 
ATOM     13  C   UNL     1       4.955   4.996  19.132  0.00  0.00    +0.000 C 
ATOM     14  C   UNL     1       6.066   5.424  18.179  0.00  0.00    +0.000 C 
ATOM     15  N   UNL     1       6.165   4.631  16.950  0.00  0.00    +0.000 NA
ATOM     16  C   UNL     1       4.894   4.297  16.311  0.00  0.00    +0.000 C 
ATOM     17  C   UNL     1       3.735   3.958  17.258  0.00  0.00    +0.000 C 
BRANCH  15  18
ATOM     18  C   UNL     1       7.149   5.195  15.993  0.00  0.00    +0.000 C 
BRANCH  18  19
ATOM     19  C   UNL     1       7.022   4.762  14.537  0.00  0.00    +0.000 A 
ATOM     20  C   UNL     1       7.850   5.327  13.552  0.00  0.00    +0.000 A 
ATOM     21  C   UNL     1       7.714   4.973  12.208  0.00  0.00    +0.000 A 
ATOM     22  C   UNL     1       6.764   4.029  11.829  0.00  0.00    +0.000 A 
ATOM     23  C   UNL     1       5.947   3.443  12.794  0.00  0.00    +0.000 A 
ATOM     24  C   UNL     1       6.076   3.805  14.139  0.00  0.00    +0.000 A 
ENDBRANCH  18  19
ENDBRANCH  15  18
ENDBRANCH   7  12
BRANCH   1  27
ATOM     25  N   UNL     1      -1.620  11.704  23.070  0.00  0.00    +0.000 NA
ATOM     26  C   UNL     1      -1.093  12.444  22.138  0.00  0.00    +0.000 C 
ATOM     27  N   UNL     1       0.040  12.050  21.461  0.00  0.00    +0.000 N 
ATOM     28  H   UNL     1      -1.035  10.872  23.181  0.00  0.00    +0.000 HD
ATOM     29  H   UNL     1       0.569  12.782  21.004  0.00  0.00    +0.000 HD
BRANCH  26  30
ATOM     30  C   UNL     1      -1.778  13.723  21.923  0.00  0.00    +0.000 A 
ATOM     31  C   UNL     1      -1.575  14.632  20.892  0.00  0.00    +0.000 A 
ATOM     32  C   UNL     1      -2.383  15.800  21.011  0.00  0.00    +0.000 A 
ATOM     33  C   UNL     1      -3.186  15.748  22.126  0.00  0.00    +0.000 A 
ATOM     34  S   UNL     1      -2.977  14.290  23.004  0.00  0.00    +0.000 S 
ENDBRANCH  26  30
ENDBRANCH   1  27
TORSDOF 5
ENDMDL
