MODEL 1
REMARK VINA RESULT:      -6.6      0.000      0.000
REMARK  Name = 
REMARK  4 active torsions:
REMARK  status: ('A' for Active; 'I' for Inactive)
REMARK    1  A    between atoms: C_7  and  C_8
REMARK    2  A    between atoms: N_21  and  C_22
REMARK    3  A    between atoms: C_22  and  C_23
REMARK    4  A    between atoms: C_23  and  O_24
REMARK                            x       y       z     vdW  Elec       q    Type
REMARK                         _______ _______ _______ _____ _____    ______ ____
ROOT
ATOM      1  O   UNL     1       1.535  13.940  21.385  0.00  0.00    +0.000 OA
ATOM      2  C   UNL     1       0.498  14.172  21.977  0.00  0.00    +0.000 C 
ATOM      3  O   UNL     1       0.405  14.881  23.141  0.00  0.00    +0.000 OA
ATOM      4  C   UNL     1      -0.969  14.984  23.517  0.00  0.00    +0.000 C 
ATOM      5  C   UNL     1      -1.694  14.267  22.444  0.00  0.00    +0.000 C 
ATOM      6  C   UNL     1      -0.834  13.765  21.561  0.00  0.00    +0.000 C 
ATOM      7  C   UNL     1      -1.209  12.904  20.403  0.00  0.00    +0.000 C 
ATOM      8  C   UNL     1      -2.749  12.758  20.309  0.00  0.00    +0.000 A 
ATOM      9  C   UNL     1      -3.349  12.109  19.192  0.00  0.00    +0.000 A 
ATOM     10  C   UNL     1      -4.720  11.848  19.179  0.00  0.00    +0.000 A 
ATOM     11  C   UNL     1      -5.469  12.140  20.304  0.00  0.00    +0.000 A 
ATOM     12  C   UNL     1      -4.928  12.863  21.346  0.00  0.00    +0.000 A 
ATOM     13  C   UNL     1      -3.583  13.238  21.362  0.00  0.00    +0.000 A 
ATOM     14  N   UNL     1      -3.063  14.070  22.391  0.00  0.00    +0.000 N 
ATOM     15  O   UNL     1      -6.780  11.784  20.455  0.00  0.00    +0.000 OA
ATOM     16  C   UNL     1      -7.424  12.032  19.218  0.00  0.00    +0.000 C 
ATOM     17  C   UNL     1      -6.737  11.275  18.081  0.00  0.00    +0.000 C 
ATOM     18  O   UNL     1      -5.296  11.345  18.045  0.00  0.00    +0.000 OA
ENDROOT
BRANCH   7  19
ATOM     19  C   UNL     1      -0.522  11.534  20.486  0.00  0.00    +0.000 A 
ATOM     20  C   UNL     1      -0.595  10.760  21.657  0.00  0.00    +0.000 A 
ATOM     21  C   UNL     1       0.031   9.510  21.730  0.00  0.00    +0.000 A 
ATOM     22  C   UNL     1       0.735   9.011  20.635  0.00  0.00    +0.000 A 
ATOM     23  C   UNL     1       0.796   9.760  19.463  0.00  0.00    +0.000 A 
ATOM     24 BR   UNL     1       1.731   9.082  17.965  0.00  0.00    +0.000 Br
ATOM     25  C   UNL     1       0.173  11.006  19.382  0.00  0.00    +0.000 A 
ENDBRANCH   7  19
BRANCH  14  26
ATOM     26  C   UNL     1      -3.996  14.556  23.442  0.00  0.00    +0.000 C 
BRANCH  26  27
ATOM     27  C   UNL     1      -3.844  13.827  24.795  0.00  0.00    +0.000 C 
BRANCH  27  28
ATOM     28  O   UNL     1      -4.719  12.723  24.988  0.00  0.00    +0.000 OA
ATOM     29  H   UNL     1      -4.265  11.935  24.633  0.00  0.00    +0.000 HD
ENDBRANCH  27  28
ENDBRANCH  26  27
ENDBRANCH  14  26
TORSDOF 4
ENDMDL
MODEL 2
REMARK VINA RESULT:      -6.5      0.954      1.023
REMARK  Name = 
REMARK  4 active torsions:
REMARK  status: ('A' for Active; 'I' for Inactive)
REMARK    1  A    between atoms: C_7  and  C_8
REMARK    2  A    between atoms: N_21  and  C_22
REMARK    3  A    between atoms: C_22  and  C_23
REMARK    4  A    between atoms: C_23  and  O_24
REMARK                            x       y       z     vdW  Elec       q    Type
REMARK                         _______ _______ _______ _____ _____    ______ ____
ROOT
ATOM      1  O   UNL     1       1.126  14.224  22.045  0.00  0.00    +0.000 OA
ATOM      2  C   UNL     1       0.051  14.363  22.595  0.00  0.00    +0.000 C 
ATOM      3  O   UNL     1      -0.136  14.982  23.799  0.00  0.00    +0.000 OA
ATOM      4  C   UNL     1      -1.530  14.992  24.108  0.00  0.00    +0.000 C 
ATOM      5  C   UNL     1      -2.164  14.319  22.952  0.00  0.00    +0.000 C 
ATOM      6  C   UNL     1      -1.237  13.923  22.084  0.00  0.00    +0.000 C 
ATOM      7  C   UNL     1      -1.509  13.130  20.851  0.00  0.00    +0.000 C 
ATOM      8  C   UNL     1      -3.033  12.917  20.666  0.00  0.00    +0.000 A 
ATOM      9  C   UNL     1      -3.543  12.321  19.476  0.00  0.00    +0.000 A 
ATOM     10  C   UNL     1      -4.896  11.995  19.373  0.00  0.00    +0.000 A 
ATOM     11  C   UNL     1      -5.714  12.170  20.475  0.00  0.00    +0.000 A 
ATOM     12  C   UNL     1      -5.263  12.842  21.591  0.00  0.00    +0.000 A 
ATOM     13  C   UNL     1      -3.941  13.279  21.703  0.00  0.00    +0.000 A 
ATOM     14  N   UNL     1      -3.517  14.061  22.813  0.00  0.00    +0.000 N 
ATOM     15  O   UNL     1      -7.010  11.741  20.531  0.00  0.00    +0.000 OA
ATOM     16  C   UNL     1      -7.605  12.046  19.282  0.00  0.00    +0.000 C 
ATOM     17  C   UNL     1      -6.824  11.406  18.134  0.00  0.00    +0.000 C 
ATOM     18  O   UNL     1      -5.389  11.548  18.179  0.00  0.00    +0.000 OA
ENDROOT
BRANCH   7  19
ATOM     19  C   UNL     1      -0.756  11.792  20.875  0.00  0.00    +0.000 A 
ATOM     20  C   UNL     1      -0.755  10.987  22.027  0.00  0.00    +0.000 A 
ATOM     21  C   UNL     1      -0.070   9.766  22.048  0.00  0.00    +0.000 A 
ATOM     22  C   UNL     1       0.620   9.329  20.917  0.00  0.00    +0.000 A 
ATOM     23  C   UNL     1       0.608  10.108  19.764  0.00  0.00    +0.000 A 
ATOM     24 BR   UNL     1       1.523   9.513  18.220  0.00  0.00    +0.000 Br
ATOM     25  C   UNL     1      -0.075  11.325  19.736  0.00  0.00    +0.000 A 
ENDBRANCH   7  19
BRANCH  14  26
ATOM     26  C   UNL     1      -4.524  14.424  23.845  0.00  0.00    +0.000 C 
BRANCH  26  27
ATOM     27  C   UNL     1      -5.028  15.880  23.738  0.00  0.00    +0.000 C 
BRANCH  27  28
ATOM     28  O   UNL     1      -5.211  16.549  24.979  0.00  0.00    +0.000 OA
ATOM     29  H   UNL     1      -6.150  16.813  25.024  0.00  0.00    +0.000 HD
ENDBRANCH  27  28
ENDBRANCH  26  27
ENDBRANCH  14  26
TORSDOF 4
ENDMDL
MODEL 3
REMARK VINA RESULT:      -6.3      3.173      6.916
REMARK  Name = 
REMARK  4 active torsions:
REMARK  status: ('A' for Active; 'I' for Inactive)
REMARK    1  A    between atoms: C_7  and  C_8
REMARK    2  A    between atoms: N_21  and  C_22
REMARK    3  A    between atoms: C_22  and  C_23
REMARK    4  A    between atoms: C_23  and  O_24
REMARK                            x       y       z     vdW  Elec       q    Type
REMARK                         _______ _______ _______ _____ _____    ______ ____
ROOT
ATOM      1  O   UNL     1      -6.630  13.659  20.447  0.00  0.00    +0.000 OA
ATOM      2  C   UNL     1      -6.085  12.779  19.810  0.00  0.00    +0.000 C 
ATOM      3  O   UNL     1      -6.733  11.758  19.174  0.00  0.00    +0.000 OA
ATOM      4  C   UNL     1      -5.774  10.943  18.500  0.00  0.00    +0.000 C 
ATOM      5  C   UNL     1      -4.476  11.592  18.791  0.00  0.00    +0.000 C 
ATOM      6  C   UNL     1      -4.655  12.646  19.584  0.00  0.00    +0.000 C 
ATOM      7  C   UNL     1      -3.556  13.477  20.154  0.00  0.00    +0.000 C 
ATOM      8  C   UNL     1      -2.182  13.008  19.615  0.00  0.00    +0.000 A 
ATOM      9  C   UNL     1      -0.999  13.751  19.898  0.00  0.00    +0.000 A 
ATOM     10  C   UNL     1       0.253  13.250  19.539  0.00  0.00    +0.000 A 
ATOM     11  C   UNL     1       0.337  11.983  18.992  0.00  0.00    +0.000 A 
ATOM     12  C   UNL     1      -0.799  11.299  18.614  0.00  0.00    +0.000 A 
ATOM     13  C   UNL     1      -2.078  11.803  18.860  0.00  0.00    +0.000 A 
ATOM     14  N   UNL     1      -3.237  11.138  18.373  0.00  0.00    +0.000 N 
ATOM     15  O   UNL     1       1.517  11.339  18.750  0.00  0.00    +0.000 OA
ATOM     16  C   UNL     1       2.408  12.294  18.202  0.00  0.00    +0.000 C 
ATOM     17  C   UNL     1       2.573  13.490  19.139  0.00  0.00    +0.000 C 
ATOM     18  O   UNL     1       1.360  14.035  19.700  0.00  0.00    +0.000 OA
ENDROOT
BRANCH   7  19
ATOM     19  C   UNL     1      -3.589  13.462  21.689  0.00  0.00    +0.000 A 
ATOM     20  C   UNL     1      -3.377  12.270  22.402  0.00  0.00    +0.000 A 
ATOM     21  C   UNL     1      -3.405  12.257  23.802  0.00  0.00    +0.000 A 
ATOM     22  C   UNL     1      -3.641  13.436  24.511  0.00  0.00    +0.000 A 
ATOM     23  C   UNL     1      -3.832  14.626  23.815  0.00  0.00    +0.000 A 
ATOM     24 BR   UNL     1      -4.132  16.231  24.767  0.00  0.00    +0.000 Br
ATOM     25  C   UNL     1      -3.803  14.646  22.419  0.00  0.00    +0.000 A 
ENDBRANCH   7  19
BRANCH  14  26
ATOM     26  C   UNL     1      -3.054   9.900  17.570  0.00  0.00    +0.000 C 
BRANCH  26  27
ATOM     27  C   UNL     1      -3.068  10.139  16.044  0.00  0.00    +0.000 C 
BRANCH  27  28
ATOM     28  O   UNL     1      -3.039  11.504  15.646  0.00  0.00    +0.000 OA
ATOM     29  H   UNL     1      -3.606  11.994  16.272  0.00  0.00    +0.000 HD
ENDBRANCH  27  28
ENDBRANCH  26  27
ENDBRANCH  14  26
TORSDOF 4
ENDMDL
MODEL 4
REMARK VINA RESULT:      -6.1      3.158      4.918
REMARK  Name = 
REMARK  4 active torsions:
REMARK  status: ('A' for Active; 'I' for Inactive)
REMARK    1  A    between atoms: C_7  and  C_8
REMARK    2  A    between atoms: N_21  and  C_22
REMARK    3  A    between atoms: C_22  and  C_23
REMARK    4  A    between atoms: C_23  and  O_24
REMARK                            x       y       z     vdW  Elec       q    Type
REMARK                         _______ _______ _______ _____ _____    ______ ____
ROOT
ATOM      1  O   UNL     1      -0.091   8.980  20.693  0.00  0.00    +0.000 OA
ATOM      2  C   UNL     1      -0.439   9.847  21.471  0.00  0.00    +0.000 C 
ATOM      3  O   UNL     1      -0.758   9.637  22.783  0.00  0.00    +0.000 OA
ATOM      4  C   UNL     1      -1.079  10.888  23.391  0.00  0.00    +0.000 C 
ATOM      5  C   UNL     1      -0.907  11.877  22.304  0.00  0.00    +0.000 C 
ATOM      6  C   UNL     1      -0.564  11.264  21.173  0.00  0.00    +0.000 C 
ATOM      7  C   UNL     1      -0.401  11.941  19.855  0.00  0.00    +0.000 C 
ATOM      8  C   UNL     1      -0.585  13.472  20.001  0.00  0.00    +0.000 A 
ATOM      9  C   UNL     1      -0.322  14.343  18.905  0.00  0.00    +0.000 A 
ATOM     10  C   UNL     1      -0.629  15.702  18.992  0.00  0.00    +0.000 A 
ATOM     11  C   UNL     1      -1.279  16.172  20.119  0.00  0.00    +0.000 A 
ATOM     12  C   UNL     1      -1.443  15.368  21.227  0.00  0.00    +0.000 A 
ATOM     13  C   UNL     1      -1.060  14.025  21.227  0.00  0.00    +0.000 A 
ATOM     14  N   UNL     1      -1.140  13.237  22.408  0.00  0.00    +0.000 N 
ATOM     15  O   UNL     1      -1.762  17.444  20.239  0.00  0.00    +0.000 OA
ATOM     16  C   UNL     1      -0.783  18.314  19.699  0.00  0.00    +0.000 C 
ATOM     17  C   UNL     1      -0.460  17.943  18.251  0.00  0.00    +0.000 C 
ATOM     18  O   UNL     1      -0.248  16.541  17.983  0.00  0.00    +0.000 OA
ENDROOT
BRANCH   7  19
ATOM     19  C   UNL     1      -1.364  11.359  18.810  0.00  0.00    +0.000 A 
ATOM     20  C   UNL     1      -0.925  10.403  17.878  0.00  0.00    +0.000 A 
ATOM     21  C   UNL     1      -1.805   9.872  16.928  0.00  0.00    +0.000 A 
ATOM     22  C   UNL     1      -3.137  10.282  16.896  0.00  0.00    +0.000 A 
ATOM     23  C   UNL     1      -3.588  11.212  17.828  0.00  0.00    +0.000 A 
ATOM     24 BR   UNL     1      -5.398  11.760  17.807  0.00  0.00    +0.000 Br
ATOM     25  C   UNL     1      -2.717  11.745  18.780  0.00  0.00    +0.000 A 
ENDBRANCH   7  19
BRANCH  14  26
ATOM     26  C   UNL     1      -1.619  13.887  23.657  0.00  0.00    +0.000 C 
BRANCH  26  27
ATOM     27  C   UNL     1      -3.146  13.787  23.864  0.00  0.00    +0.000 C 
BRANCH  27  28
ATOM     28  O   UNL     1      -3.593  14.032  25.192  0.00  0.00    +0.000 OA
ATOM     29  H   UNL     1      -3.228  13.319  25.750  0.00  0.00    +0.000 HD
ENDBRANCH  27  28
ENDBRANCH  26  27
ENDBRANCH  14  26
TORSDOF 4
ENDMDL
MODEL 5
REMARK VINA RESULT:      -6.1      3.701      6.517
REMARK  Name = 
REMARK  4 active torsions:
REMARK  status: ('A' for Active; 'I' for Inactive)
REMARK    1  A    between atoms: C_7  and  C_8
REMARK    2  A    between atoms: N_21  and  C_22
REMARK    3  A    between atoms: C_22  and  C_23
REMARK    4  A    between atoms: C_23  and  O_24
REMARK                            x       y       z     vdW  Elec       q    Type
REMARK                         _______ _______ _______ _____ _____    ______ ____
ROOT
ATOM      1  O   UNL     1      -0.984  14.565  19.392  0.00  0.00    +0.000 OA
ATOM      2  C   UNL     1      -1.090  13.569  20.079  0.00  0.00    +0.000 C 
ATOM      3  O   UNL     1      -1.907  13.454  21.169  0.00  0.00    +0.000 OA
ATOM      4  C   UNL     1      -1.798  12.133  21.698  0.00  0.00    +0.000 C 
ATOM      5  C   UNL     1      -0.833  11.460  20.801  0.00  0.00    +0.000 C 
ATOM      6  C   UNL     1      -0.395  12.308  19.874  0.00  0.00    +0.000 C 
ATOM      7  C   UNL     1       0.656  11.997  18.864  0.00  0.00    +0.000 C 
ATOM      8  C   UNL     1       1.096  10.515  18.974  0.00  0.00    +0.000 A 
ATOM      9  C   UNL     1       1.977   9.946  18.010  0.00  0.00    +0.000 A 
ATOM     10  C   UNL     1       2.489   8.660  18.192  0.00  0.00    +0.000 A 
ATOM     11  C   UNL     1       2.205   7.985  19.366  0.00  0.00    +0.000 A 
ATOM     12  C   UNL     1       1.272   8.475  20.255  0.00  0.00    +0.000 A 
ATOM     13  C   UNL     1       0.655   9.714  20.068  0.00  0.00    +0.000 A 
ATOM     14  N   UNL     1      -0.380  10.159  20.936  0.00  0.00    +0.000 N 
ATOM     15  O   UNL     1       2.778   6.794  19.711  0.00  0.00    +0.000 OA
ATOM     16  C   UNL     1       2.807   5.992  18.545  0.00  0.00    +0.000 C 
ATOM     17  C   UNL     1       3.556   6.697  17.414  0.00  0.00    +0.000 C 
ATOM     18  O   UNL     1       3.224   8.084  17.194  0.00  0.00    +0.000 OA
ENDROOT
BRANCH   7  19
ATOM     19  C   UNL     1       1.854  12.948  18.999  0.00  0.00    +0.000 A 
ATOM     20  C   UNL     1       2.417  13.562  17.867  0.00  0.00    +0.000 A 
ATOM     21  C   UNL     1       3.508  14.430  17.991  0.00  0.00    +0.000 A 
ATOM     22  C   UNL     1       4.050  14.703  19.247  0.00  0.00    +0.000 A 
ATOM     23  C   UNL     1       3.487  14.117  20.377  0.00  0.00    +0.000 A 
ATOM     24 BR   UNL     1       4.202  14.496  22.086  0.00  0.00    +0.000 Br
ATOM     25  C   UNL     1       2.398  13.251  20.261  0.00  0.00    +0.000 A 
ENDBRANCH   7  19
BRANCH  14  26
ATOM     26  C   UNL     1      -0.809   9.259  22.040  0.00  0.00    +0.000 C 
BRANCH  26  27
ATOM     27  C   UNL     1      -0.315   9.704  23.434  0.00  0.00    +0.000 C 
BRANCH  27  28
ATOM     28  O   UNL     1       1.075   9.520  23.669  0.00  0.00    +0.000 OA
ATOM     29  H   UNL     1       1.284   9.974  24.508  0.00  0.00    +0.000 HD
ENDBRANCH  27  28
ENDBRANCH  26  27
ENDBRANCH  14  26
TORSDOF 4
ENDMDL
MODEL 6
REMARK VINA RESULT:      -6.1      2.999      4.724
REMARK  Name = 
REMARK  4 active torsions:
REMARK  status: ('A' for Active; 'I' for Inactive)
REMARK    1  A    between atoms: C_7  and  C_8
REMARK    2  A    between atoms: N_21  and  C_22
REMARK    3  A    between atoms: C_22  and  C_23
REMARK    4  A    between atoms: C_23  and  O_24
REMARK                            x       y       z     vdW  Elec       q    Type
REMARK                         _______ _______ _______ _____ _____    ______ ____
ROOT
ATOM      1  O   UNL     1      -0.770  10.259  22.803  0.00  0.00    +0.000 OA
ATOM      2  C   UNL     1      -1.456  11.260  22.864  0.00  0.00    +0.000 C 
ATOM      3  O   UNL     1      -2.533  11.421  23.689  0.00  0.00    +0.000 OA
ATOM      4  C   UNL     1      -3.064  12.735  23.514  0.00  0.00    +0.000 C 
ATOM      5  C   UNL     1      -2.180  13.352  22.500  0.00  0.00    +0.000 C 
ATOM      6  C   UNL     1      -1.261  12.480  22.097  0.00  0.00    +0.000 C 
ATOM      7  C   UNL     1      -0.265  12.732  21.016  0.00  0.00    +0.000 C 
ATOM      8  C   UNL     1      -0.382  14.186  20.496  0.00  0.00    +0.000 A 
ATOM      9  C   UNL     1       0.569  14.705  19.570  0.00  0.00    +0.000 A 
ATOM     10  C   UNL     1       0.380  15.961  18.991  0.00  0.00    +0.000 A 
ATOM     11  C   UNL     1      -0.789  16.651  19.254  0.00  0.00    +0.000 A 
ATOM     12  C   UNL     1      -1.665  16.215  20.225  0.00  0.00    +0.000 A 
ATOM     13  C   UNL     1      -1.469  15.012  20.908  0.00  0.00    +0.000 A 
ATOM     14  N   UNL     1      -2.322  14.626  21.978  0.00  0.00    +0.000 N 
ATOM     15  O   UNL     1      -1.143  17.809  18.621  0.00  0.00    +0.000 OA
ATOM     16  C   UNL     1       0.023  18.608  18.530  0.00  0.00    +0.000 C 
ATOM     17  C   UNL     1       1.143  17.861  17.805  0.00  0.00    +0.000 C 
ATOM     18  O   UNL     1       1.367  16.494  18.210  0.00  0.00    +0.000 OA
ENDROOT
BRANCH   7  19
ATOM     19  C   UNL     1      -0.418  11.716  19.874  0.00  0.00    +0.000 A 
ATOM     20  C   UNL     1      -1.633  11.590  19.179  0.00  0.00    +0.000 A 
ATOM     21  C   UNL     1      -1.771  10.665  18.138  0.00  0.00    +0.000 A 
ATOM     22  C   UNL     1      -0.696   9.855  17.771  0.00  0.00    +0.000 A 
ATOM     23  C   UNL     1       0.518   9.986  18.438  0.00  0.00    +0.000 A 
ATOM     24 BR   UNL     1       1.987   8.907  17.933  0.00  0.00    +0.000 Br
ATOM     25  C   UNL     1       0.663  10.908  19.476  0.00  0.00    +0.000 A 
ENDBRANCH   7  19
BRANCH  14  26
ATOM     26  C   UNL     1      -3.419  15.550  22.372  0.00  0.00    +0.000 C 
BRANCH  26  27
ATOM     27  C   UNL     1      -3.104  16.392  23.627  0.00  0.00    +0.000 C 
BRANCH  27  28
ATOM     28  O   UNL     1      -3.756  15.970  24.818  0.00  0.00    +0.000 OA
ATOM     29  H   UNL     1      -4.426  16.648  25.030  0.00  0.00    +0.000 HD
ENDBRANCH  27  28
ENDBRANCH  26  27
ENDBRANCH  14  26
TORSDOF 4
ENDMDL
MODEL 7
REMARK VINA RESULT:      -6.1      3.035      4.997
REMARK  Name = 
REMARK  4 active torsions:
REMARK  status: ('A' for Active; 'I' for Inactive)
REMARK    1  A    between atoms: C_7  and  C_8
REMARK    2  A    between atoms: N_21  and  C_22
REMARK    3  A    between atoms: C_22  and  C_23
REMARK    4  A    between atoms: C_23  and  O_24
REMARK                            x       y       z     vdW  Elec       q    Type
REMARK                         _______ _______ _______ _____ _____    ______ ____
ROOT
ATOM      1  O   UNL     1      -0.608  10.383  22.950  0.00  0.00    +0.000 OA
ATOM      2  C   UNL     1      -1.334  11.354  22.861  0.00  0.00    +0.000 C 
ATOM      3  O   UNL     1      -2.502  11.523  23.549  0.00  0.00    +0.000 OA
ATOM      4  C   UNL     1      -3.058  12.797  23.220  0.00  0.00    +0.000 C 
ATOM      5  C   UNL     1      -2.091  13.380  22.265  0.00  0.00    +0.000 C 
ATOM      6  C   UNL     1      -1.100  12.524  22.029  0.00  0.00    +0.000 C 
ATOM      7  C   UNL     1      -0.001  12.744  21.047  0.00  0.00    +0.000 C 
ATOM      8  C   UNL     1      -0.113  14.152  20.409  0.00  0.00    +0.000 A 
ATOM      9  C   UNL     1       0.915  14.646  19.556  0.00  0.00    +0.000 A 
ATOM     10  C   UNL     1       0.746  15.848  18.867  0.00  0.00    +0.000 A 
ATOM     11  C   UNL     1      -0.471  16.502  18.949  0.00  0.00    +0.000 A 
ATOM     12  C   UNL     1      -1.432  16.096  19.850  0.00  0.00    +0.000 A 
ATOM     13  C   UNL     1      -1.269  14.955  20.638  0.00  0.00    +0.000 A 
ATOM     14  N   UNL     1      -2.221  14.607  21.636  0.00  0.00    +0.000 N 
ATOM     15  O   UNL     1      -0.795  17.595  18.197  0.00  0.00    +0.000 OA
ATOM     16  C   UNL     1       0.344  18.437  18.173  0.00  0.00    +0.000 C 
ATOM     17  C   UNL     1       1.565  17.692  17.632  0.00  0.00    +0.000 C 
ATOM     18  O   UNL     1       1.793  16.369  18.160  0.00  0.00    +0.000 OA
ENDROOT
BRANCH   7  19
ATOM     19  C   UNL     1       0.013  11.644  19.975  0.00  0.00    +0.000 A 
ATOM     20  C   UNL     1       1.170  10.881  19.741  0.00  0.00    +0.000 A 
ATOM     21  C   UNL     1       1.180   9.877  18.765  0.00  0.00    +0.000 A 
ATOM     22  C   UNL     1       0.035   9.617  18.012  0.00  0.00    +0.000 A 
ATOM     23  C   UNL     1      -1.122  10.352  18.250  0.00  0.00    +0.000 A 
ATOM     24 BR   UNL     1      -2.685   9.992  17.249  0.00  0.00    +0.000 Br
ATOM     25  C   UNL     1      -1.141  11.353  19.223  0.00  0.00    +0.000 A 
ENDBRANCH   7  19
BRANCH  14  26
ATOM     26  C   UNL     1      -3.389  15.505  21.838  0.00  0.00    +0.000 C 
BRANCH  26  27
ATOM     27  C   UNL     1      -4.639  15.092  21.033  0.00  0.00    +0.000 C 
BRANCH  27  28
ATOM     28  O   UNL     1      -4.917  15.896  19.893  0.00  0.00    +0.000 OA
ATOM     29  H   UNL     1      -4.076  15.998  19.407  0.00  0.00    +0.000 HD
ENDBRANCH  27  28
ENDBRANCH  26  27
ENDBRANCH  14  26
TORSDOF 4
ENDMDL
MODEL 8
REMARK VINA RESULT:      -6.1      2.864      4.896
REMARK  Name = 
REMARK  4 active torsions:
REMARK  status: ('A' for Active; 'I' for Inactive)
REMARK    1  A    between atoms: C_7  and  C_8
REMARK    2  A    between atoms: N_21  and  C_22
REMARK    3  A    between atoms: C_22  and  C_23
REMARK    4  A    between atoms: C_23  and  O_24
REMARK                            x       y       z     vdW  Elec       q    Type
REMARK                         _______ _______ _______ _____ _____    ______ ____
ROOT
ATOM      1  O   UNL     1      -0.600  10.175  22.747  0.00  0.00    +0.000 OA
ATOM      2  C   UNL     1      -1.263  11.194  22.779  0.00  0.00    +0.000 C 
ATOM      3  O   UNL     1      -2.352  11.394  23.579  0.00  0.00    +0.000 OA
ATOM      4  C   UNL     1      -2.847  12.717  23.373  0.00  0.00    +0.000 C 
ATOM      5  C   UNL     1      -1.929  13.297  22.367  0.00  0.00    +0.000 C 
ATOM      6  C   UNL     1      -1.023  12.396  21.995  0.00  0.00    +0.000 C 
ATOM      7  C   UNL     1      -0.001  12.605  20.930  0.00  0.00    +0.000 C 
ATOM      8  C   UNL     1      -0.073  14.053  20.384  0.00  0.00    +0.000 A 
ATOM      9  C   UNL     1       0.908  14.533  19.470  0.00  0.00    +0.000 A 
ATOM     10  C   UNL     1       0.761  15.784  18.866  0.00  0.00    +0.000 A 
ATOM     11  C   UNL     1      -0.396  16.506  19.095  0.00  0.00    +0.000 A 
ATOM     12  C   UNL     1      -1.301  16.108  20.056  0.00  0.00    +0.000 A 
ATOM     13  C   UNL     1      -1.147  14.912  20.761  0.00  0.00    +0.000 A 
ATOM     14  N   UNL     1      -2.030  14.565  21.821  0.00  0.00    +0.000 N 
ATOM     15  O   UNL     1      -0.709  17.662  18.436  0.00  0.00    +0.000 OA
ATOM     16  C   UNL     1       0.478  18.430  18.355  0.00  0.00    +0.000 C 
ATOM     17  C   UNL     1       1.593  17.645  17.665  0.00  0.00    +0.000 C 
ATOM     18  O   UNL     1       1.776  16.280  18.096  0.00  0.00    +0.000 OA
ENDROOT
BRANCH   7  19
ATOM     19  C   UNL     1      -0.156  11.574  19.803  0.00  0.00    +0.000 A 
ATOM     20  C   UNL     1      -1.359  11.471  19.082  0.00  0.00    +0.000 A 
ATOM     21  C   UNL     1      -1.498  10.531  18.053  0.00  0.00    +0.000 A 
ATOM     22  C   UNL     1      -0.439   9.686  17.725  0.00  0.00    +0.000 A 
ATOM     23  C   UNL     1       0.763   9.795  18.418  0.00  0.00    +0.000 A 
ATOM     24 BR   UNL     1       2.212   8.667  17.966  0.00  0.00    +0.000 Br
ATOM     25  C   UNL     1       0.910  10.730  19.444  0.00  0.00    +0.000 A 
ENDBRANCH   7  19
BRANCH  14  26
ATOM     26  C   UNL     1      -3.112  15.520  22.178  0.00  0.00    +0.000 C 
BRANCH  26  27
ATOM     27  C   UNL     1      -4.455  15.232  21.473  0.00  0.00    +0.000 C 
BRANCH  27  28
ATOM     28  O   UNL     1      -4.362  14.441  20.296  0.00  0.00    +0.000 OA
ATOM     29  H   UNL     1      -4.395  13.507  20.578  0.00  0.00    +0.000 HD
ENDBRANCH  27  28
ENDBRANCH  26  27
ENDBRANCH  14  26
TORSDOF 4
ENDMDL
MODEL 9
REMARK VINA RESULT:      -6.1      1.380      1.614
REMARK  Name = 
REMARK  4 active torsions:
REMARK  status: ('A' for Active; 'I' for Inactive)
REMARK    1  A    between atoms: C_7  and  C_8
REMARK    2  A    between atoms: N_21  and  C_22
REMARK    3  A    between atoms: C_22  and  C_23
REMARK    4  A    between atoms: C_23  and  O_24
REMARK                            x       y       z     vdW  Elec       q    Type
REMARK                         _______ _______ _______ _____ _____    ______ ____
ROOT
ATOM      1  O   UNL     1       2.366  13.368  20.687  0.00  0.00    +0.000 OA
ATOM      2  C   UNL     1       1.382  13.818  21.241  0.00  0.00    +0.000 C 
ATOM      3  O   UNL     1       1.408  14.702  22.282  0.00  0.00    +0.000 OA
ATOM      4  C   UNL     1       0.067  15.035  22.646  0.00  0.00    +0.000 C 
ATOM      5  C   UNL     1      -0.769  14.260  21.702  0.00  0.00    +0.000 C 
ATOM      6  C   UNL     1      -0.001  13.524  20.902  0.00  0.00    +0.000 C 
ATOM      7  C   UNL     1      -0.509  12.551  19.894  0.00  0.00    +0.000 C 
ATOM      8  C   UNL     1      -2.057  12.589  19.832  0.00  0.00    +0.000 A 
ATOM      9  C   UNL     1      -2.762  11.858  18.833  0.00  0.00    +0.000 A 
ATOM     10  C   UNL     1      -4.155  11.773  18.868  0.00  0.00    +0.000 A 
ATOM     11  C   UNL     1      -4.833  12.327  19.940  0.00  0.00    +0.000 A 
ATOM     12  C   UNL     1      -4.179  13.126  20.854  0.00  0.00    +0.000 A 
ATOM     13  C   UNL     1      -2.798  13.325  20.803  0.00  0.00    +0.000 A 
ATOM     14  N   UNL     1      -2.152  14.233  21.688  0.00  0.00    +0.000 N 
ATOM     15  O   UNL     1      -6.173  12.167  20.151  0.00  0.00    +0.000 OA
ATOM     16  C   UNL     1      -6.813  12.303  18.895  0.00  0.00    +0.000 C 
ATOM     17  C   UNL     1      -6.254  11.301  17.885  0.00  0.00    +0.000 C 
ATOM     18  O   UNL     1      -4.817  11.181  17.830  0.00  0.00    +0.000 OA
ENDROOT
BRANCH   7  19
ATOM     19  C   UNL     1       0.005  11.134  20.183  0.00  0.00    +0.000 A 
ATOM     20  C   UNL     1      -0.294  10.493  21.398  0.00  0.00    +0.000 A 
ATOM     21  C   UNL     1       0.173   9.200  21.660  0.00  0.00    +0.000 A 
ATOM     22  C   UNL     1       0.941   8.524  20.712  0.00  0.00    +0.000 A 
ATOM     23  C   UNL     1       1.225   9.141  19.497  0.00  0.00    +0.000 A 
ATOM     24 BR   UNL     1       2.248   8.225  18.197  0.00  0.00    +0.000 Br
ATOM     25  C   UNL     1       0.761  10.430  19.228  0.00  0.00    +0.000 A 
ENDBRANCH   7  19
BRANCH  14  26
ATOM     26  C   UNL     1      -2.991  14.988  22.657  0.00  0.00    +0.000 C 
BRANCH  26  27
ATOM     27  C   UNL     1      -3.506  16.339  22.115  0.00  0.00    +0.000 C 
BRANCH  27  28
ATOM     28  O   UNL     1      -2.548  17.108  21.400  0.00  0.00    +0.000 OA
ATOM     29  H   UNL     1      -1.997  17.564  22.064  0.00  0.00    +0.000 HD
ENDBRANCH  27  28
ENDBRANCH  26  27
ENDBRANCH  14  26
TORSDOF 4
ENDMDL
