MODEL 1
REMARK VINA RESULT:      -6.2      0.000      0.000
REMARK  Name = 
REMARK  2 active torsions:
REMARK  status: ('A' for Active; 'I' for Inactive)
REMARK    1  A    between atoms: C_1  and  N_2
REMARK    2  A    between atoms: C_8  and  C_9
REMARK                            x       y       z     vdW  Elec       q    Type
REMARK                         _______ _______ _______ _____ _____    ______ ____
ROOT
ATOM      1  C   UNL     1       5.275   4.356  15.279  0.00  0.00    +0.000 C 
ATOM      2  N   UNL     1       5.334   4.229  16.709  0.00  0.00    +0.000 N 
ATOM      3  C   UNL     1       6.394   4.429  17.560  0.00  0.00    +0.000 A 
ATOM      4  N   UNL     1       7.608   4.801  17.154  0.00  0.00    +0.000 N 
ATOM      5  N   UNL     1       6.070   4.216  18.814  0.00  0.00    +0.000 NA
ATOM      6  C   UNL     1       4.760   3.872  18.771  0.00  0.00    +0.000 A 
ATOM      7  S   UNL     1       3.600   3.450  19.957  0.00  0.00    +0.000 S 
ATOM      8  C   UNL     1       2.402   3.263  18.722  0.00  0.00    +0.000 A 
ATOM      9  C   UNL     1       2.886   3.514  17.441  0.00  0.00    +0.000 A 
ATOM     10  C   UNL     1       4.264   3.868  17.507  0.00  0.00    +0.000 A 
ATOM     11  H   UNL     1       7.904   4.943  16.200  0.00  0.00    +0.000 HD
ATOM     12  H   UNL     1       8.328   4.900  17.863  0.00  0.00    +0.000 HD
ENDROOT
BRANCH   8  13
ATOM     13  C   UNL     1       1.043   2.877  19.079  0.00  0.00    +0.000 C 
ATOM     14  N   UNL     1       0.573   3.332  20.280  0.00  0.00    +0.000 N 
ATOM     15  O   UNL     1       0.317   2.185  18.371  0.00  0.00    +0.000 OA
ATOM     16  H   UNL     1       1.146   3.908  20.886  0.00  0.00    +0.000 HD
ATOM     17  H   UNL     1      -0.365   3.088  20.564  0.00  0.00    +0.000 HD
ENDBRANCH   8  13
TORSDOF 1
ENDMDL
MODEL 2
REMARK VINA RESULT:      -6.1      2.916      5.292
REMARK  Name = 
REMARK  2 active torsions:
REMARK  status: ('A' for Active; 'I' for Inactive)
REMARK    1  A    between atoms: C_1  and  N_2
REMARK    2  A    between atoms: C_8  and  C_9
REMARK                            x       y       z     vdW  Elec       q    Type
REMARK                         _______ _______ _______ _____ _____    ______ ____
ROOT
ATOM      1  C   UNL     1       2.545   2.936  20.924  0.00  0.00    +0.000 C 
ATOM      2  N   UNL     1       2.676   3.092  19.502  0.00  0.00    +0.000 N 
ATOM      3  C   UNL     1       1.751   2.865  18.510  0.00  0.00    +0.000 A 
ATOM      4  N   UNL     1       0.509   2.442  18.740  0.00  0.00    +0.000 N 
ATOM      5  N   UNL     1       2.234   3.117  17.316  0.00  0.00    +0.000 NA
ATOM      6  C   UNL     1       3.507   3.524  17.544  0.00  0.00    +0.000 A 
ATOM      7  S   UNL     1       4.793   4.036  16.536  0.00  0.00    +0.000 S 
ATOM      8  C   UNL     1       5.794   4.267  17.929  0.00  0.00    +0.000 A 
ATOM      9  C   UNL     1       5.156   3.955  19.126  0.00  0.00    +0.000 A 
ATOM     10  C   UNL     1       3.824   3.527  18.865  0.00  0.00    +0.000 A 
ATOM     11  H   UNL     1       0.112   2.207  19.638  0.00  0.00    +0.000 HD
ATOM     12  H   UNL     1      -0.089   2.285  17.934  0.00  0.00    +0.000 HD
ENDROOT
BRANCH   8  13
ATOM     13  C   UNL     1       7.161   4.746  17.770  0.00  0.00    +0.000 C 
ATOM     14  N   UNL     1       7.785   5.201  18.899  0.00  0.00    +0.000 N 
ATOM     15  O   UNL     1       7.765   4.759  16.701  0.00  0.00    +0.000 OA
ATOM     16  H   UNL     1       7.316   5.201  19.796  0.00  0.00    +0.000 HD
ATOM     17  H   UNL     1       8.734   5.539  18.832  0.00  0.00    +0.000 HD
ENDBRANCH   8  13
TORSDOF 1
ENDMDL
MODEL 3
REMARK VINA RESULT:      -6.0      3.363      5.352
REMARK  Name = 
REMARK  2 active torsions:
REMARK  status: ('A' for Active; 'I' for Inactive)
REMARK    1  A    between atoms: C_1  and  N_2
REMARK    2  A    between atoms: C_8  and  C_9
REMARK                            x       y       z     vdW  Elec       q    Type
REMARK                         _______ _______ _______ _____ _____    ______ ____
ROOT
ATOM      1  C   UNL     1       4.316   2.363  20.183  0.00  0.00    +0.000 C 
ATOM      2  N   UNL     1       4.138   3.033  18.925  0.00  0.00    +0.000 N 
ATOM      3  C   UNL     1       3.198   2.815  17.945  0.00  0.00    +0.000 A 
ATOM      4  N   UNL     1       2.246   1.887  18.028  0.00  0.00    +0.000 N 
ATOM      5  N   UNL     1       3.349   3.628  16.926  0.00  0.00    +0.000 NA
ATOM      6  C   UNL     1       4.413   4.397  17.259  0.00  0.00    +0.000 A 
ATOM      7  S   UNL     1       5.241   5.683  16.490  0.00  0.00    +0.000 S 
ATOM      8  C   UNL     1       6.318   5.799  17.840  0.00  0.00    +0.000 A 
ATOM      9  C   UNL     1       6.047   4.873  18.844  0.00  0.00    +0.000 A 
ATOM     10  C   UNL     1       4.930   4.073  18.473  0.00  0.00    +0.000 A 
ATOM     11  H   UNL     1       2.118   1.224  18.778  0.00  0.00    +0.000 HD
ATOM     12  H   UNL     1       1.614   1.793  17.239  0.00  0.00    +0.000 HD
ENDROOT
BRANCH   8  13
ATOM     13  C   UNL     1       7.378   6.799  17.841  0.00  0.00    +0.000 C 
ATOM     14  N   UNL     1       8.211   6.806  18.926  0.00  0.00    +0.000 N 
ATOM     15  O   UNL     1       7.556   7.613  16.939  0.00  0.00    +0.000 OA
ATOM     16  H   UNL     1       8.093   6.146  19.685  0.00  0.00    +0.000 HD
ATOM     17  H   UNL     1       8.960   7.482  18.964  0.00  0.00    +0.000 HD
ENDBRANCH   8  13
TORSDOF 1
ENDMDL
MODEL 4
REMARK VINA RESULT:      -5.9      1.215      1.215
REMARK  Name = 
REMARK  2 active torsions:
REMARK  status: ('A' for Active; 'I' for Inactive)
REMARK    1  A    between atoms: C_1  and  N_2
REMARK    2  A    between atoms: C_8  and  C_9
REMARK                            x       y       z     vdW  Elec       q    Type
REMARK                         _______ _______ _______ _____ _____    ______ ____
ROOT
ATOM      1  C   UNL     1       4.679   6.774  16.863  0.00  0.00    +0.000 C 
ATOM      2  N   UNL     1       4.973   5.668  17.733  0.00  0.00    +0.000 N 
ATOM      3  C   UNL     1       6.184   5.243  18.224  0.00  0.00    +0.000 A 
ATOM      4  N   UNL     1       7.344   5.838  17.949  0.00  0.00    +0.000 N 
ATOM      5  N   UNL     1       6.062   4.188  18.995  0.00  0.00    +0.000 NA
ATOM      6  C   UNL     1       4.733   3.928  19.006  0.00  0.00    +0.000 A 
ATOM      7  S   UNL     1       3.757   2.743  19.764  0.00  0.00    +0.000 S 
ATOM      8  C   UNL     1       2.346   3.446  19.051  0.00  0.00    +0.000 A 
ATOM      9  C   UNL     1       2.623   4.553  18.253  0.00  0.00    +0.000 A 
ATOM     10  C   UNL     1       4.024   4.806  18.251  0.00  0.00    +0.000 A 
ATOM     11  H   UNL     1       7.482   6.629  17.337  0.00  0.00    +0.000 HD
ATOM     12  H   UNL     1       8.185   5.431  18.346  0.00  0.00    +0.000 HD
ENDROOT
BRANCH   8  13
ATOM     13  C   UNL     1       1.033   2.869  19.313  0.00  0.00    +0.000 C 
ATOM     14  N   UNL     1       0.513   3.077  20.561  0.00  0.00    +0.000 N 
ATOM     15  O   UNL     1       0.388   2.226  18.490  0.00  0.00    +0.000 OA
ATOM     16  H   UNL     1       1.018   3.606  21.261  0.00  0.00    +0.000 HD
ATOM     17  H   UNL     1      -0.396   2.696  20.782  0.00  0.00    +0.000 HD
ENDBRANCH   8  13
TORSDOF 1
ENDMDL
MODEL 5
REMARK VINA RESULT:      -5.9      3.285      5.075
REMARK  Name = 
REMARK  2 active torsions:
REMARK  status: ('A' for Active; 'I' for Inactive)
REMARK    1  A    between atoms: C_1  and  N_2
REMARK    2  A    between atoms: C_8  and  C_9
REMARK                            x       y       z     vdW  Elec       q    Type
REMARK                         _______ _______ _______ _____ _____    ______ ____
ROOT
ATOM      1  C   UNL     1       1.956   3.505  18.164  0.00  0.00    +0.000 C 
ATOM      2  N   UNL     1       3.120   4.289  18.470  0.00  0.00    +0.000 N 
ATOM      3  C   UNL     1       3.427   4.984  19.616  0.00  0.00    +0.000 A 
ATOM      4  N   UNL     1       2.635   5.031  20.687  0.00  0.00    +0.000 N 
ATOM      5  N   UNL     1       4.588   5.589  19.531  0.00  0.00    +0.000 NA
ATOM      6  C   UNL     1       5.047   5.272  18.297  0.00  0.00    +0.000 A 
ATOM      7  S   UNL     1       6.469   5.648  17.421  0.00  0.00    +0.000 S 
ATOM      8  C   UNL     1       5.898   4.707  16.086  0.00  0.00    +0.000 A 
ATOM      9  C   UNL     1       4.652   4.128  16.311  0.00  0.00    +0.000 A 
ATOM     10  C   UNL     1       4.186   4.477  17.610  0.00  0.00    +0.000 A 
ATOM     11  H   UNL     1       1.724   4.607  20.778  0.00  0.00    +0.000 HD
ATOM     12  H   UNL     1       2.946   5.592  21.474  0.00  0.00    +0.000 HD
ENDROOT
BRANCH   8  13
ATOM     13  C   UNL     1       6.709   4.585  14.881  0.00  0.00    +0.000 C 
ATOM     14  N   UNL     1       6.359   3.596  14.005  0.00  0.00    +0.000 N 
ATOM     15  O   UNL     1       7.665   5.311  14.620  0.00  0.00    +0.000 OA
ATOM     16  H   UNL     1       5.575   2.982  14.189  0.00  0.00    +0.000 HD
ATOM     17  H   UNL     1       6.895   3.479  13.157  0.00  0.00    +0.000 HD
ENDBRANCH   8  13
TORSDOF 1
ENDMDL
MODEL 6
REMARK VINA RESULT:      -5.9      1.894      2.120
REMARK  Name = 
REMARK  2 active torsions:
REMARK  status: ('A' for Active; 'I' for Inactive)
REMARK    1  A    between atoms: C_1  and  N_2
REMARK    2  A    between atoms: C_8  and  C_9
REMARK                            x       y       z     vdW  Elec       q    Type
REMARK                         _______ _______ _______ _____ _____    ______ ____
ROOT
ATOM      1  C   UNL     1       6.435   7.134  16.841  0.00  0.00    +0.000 C 
ATOM      2  N   UNL     1       6.295   6.156  17.885  0.00  0.00    +0.000 N 
ATOM      3  C   UNL     1       7.129   5.883  18.943  0.00  0.00    +0.000 A 
ATOM      4  N   UNL     1       8.268   6.535  19.173  0.00  0.00    +0.000 N 
ATOM      5  N   UNL     1       6.670   4.912  19.697  0.00  0.00    +0.000 NA
ATOM      6  C   UNL     1       5.503   4.551  19.111  0.00  0.00    +0.000 A 
ATOM      7  S   UNL     1       4.303   3.382  19.467  0.00  0.00    +0.000 S 
ATOM      8  C   UNL     1       3.396   3.890  18.084  0.00  0.00    +0.000 A 
ATOM      9  C   UNL     1       4.003   4.922  17.373  0.00  0.00    +0.000 A 
ATOM     10  C   UNL     1       5.228   5.283  18.001  0.00  0.00    +0.000 A 
ATOM     11  H   UNL     1       8.669   7.263  18.601  0.00  0.00    +0.000 HD
ATOM     12  H   UNL     1       8.822   6.240  19.971  0.00  0.00    +0.000 HD
ENDROOT
BRANCH   8  13
ATOM     13  C   UNL     1       2.128   3.244  17.768  0.00  0.00    +0.000 C 
ATOM     14  N   UNL     1       2.063   1.893  17.970  0.00  0.00    +0.000 N 
ATOM     15  O   UNL     1       1.141   3.839  17.343  0.00  0.00    +0.000 OA
ATOM     16  H   UNL     1       2.858   1.374  18.322  0.00  0.00    +0.000 HD
ATOM     17  H   UNL     1       1.201   1.408  17.764  0.00  0.00    +0.000 HD
ENDBRANCH   8  13
TORSDOF 1
ENDMDL
MODEL 7
REMARK VINA RESULT:      -5.9      2.591      3.308
REMARK  Name = 
REMARK  2 active torsions:
REMARK  status: ('A' for Active; 'I' for Inactive)
REMARK    1  A    between atoms: C_1  and  N_2
REMARK    2  A    between atoms: C_8  and  C_9
REMARK                            x       y       z     vdW  Elec       q    Type
REMARK                         _______ _______ _______ _____ _____    ______ ____
ROOT
ATOM      1  C   UNL     1       5.447   3.634  13.359  0.00  0.00    +0.000 C 
ATOM      2  N   UNL     1       6.137   4.315  14.420  0.00  0.00    +0.000 N 
ATOM      3  C   UNL     1       7.218   5.162  14.356  0.00  0.00    +0.000 A 
ATOM      4  N   UNL     1       7.824   5.502  13.219  0.00  0.00    +0.000 N 
ATOM      5  N   UNL     1       7.577   5.596  15.541  0.00  0.00    +0.000 NA
ATOM      6  C   UNL     1       6.700   5.016  16.395  0.00  0.00    +0.000 A 
ATOM      7  S   UNL     1       6.477   5.066  18.092  0.00  0.00    +0.000 S 
ATOM      8  C   UNL     1       5.127   3.994  17.949  0.00  0.00    +0.000 A 
ATOM      9  C   UNL     1       4.863   3.609  16.637  0.00  0.00    +0.000 A 
ATOM     10  C   UNL     1       5.798   4.225  15.757  0.00  0.00    +0.000 A 
ATOM     11  H   UNL     1       7.598   5.166  12.295  0.00  0.00    +0.000 HD
ATOM     12  H   UNL     1       8.628   6.119  13.284  0.00  0.00    +0.000 HD
ENDROOT
BRANCH   8  13
ATOM     13  C   UNL     1       4.394   3.584  19.140  0.00  0.00    +0.000 C 
ATOM     14  N   UNL     1       4.872   2.490  19.806  0.00  0.00    +0.000 N 
ATOM     15  O   UNL     1       3.396   4.160  19.565  0.00  0.00    +0.000 OA
ATOM     16  H   UNL     1       5.695   1.994  19.484  0.00  0.00    +0.000 HD
ATOM     17  H   UNL     1       4.394   2.174  20.638  0.00  0.00    +0.000 HD
ENDBRANCH   8  13
TORSDOF 1
ENDMDL
MODEL 8
REMARK VINA RESULT:      -5.8      3.474      5.213
REMARK  Name = 
REMARK  2 active torsions:
REMARK  status: ('A' for Active; 'I' for Inactive)
REMARK    1  A    between atoms: C_1  and  N_2
REMARK    2  A    between atoms: C_8  and  C_9
REMARK                            x       y       z     vdW  Elec       q    Type
REMARK                         _______ _______ _______ _____ _____    ______ ____
ROOT
ATOM      1  C   UNL     1       3.873   2.672  19.472  0.00  0.00    +0.000 C 
ATOM      2  N   UNL     1       3.966   4.012  18.961  0.00  0.00    +0.000 N 
ATOM      3  C   UNL     1       3.439   5.177  19.464  0.00  0.00    +0.000 A 
ATOM      4  N   UNL     1       2.717   5.239  20.583  0.00  0.00    +0.000 N 
ATOM      5  N   UNL     1       3.732   6.216  18.718  0.00  0.00    +0.000 NA
ATOM      6  C   UNL     1       4.475   5.707  17.706  0.00  0.00    +0.000 A 
ATOM      7  S   UNL     1       5.243   6.386  16.334  0.00  0.00    +0.000 S 
ATOM      8  C   UNL     1       5.821   4.819  15.881  0.00  0.00    +0.000 A 
ATOM      9  C   UNL     1       5.429   3.811  16.757  0.00  0.00    +0.000 A 
ATOM     10  C   UNL     1       4.647   4.364  17.810  0.00  0.00    +0.000 A 
ATOM     11  H   UNL     1       2.445   4.461  21.165  0.00  0.00    +0.000 HD
ATOM     12  H   UNL     1       2.356   6.148  20.857  0.00  0.00    +0.000 HD
ENDROOT
BRANCH   8  13
ATOM     13  C   UNL     1       6.633   4.662  14.681  0.00  0.00    +0.000 C 
ATOM     14  N   UNL     1       6.297   3.634  13.844  0.00  0.00    +0.000 N 
ATOM     15  O   UNL     1       7.579   5.390  14.391  0.00  0.00    +0.000 OA
ATOM     16  H   UNL     1       5.521   3.018  14.053  0.00  0.00    +0.000 HD
ATOM     17  H   UNL     1       6.834   3.493  13.001  0.00  0.00    +0.000 HD
ENDBRANCH   8  13
TORSDOF 1
ENDMDL
MODEL 9
REMARK VINA RESULT:      -5.8      2.197      2.355
REMARK  Name = 
REMARK  2 active torsions:
REMARK  status: ('A' for Active; 'I' for Inactive)
REMARK    1  A    between atoms: C_1  and  N_2
REMARK    2  A    between atoms: C_8  and  C_9
REMARK                            x       y       z     vdW  Elec       q    Type
REMARK                         _______ _______ _______ _____ _____    ______ ____
ROOT
ATOM      1  C   UNL     1       5.506   3.754  16.184  0.00  0.00    +0.000 C 
ATOM      2  N   UNL     1       4.794   4.745  16.943  0.00  0.00    +0.000 N 
ATOM      3  C   UNL     1       4.696   6.100  16.733  0.00  0.00    +0.000 A 
ATOM      4  N   UNL     1       5.286   6.737  15.722  0.00  0.00    +0.000 N 
ATOM      5  N   UNL     1       3.954   6.689  17.641  0.00  0.00    +0.000 NA
ATOM      6  C   UNL     1       3.556   5.684  18.458  0.00  0.00    +0.000 A 
ATOM      7  S   UNL     1       2.576   5.604  19.859  0.00  0.00    +0.000 S 
ATOM      8  C   UNL     1       2.820   3.892  19.934  0.00  0.00    +0.000 A 
ATOM      9  C   UNL     1       3.633   3.405  18.915  0.00  0.00    +0.000 A 
ATOM     10  C   UNL     1       4.043   4.476  18.072  0.00  0.00    +0.000 A 
ATOM     11  H   UNL     1       5.889   6.326  15.024  0.00  0.00    +0.000 HD
ATOM     12  H   UNL     1       5.168   7.744  15.670  0.00  0.00    +0.000 HD
ENDROOT
BRANCH   8  13
ATOM     13  C   UNL     1       2.196   3.114  20.997  0.00  0.00    +0.000 C 
ATOM     14  N   UNL     1       0.836   2.980  20.940  0.00  0.00    +0.000 N 
ATOM     15  O   UNL     1       2.815   2.586  21.916  0.00  0.00    +0.000 OA
ATOM     16  H   UNL     1       0.296   3.401  20.193  0.00  0.00    +0.000 HD
ATOM     17  H   UNL     1       0.366   2.446  21.657  0.00  0.00    +0.000 HD
ENDBRANCH   8  13
TORSDOF 1
ENDMDL
