MODEL 1
REMARK VINA RESULT:      -7.4      0.000      0.000
REMARK  Name = 
REMARK  4 active torsions:
REMARK  status: ('A' for Active; 'I' for Inactive)
REMARK    1  A    between atoms: C_1  and  O_2
REMARK    2  A    between atoms: O_2  and  C_3
REMARK    3  A    between atoms: C_6  and  C_7
REMARK    4  A    between atoms: C_9  and  N_10
REMARK                            x       y       z     vdW  Elec       q    Type
REMARK                         _______ _______ _______ _____ _____    ______ ____
ROOT
ATOM      1  N   UNL     1       1.113   8.517  20.166  0.00  0.00    +0.000 N 
ATOM      2  C   UNL     1       1.958   8.030  19.189  0.00  0.00    +0.000 C 
ATOM      3  O   UNL     1       2.171   8.588  18.113  0.00  0.00    +0.000 OA
ATOM      4  N   UNL     1       2.612   6.835  19.482  0.00  0.00    +0.000 N 
ATOM      5  C   UNL     1       3.635   6.368  18.539  0.00  0.00    +0.000 C 
ATOM      6  C   UNL     1       3.125   5.181  17.731  0.00  0.00    +0.000 C 
ATOM      7  C   UNL     1       2.673   4.061  18.669  0.00  0.00    +0.000 C 
ATOM      8  C   UNL     1       1.649   4.585  19.683  0.00  0.00    +0.000 C 
ATOM      9  C   UNL     1       2.173   5.812  20.430  0.00  0.00    +0.000 C 
ATOM     10  O   UNL     1       3.826   3.540  19.360  0.00  0.00    +0.000 OA
ATOM     11  C   UNL     1       3.727   2.123  19.234  0.00  0.00    +0.000 C 
ATOM     12  C   UNL     1       3.004   1.931  17.931  0.00  0.00    +0.000 C 
ATOM     13  O   UNL     1       2.064   3.004  17.908  0.00  0.00    +0.000 OA
ATOM     14  H   UNL     1       1.160   8.109  21.088  0.00  0.00    +0.000 HD
ENDROOT
BRANCH   1  21
ATOM     15  C   UNL     1       0.263  10.537  21.256  0.00  0.00    +0.000 A 
ATOM     16  C   UNL     1      -0.446  11.749  21.195  0.00  0.00    +0.000 A 
ATOM     17  C   UNL     1      -1.115  12.132  20.032  0.00  0.00    +0.000 A 
ATOM     18  C   UNL     1      -1.077  11.313  18.910  0.00  0.00    +0.000 A 
ATOM     19  C   UNL     1      -1.794  11.688  17.647  0.00  0.00    +0.000 C 
ATOM     20  C   UNL     1      -0.346  10.117  18.958  0.00  0.00    +0.000 A 
ATOM     21  C   UNL     1       0.345   9.715  20.109  0.00  0.00    +0.000 A 
BRANCH  15  23
ATOM     22  C   UNL     1       0.043   9.530  23.390  0.00  0.00    +0.000 C 
ATOM     23  O   UNL     1       0.899  10.099  22.398  0.00  0.00    +0.000 OA
ENDBRANCH  15  23
ENDBRANCH   1  21
TORSDOF 2
ENDMDL
MODEL 2
REMARK VINA RESULT:      -7.2      2.024      7.684
REMARK  Name = 
REMARK  4 active torsions:
REMARK  status: ('A' for Active; 'I' for Inactive)
REMARK    1  A    between atoms: C_1  and  O_2
REMARK    2  A    between atoms: O_2  and  C_3
REMARK    3  A    between atoms: C_6  and  C_7
REMARK    4  A    between atoms: C_9  and  N_10
REMARK                            x       y       z     vdW  Elec       q    Type
REMARK                         _______ _______ _______ _____ _____    ______ ____
ROOT
ATOM      1  N   UNL     1       2.440   6.959  18.306  0.00  0.00    +0.000 N 
ATOM      2  C   UNL     1       1.917   7.564  19.432  0.00  0.00    +0.000 C 
ATOM      3  O   UNL     1       1.696   6.982  20.493  0.00  0.00    +0.000 OA
ATOM      4  N   UNL     1       1.653   8.929  19.329  0.00  0.00    +0.000 N 
ATOM      5  C   UNL     1       1.247   9.638  20.547  0.00  0.00    +0.000 C 
ATOM      6  C   UNL     1      -0.241   9.968  20.512  0.00  0.00    +0.000 C 
ATOM      7  C   UNL     1      -0.569  10.776  19.256  0.00  0.00    +0.000 C 
ATOM      8  C   UNL     1      -0.083  10.045  17.999  0.00  0.00    +0.000 C 
ATOM      9  C   UNL     1       1.397   9.675  18.098  0.00  0.00    +0.000 C 
ATOM     10  O   UNL     1       0.069  12.065  19.351  0.00  0.00    +0.000 OA
ATOM     11  C   UNL     1      -0.946  13.010  19.020  0.00  0.00    +0.000 C 
ATOM     12  C   UNL     1      -2.215  12.338  19.462  0.00  0.00    +0.000 C 
ATOM     13  O   UNL     1      -1.991  10.963  19.155  0.00  0.00    +0.000 OA
ATOM     14  H   UNL     1       2.781   7.547  17.560  0.00  0.00    +0.000 HD
ENDROOT
BRANCH   1  21
ATOM     15  C   UNL     1       4.099   5.260  17.711  0.00  0.00    +0.000 A 
ATOM     16  C   UNL     1       4.485   3.912  17.621  0.00  0.00    +0.000 A 
ATOM     17  C   UNL     1       3.588   2.887  17.924  0.00  0.00    +0.000 A 
ATOM     18  C   UNL     1       2.295   3.195  18.330  0.00  0.00    +0.000 A 
ATOM     19  C   UNL     1       1.303   2.119  18.653  0.00  0.00    +0.000 C 
ATOM     20  C   UNL     1       1.916   4.540  18.450  0.00  0.00    +0.000 A 
ATOM     21  C   UNL     1       2.801   5.589  18.164  0.00  0.00    +0.000 A 
BRANCH  15  23
ATOM     22  C   UNL     1       5.212   6.439  15.982  0.00  0.00    +0.000 C 
ATOM     23  O   UNL     1       4.938   6.302  17.378  0.00  0.00    +0.000 OA
ENDBRANCH  15  23
ENDBRANCH   1  21
TORSDOF 2
ENDMDL
MODEL 3
REMARK VINA RESULT:      -7.2      2.010      7.549
REMARK  Name = 
REMARK  4 active torsions:
REMARK  status: ('A' for Active; 'I' for Inactive)
REMARK    1  A    between atoms: C_1  and  O_2
REMARK    2  A    between atoms: O_2  and  C_3
REMARK    3  A    between atoms: C_6  and  C_7
REMARK    4  A    between atoms: C_9  and  N_10
REMARK                            x       y       z     vdW  Elec       q    Type
REMARK                         _______ _______ _______ _____ _____    ______ ____
ROOT
ATOM      1  N   UNL     1       2.540   6.596  18.969  0.00  0.00    +0.000 N 
ATOM      2  C   UNL     1       1.864   7.330  19.923  0.00  0.00    +0.000 C 
ATOM      3  O   UNL     1       1.440   6.868  20.983  0.00  0.00    +0.000 OA
ATOM      4  N   UNL     1       1.684   8.684  19.645  0.00  0.00    +0.000 N 
ATOM      5  C   UNL     1       1.112   9.527  20.700  0.00  0.00    +0.000 C 
ATOM      6  C   UNL     1      -0.332   9.895  20.378  0.00  0.00    +0.000 C 
ATOM      7  C   UNL     1      -0.406  10.577  19.011  0.00  0.00    +0.000 C 
ATOM      8  C   UNL     1       0.249   9.706  17.934  0.00  0.00    +0.000 C 
ATOM      9  C   UNL     1       1.674   9.306  18.322  0.00  0.00    +0.000 C 
ATOM     10  O   UNL     1       0.266  11.850  19.089  0.00  0.00    +0.000 OA
ATOM     11  C   UNL     1      -0.634  12.784  18.498  0.00  0.00    +0.000 C 
ATOM     12  C   UNL     1      -1.990  12.200  18.779  0.00  0.00    +0.000 C 
ATOM     13  O   UNL     1      -1.781  10.794  18.650  0.00  0.00    +0.000 OA
ATOM     14  H   UNL     1       3.028   7.094  18.238  0.00  0.00    +0.000 HD
ENDROOT
BRANCH   1  21
ATOM     15  C   UNL     1       4.194   4.814  19.246  0.00  0.00    +0.000 A 
ATOM     16  C   UNL     1       4.509   3.449  19.360  0.00  0.00    +0.000 A 
ATOM     17  C   UNL     1       3.526   2.471  19.206  0.00  0.00    +0.000 A 
ATOM     18  C   UNL     1       2.212   2.844  18.946  0.00  0.00    +0.000 A 
ATOM     19  C   UNL     1       1.133   1.819  18.764  0.00  0.00    +0.000 C 
ATOM     20  C   UNL     1       1.890   4.206  18.862  0.00  0.00    +0.000 A 
ATOM     21  C   UNL     1       2.855   5.209  19.025  0.00  0.00    +0.000 A 
BRANCH  15  23
ATOM     22  C   UNL     1       6.484   5.403  19.072  0.00  0.00    +0.000 C 
ATOM     23  O   UNL     1       5.142   5.811  19.346  0.00  0.00    +0.000 OA
ENDBRANCH  15  23
ENDBRANCH   1  21
TORSDOF 2
ENDMDL
MODEL 4
REMARK VINA RESULT:      -7.2      1.538      1.678
REMARK  Name = 
REMARK  4 active torsions:
REMARK  status: ('A' for Active; 'I' for Inactive)
REMARK    1  A    between atoms: C_1  and  O_2
REMARK    2  A    between atoms: O_2  and  C_3
REMARK    3  A    between atoms: C_6  and  C_7
REMARK    4  A    between atoms: C_9  and  N_10
REMARK                            x       y       z     vdW  Elec       q    Type
REMARK                         _______ _______ _______ _____ _____    ______ ____
ROOT
ATOM      1  N   UNL     1       1.018   9.053  19.123  0.00  0.00    +0.000 N 
ATOM      2  C   UNL     1       1.981   8.477  18.318  0.00  0.00    +0.000 C 
ATOM      3  O   UNL     1       2.232   8.839  17.169  0.00  0.00    +0.000 OA
ATOM      4  N   UNL     1       2.710   7.432  18.883  0.00  0.00    +0.000 N 
ATOM      5  C   UNL     1       3.844   6.901  18.118  0.00  0.00    +0.000 C 
ATOM      6  C   UNL     1       3.508   5.536  17.529  0.00  0.00    +0.000 C 
ATOM      7  C   UNL     1       3.080   4.576  18.639  0.00  0.00    +0.000 C 
ATOM      8  C   UNL     1       1.934   5.176  19.462  0.00  0.00    +0.000 C 
ATOM      9  C   UNL     1       2.284   6.570  19.984  0.00  0.00    +0.000 C 
ATOM     10  O   UNL     1       4.212   4.316  19.491  0.00  0.00    +0.000 OA
ATOM     11  C   UNL     1       4.248   2.898  19.641  0.00  0.00    +0.000 C 
ATOM     12  C   UNL     1       3.654   2.389  18.358  0.00  0.00    +0.000 C 
ATOM     13  O   UNL     1       2.630   3.337  18.064  0.00  0.00    +0.000 OA
ATOM     14  H   UNL     1       1.025   8.835  20.110  0.00  0.00    +0.000 HD
ENDROOT
BRANCH   1  21
ATOM     15  C   UNL     1       0.408  11.415  19.323  0.00  0.00    +0.000 A 
ATOM     16  C   UNL     1      -0.402  12.501  18.951  0.00  0.00    +0.000 A 
ATOM     17  C   UNL     1      -1.487  12.325  18.091  0.00  0.00    +0.000 A 
ATOM     18  C   UNL     1      -1.772  11.062  17.585  0.00  0.00    +0.000 A 
ATOM     19  C   UNL     1      -2.936  10.835  16.667  0.00  0.00    +0.000 C 
ATOM     20  C   UNL     1      -0.947   9.982  17.931  0.00  0.00    +0.000 A 
ATOM     21  C   UNL     1       0.156  10.134  18.783  0.00  0.00    +0.000 A 
BRANCH  15  23
ATOM     22  C   UNL     1       1.810  12.877  20.555  0.00  0.00    +0.000 C 
ATOM     23  O   UNL     1       1.461  11.536  20.205  0.00  0.00    +0.000 OA
ENDBRANCH  15  23
ENDBRANCH   1  21
TORSDOF 2
ENDMDL
MODEL 5
REMARK VINA RESULT:      -7.1      2.034      7.608
REMARK  Name = 
REMARK  4 active torsions:
REMARK  status: ('A' for Active; 'I' for Inactive)
REMARK    1  A    between atoms: C_1  and  O_2
REMARK    2  A    between atoms: O_2  and  C_3
REMARK    3  A    between atoms: C_6  and  C_7
REMARK    4  A    between atoms: C_9  and  N_10
REMARK                            x       y       z     vdW  Elec       q    Type
REMARK                         _______ _______ _______ _____ _____    ______ ____
ROOT
ATOM      1  N   UNL     1       2.431   6.874  19.442  0.00  0.00    +0.000 N 
ATOM      2  C   UNL     1       1.742   7.716  20.292  0.00  0.00    +0.000 C 
ATOM      3  O   UNL     1       1.343   7.397  21.412  0.00  0.00    +0.000 OA
ATOM      4  N   UNL     1       1.517   9.010  19.826  0.00  0.00    +0.000 N 
ATOM      5  C   UNL     1       0.929   9.977  20.759  0.00  0.00    +0.000 C 
ATOM      6  C   UNL     1      -0.528  10.253  20.407  0.00  0.00    +0.000 C 
ATOM      7  C   UNL     1      -0.637  10.731  18.959  0.00  0.00    +0.000 C 
ATOM      8  C   UNL     1       0.035   9.734  18.007  0.00  0.00    +0.000 C 
ATOM      9  C   UNL     1       1.475   9.436  18.428  0.00  0.00    +0.000 C 
ATOM     10  O   UNL     1      -0.004  12.021  18.846  0.00  0.00    +0.000 OA
ATOM     11  C   UNL     1      -0.939  12.835  18.141  0.00  0.00    +0.000 C 
ATOM     12  C   UNL     1      -2.273  12.256  18.520  0.00  0.00    +0.000 C 
ATOM     13  O   UNL     1      -2.022  10.853  18.590  0.00  0.00    +0.000 OA
ATOM     14  H   UNL     1       2.897   7.276  18.641  0.00  0.00    +0.000 HD
ENDROOT
BRANCH   1  21
ATOM     15  C   UNL     1       3.952   4.990  19.083  0.00  0.00    +0.000 A 
ATOM     16  C   UNL     1       4.348   3.671  19.365  0.00  0.00    +0.000 A 
ATOM     17  C   UNL     1       3.582   2.855  20.198  0.00  0.00    +0.000 A 
ATOM     18  C   UNL     1       2.415   3.348  20.769  0.00  0.00    +0.000 A 
ATOM     19  C   UNL     1       1.563   2.496  21.660  0.00  0.00    +0.000 C 
ATOM     20  C   UNL     1       2.034   4.674  20.513  0.00  0.00    +0.000 A 
ATOM     21  C   UNL     1       2.791   5.519  19.690  0.00  0.00    +0.000 A 
BRANCH  15  23
ATOM     22  C   UNL     1       4.761   5.348  16.883  0.00  0.00    +0.000 C 
ATOM     23  O   UNL     1       4.654   5.815  18.229  0.00  0.00    +0.000 OA
ENDBRANCH  15  23
ENDBRANCH   1  21
TORSDOF 2
ENDMDL
MODEL 6
REMARK VINA RESULT:      -7.0      1.787      7.644
REMARK  Name = 
REMARK  4 active torsions:
REMARK  status: ('A' for Active; 'I' for Inactive)
REMARK    1  A    between atoms: C_1  and  O_2
REMARK    2  A    between atoms: O_2  and  C_3
REMARK    3  A    between atoms: C_6  and  C_7
REMARK    4  A    between atoms: C_9  and  N_10
REMARK                            x       y       z     vdW  Elec       q    Type
REMARK                         _______ _______ _______ _____ _____    ______ ____
ROOT
ATOM      1  N   UNL     1       2.380   7.319  18.784  0.00  0.00    +0.000 N 
ATOM      2  C   UNL     1       1.923   8.529  18.302  0.00  0.00    +0.000 C 
ATOM      3  O   UNL     1       2.307   9.049  17.254  0.00  0.00    +0.000 OA
ATOM      4  N   UNL     1       0.950   9.168  19.068  0.00  0.00    +0.000 N 
ATOM      5  C   UNL     1       0.328  10.374  18.511  0.00  0.00    +0.000 C 
ATOM      6  C   UNL     1       0.836  11.624  19.222  0.00  0.00    +0.000 C 
ATOM      7  C   UNL     1       0.591  11.508  20.726  0.00  0.00    +0.000 C 
ATOM      8  C   UNL     1       1.198  10.212  21.277  0.00  0.00    +0.000 C 
ATOM      9  C   UNL     1       0.713   8.988  20.499  0.00  0.00    +0.000 C 
ATOM     10  O   UNL     1      -0.830  11.526  20.969  0.00  0.00    +0.000 OA
ATOM     11  C   UNL     1      -1.018  12.475  22.017  0.00  0.00    +0.000 C 
ATOM     12  C   UNL     1       0.111  13.448  21.823  0.00  0.00    +0.000 C 
ATOM     13  O   UNL     1       1.197  12.621  21.405  0.00  0.00    +0.000 OA
ATOM     14  H   UNL     1       1.865   6.874  19.530  0.00  0.00    +0.000 HD
ENDROOT
BRANCH   1  21
ATOM     15  C   UNL     1       2.995   5.165  17.797  0.00  0.00    +0.000 A 
ATOM     16  C   UNL     1       3.934   4.343  17.152  0.00  0.00    +0.000 A 
ATOM     17  C   UNL     1       5.240   4.782  16.930  0.00  0.00    +0.000 A 
ATOM     18  C   UNL     1       5.622   6.053  17.341  0.00  0.00    +0.000 A 
ATOM     19  C   UNL     1       7.019   6.554  17.128  0.00  0.00    +0.000 C 
ATOM     20  C   UNL     1       4.678   6.887  17.959  0.00  0.00    +0.000 A 
ATOM     21  C   UNL     1       3.357   6.475  18.182  0.00  0.00    +0.000 A 
BRANCH  15  23
ATOM     22  C   UNL     1       1.547   3.346  18.264  0.00  0.00    +0.000 C 
ATOM     23  O   UNL     1       1.708   4.754  18.077  0.00  0.00    +0.000 OA
ENDBRANCH  15  23
ENDBRANCH   1  21
TORSDOF 2
ENDMDL
MODEL 7
REMARK VINA RESULT:      -6.9      1.890      2.543
REMARK  Name = 
REMARK  4 active torsions:
REMARK  status: ('A' for Active; 'I' for Inactive)
REMARK    1  A    between atoms: C_1  and  O_2
REMARK    2  A    between atoms: O_2  and  C_3
REMARK    3  A    between atoms: C_6  and  C_7
REMARK    4  A    between atoms: C_9  and  N_10
REMARK                            x       y       z     vdW  Elec       q    Type
REMARK                         _______ _______ _______ _____ _____    ______ ____
ROOT
ATOM      1  N   UNL     1       1.346   9.688  19.403  0.00  0.00    +0.000 N 
ATOM      2  C   UNL     1       1.909   8.744  18.567  0.00  0.00    +0.000 C 
ATOM      3  O   UNL     1       2.001   8.866  17.345  0.00  0.00    +0.000 OA
ATOM      4  N   UNL     1       2.413   7.600  19.181  0.00  0.00    +0.000 N 
ATOM      5  C   UNL     1       3.157   6.650  18.347  0.00  0.00    +0.000 C 
ATOM      6  C   UNL     1       2.328   5.399  18.078  0.00  0.00    +0.000 C 
ATOM      7  C   UNL     1       1.891   4.765  19.399  0.00  0.00    +0.000 C 
ATOM      8  C   UNL     1       1.167   5.791  20.279  0.00  0.00    +0.000 C 
ATOM      9  C   UNL     1       2.004   7.056  20.475  0.00  0.00    +0.000 C 
ATOM     10  O   UNL     1       3.057   4.266  20.084  0.00  0.00    +0.000 OA
ATOM     11  C   UNL     1       2.718   2.939  20.480  0.00  0.00    +0.000 C 
ATOM     12  C   UNL     1       1.744   2.491  19.427  0.00  0.00    +0.000 C 
ATOM     13  O   UNL     1       0.994   3.671  19.140  0.00  0.00    +0.000 OA
ATOM     14  H   UNL     1       1.500   9.600  20.397  0.00  0.00    +0.000 HD
ENDROOT
BRANCH   1  21
ATOM     15  C   UNL     1      -0.585  10.985  18.641  0.00  0.00    +0.000 A 
ATOM     16  C   UNL     1      -1.172  12.219  18.316  0.00  0.00    +0.000 A 
ATOM     17  C   UNL     1      -0.420  13.394  18.312  0.00  0.00    +0.000 A 
ATOM     18  C   UNL     1       0.930  13.353  18.642  0.00  0.00    +0.000 A 
ATOM     19  C   UNL     1       1.771  14.594  18.638  0.00  0.00    +0.000 C 
ATOM     20  C   UNL     1       1.512  12.127  18.996  0.00  0.00    +0.000 A 
ATOM     21  C   UNL     1       0.776  10.935  19.021  0.00  0.00    +0.000 A 
BRANCH  15  23
ATOM     22  C   UNL     1      -2.447   9.791  17.788  0.00  0.00    +0.000 C 
ATOM     23  O   UNL     1      -1.280   9.795  18.614  0.00  0.00    +0.000 OA
ENDBRANCH  15  23
ENDBRANCH   1  21
TORSDOF 2
ENDMDL
MODEL 8
REMARK VINA RESULT:      -6.7      2.295      3.743
REMARK  Name = 
REMARK  4 active torsions:
REMARK  status: ('A' for Active; 'I' for Inactive)
REMARK    1  A    between atoms: C_1  and  O_2
REMARK    2  A    between atoms: O_2  and  C_3
REMARK    3  A    between atoms: C_6  and  C_7
REMARK    4  A    between atoms: C_9  and  N_10
REMARK                            x       y       z     vdW  Elec       q    Type
REMARK                         _______ _______ _______ _____ _____    ______ ____
ROOT
ATOM      1  N   UNL     1       1.834   8.208  19.206  0.00  0.00    +0.000 N 
ATOM      2  C   UNL     1       2.265   6.915  19.429  0.00  0.00    +0.000 C 
ATOM      3  O   UNL     1       1.996   6.257  20.434  0.00  0.00    +0.000 OA
ATOM      4  N   UNL     1       3.037   6.341  18.421  0.00  0.00    +0.000 N 
ATOM      5  C   UNL     1       3.380   4.921  18.550  0.00  0.00    +0.000 C 
ATOM      6  C   UNL     1       4.846   4.749  18.929  0.00  0.00    +0.000 C 
ATOM      7  C   UNL     1       5.739   5.452  17.906  0.00  0.00    +0.000 C 
ATOM      8  C   UNL     1       5.326   6.919  17.744  0.00  0.00    +0.000 C 
ATOM      9  C   UNL     1       3.836   7.053  17.425  0.00  0.00    +0.000 C 
ATOM     10  O   UNL     1       5.626   4.768  16.643  0.00  0.00    +0.000 OA
ATOM     11  C   UNL     1       6.969   4.574  16.202  0.00  0.00    +0.000 C 
ATOM     12  C   UNL     1       7.752   4.472  17.481  0.00  0.00    +0.000 C 
ATOM     13  O   UNL     1       7.108   5.409  18.343  0.00  0.00    +0.000 OA
ATOM     14  H   UNL     1       1.925   8.589  18.275  0.00  0.00    +0.000 HD
ENDROOT
BRANCH   1  21
ATOM     15  C   UNL     1       0.170   9.975  19.518  0.00  0.00    +0.000 A 
ATOM     16  C   UNL     1      -0.669  10.725  20.360  0.00  0.00    +0.000 A 
ATOM     17  C   UNL     1      -0.628  10.560  21.745  0.00  0.00    +0.000 A 
ATOM     18  C   UNL     1       0.245   9.636  22.307  0.00  0.00    +0.000 A 
ATOM     19  C   UNL     1       0.322   9.441  23.792  0.00  0.00    +0.000 C 
ATOM     20  C   UNL     1       1.061   8.865  21.468  0.00  0.00    +0.000 A 
ATOM     21  C   UNL     1       1.031   9.001  20.073  0.00  0.00    +0.000 A 
BRANCH  15  23
ATOM     22  C   UNL     1      -1.081  10.076  17.506  0.00  0.00    +0.000 C 
ATOM     23  O   UNL     1       0.195  10.138  18.149  0.00  0.00    +0.000 OA
ENDBRANCH  15  23
ENDBRANCH   1  21
TORSDOF 2
ENDMDL
MODEL 9
REMARK VINA RESULT:      -6.6      1.789      7.594
REMARK  Name = 
REMARK  4 active torsions:
REMARK  status: ('A' for Active; 'I' for Inactive)
REMARK    1  A    between atoms: C_1  and  O_2
REMARK    2  A    between atoms: O_2  and  C_3
REMARK    3  A    between atoms: C_6  and  C_7
REMARK    4  A    between atoms: C_9  and  N_10
REMARK                            x       y       z     vdW  Elec       q    Type
REMARK                         _______ _______ _______ _____ _____    ______ ____
ROOT
ATOM      1  N   UNL     1       2.194   6.714  20.031  0.00  0.00    +0.000 N 
ATOM      2  C   UNL     1       2.001   7.846  19.263  0.00  0.00    +0.000 C 
ATOM      3  O   UNL     1       2.617   8.095  18.227  0.00  0.00    +0.000 OA
ATOM      4  N   UNL     1       1.025   8.734  19.710  0.00  0.00    +0.000 N 
ATOM      5  C   UNL     1       0.682   9.864  18.841  0.00  0.00    +0.000 C 
ATOM      6  C   UNL     1       1.249  11.166  19.395  0.00  0.00    +0.000 C 
ATOM      7  C   UNL     1       0.756  11.387  20.826  0.00  0.00    +0.000 C 
ATOM      8  C   UNL     1       1.072  10.169  21.702  0.00  0.00    +0.000 C 
ATOM      9  C   UNL     1       0.541   8.875  21.083  0.00  0.00    +0.000 C 
ATOM     10  O   UNL     1      -0.667  11.615  20.797  0.00  0.00    +0.000 OA
ATOM     11  C   UNL     1      -0.876  12.771  21.604  0.00  0.00    +0.000 C 
ATOM     12  C   UNL     1       0.400  13.550  21.448  0.00  0.00    +0.000 C 
ATOM     13  O   UNL     1       1.405  12.538  21.392  0.00  0.00    +0.000 OA
ATOM     14  H   UNL     1       1.508   6.492  20.738  0.00  0.00    +0.000 HD
ENDROOT
BRANCH   1  21
ATOM     15  C   UNL     1       2.728   4.326  20.029  0.00  0.00    +0.000 A 
ATOM     16  C   UNL     1       3.612   3.274  19.733  0.00  0.00    +0.000 A 
ATOM     17  C   UNL     1       4.893   3.530  19.243  0.00  0.00    +0.000 A 
ATOM     18  C   UNL     1       5.305   4.840  19.034  0.00  0.00    +0.000 A 
ATOM     19  C   UNL     1       6.679   5.152  18.519  0.00  0.00    +0.000 C 
ATOM     20  C   UNL     1       4.415   5.891  19.300  0.00  0.00    +0.000 A 
ATOM     21  C   UNL     1       3.118   5.661  19.780  0.00  0.00    +0.000 A 
BRANCH  15  23
ATOM     22  C   UNL     1       1.315   2.911  21.304  0.00  0.00    +0.000 C 
ATOM     23  O   UNL     1       1.471   4.120  20.557  0.00  0.00    +0.000 OA
ENDBRANCH  15  23
ENDBRANCH   1  21
TORSDOF 2
ENDMDL
