MODEL 1
REMARK VINA RESULT:      -8.0      0.000      0.000
REMARK  Name = 
REMARK  8 active torsions:
REMARK  status: ('A' for Active; 'I' for Inactive)
REMARK    1  A    between atoms: C_1  and  C_2
REMARK    2  A    between atoms: C_2  and  N_3
REMARK    3  A    between atoms: N_3  and  C_4
REMARK    4  A    between atoms: C_4  and  C_5
REMARK    5  A    between atoms: N_8  and  C_9
REMARK    6  A    between atoms: C_9  and  C_10
REMARK    7  A    between atoms: C_12  and  C_14
REMARK    8  A    between atoms: C_14  and  N_15
REMARK                            x       y       z     vdW  Elec       q    Type
REMARK                         _______ _______ _______ _____ _____    ______ ____
ROOT
ATOM      1  N   UNL     1       6.076   5.500  17.447  0.00  0.00    +0.000 N 
ATOM      2  C   UNL     1       5.463   4.452  18.151  0.00  0.00    +0.000 C 
ATOM      3  O   UNL     1       6.002   3.885  19.103  0.00  0.00    +0.000 OA
ENDROOT
BRANCH   1   5
ATOM      4  C   UNL     1       7.695   7.532  17.583  0.00  0.00    +0.000 C 
ATOM      5  C   UNL     1       7.365   6.077  17.890  0.00  0.00    +0.000 C 
ENDBRANCH   1   5
BRANCH   1   6
ATOM      6  C   UNL     1       5.483   5.994  16.191  0.00  0.00    +0.000 C 
BRANCH   6   7
ATOM      7  C   UNL     1       5.887   5.271  14.957  0.00  0.00    +0.000 A 
ATOM      8  C   UNL     1       7.173   5.233  14.369  0.00  0.00    +0.000 A 
ATOM      9  N   UNL     1       7.224   4.442  13.297  0.00  0.00    +0.000 NA
ATOM     10  N   UNL     1       5.974   3.960  13.198  0.00  0.00    +0.000 N 
ATOM     11  C   UNL     1       5.112   4.503  14.109  0.00  0.00    +0.000 A 
BRANCH  10  12
ATOM     12  C   UNL     1       5.692   2.852  12.305  0.00  0.00    +0.000 C 
ATOM     13  C   UNL     1       4.472   3.153  11.447  0.00  0.00    +0.000 C 
ENDBRANCH  10  12
ENDBRANCH   6   7
ENDBRANCH   1   6
BRANCH   2  14
ATOM     14  C   UNL     1       4.078   3.936  17.692  0.00  0.00    +0.000 C 
BRANCH  14  15
ATOM     15  N   UNL     1       3.034   3.984  18.720  0.00  0.00    +0.000 N 
ATOM     16  C   UNL     1       2.453   2.761  19.070  0.00  0.00    +0.000 C 
ATOM     17  O   UNL     1       2.811   1.680  18.602  0.00  0.00    +0.000 OA
ATOM     18  C   UNL     1       1.252   2.811  19.981  0.00  0.00    +0.000 C 
ATOM     19  C   UNL     1       1.422   3.868  21.045  0.00  0.00    +0.000 C 
ATOM     20  C   UNL     1       1.722   5.182  20.392  0.00  0.00    +0.000 A 
ATOM     21  C   UNL     1       1.261   6.374  20.978  0.00  0.00    +0.000 A 
ATOM     22  C   UNL     1       1.565   7.600  20.402  0.00  0.00    +0.000 A 
ATOM     23  C   UNL     1       2.323   7.647  19.241  0.00  0.00    +0.000 A 
ATOM     24  C   UNL     1       2.797   6.465  18.657  0.00  0.00    +0.000 A 
ATOM     25  C   UNL     1       2.518   5.219  19.229  0.00  0.00    +0.000 A 
ENDBRANCH  14  15
ENDBRANCH   2  14
TORSDOF 6
ENDMDL
MODEL 2
REMARK VINA RESULT:      -7.5      1.556      3.988
REMARK  Name = 
REMARK  8 active torsions:
REMARK  status: ('A' for Active; 'I' for Inactive)
REMARK    1  A    between atoms: C_1  and  C_2
REMARK    2  A    between atoms: C_2  and  N_3
REMARK    3  A    between atoms: N_3  and  C_4
REMARK    4  A    between atoms: C_4  and  C_5
REMARK    5  A    between atoms: N_8  and  C_9
REMARK    6  A    between atoms: C_9  and  C_10
REMARK    7  A    between atoms: C_12  and  C_14
REMARK    8  A    between atoms: C_14  and  N_15
REMARK                            x       y       z     vdW  Elec       q    Type
REMARK                         _______ _______ _______ _____ _____    ______ ____
ROOT
ATOM      1  N   UNL     1       5.759   4.296  15.955  0.00  0.00    +0.000 N 
ATOM      2  C   UNL     1       4.626   3.994  16.727  0.00  0.00    +0.000 C 
ATOM      3  O   UNL     1       3.478   4.087  16.288  0.00  0.00    +0.000 OA
ENDROOT
BRANCH   1   5
ATOM      4  C   UNL     1       6.182   3.654  13.470  0.00  0.00    +0.000 C 
ATOM      5  C   UNL     1       5.648   4.623  14.516  0.00  0.00    +0.000 C 
ENDBRANCH   1   5
BRANCH   1   6
ATOM      6  C   UNL     1       7.087   4.376  16.590  0.00  0.00    +0.000 C 
BRANCH   6   7
ATOM      7  C   UNL     1       7.385   5.641  17.310  0.00  0.00    +0.000 A 
ATOM      8  C   UNL     1       7.931   5.780  18.608  0.00  0.00    +0.000 A 
ATOM      9  N   UNL     1       8.137   7.053  18.945  0.00  0.00    +0.000 NA
ATOM     10  N   UNL     1       7.735   7.737  17.861  0.00  0.00    +0.000 N 
ATOM     11  C   UNL     1       7.184   6.943  16.894  0.00  0.00    +0.000 A 
BRANCH  10  12
ATOM     12  C   UNL     1       8.048   9.148  17.736  0.00  0.00    +0.000 C 
ATOM     13  C   UNL     1       8.943   9.602  18.880  0.00  0.00    +0.000 C 
ENDBRANCH  10  12
ENDBRANCH   6   7
ENDBRANCH   1   6
BRANCH   2  14
ATOM     14  C   UNL     1       4.803   3.583  18.208  0.00  0.00    +0.000 C 
BRANCH  14  15
ATOM     15  N   UNL     1       3.563   3.559  18.990  0.00  0.00    +0.000 N 
ATOM     16  C   UNL     1       2.953   2.309  19.145  0.00  0.00    +0.000 C 
ATOM     17  O   UNL     1       3.430   1.261  18.711  0.00  0.00    +0.000 OA
ATOM     18  C   UNL     1       1.585   2.292  19.780  0.00  0.00    +0.000 C 
ATOM     19  C   UNL     1       1.497   3.291  20.908  0.00  0.00    +0.000 C 
ATOM     20  C   UNL     1       1.895   4.643  20.402  0.00  0.00    +0.000 A 
ATOM     21  C   UNL     1       1.289   5.794  20.936  0.00  0.00    +0.000 A 
ATOM     22  C   UNL     1       1.676   7.054  20.502  0.00  0.00    +0.000 A 
ATOM     23  C   UNL     1       2.663   7.177  19.533  0.00  0.00    +0.000 A 
ATOM     24  C   UNL     1       3.280   6.036  19.005  0.00  0.00    +0.000 A 
ATOM     25  C   UNL     1       2.918   4.756  19.440  0.00  0.00    +0.000 A 
ENDBRANCH  14  15
ENDBRANCH   2  14
TORSDOF 6
ENDMDL
MODEL 3
REMARK VINA RESULT:      -7.2      2.190      4.292
REMARK  Name = 
REMARK  8 active torsions:
REMARK  status: ('A' for Active; 'I' for Inactive)
REMARK    1  A    between atoms: C_1  and  C_2
REMARK    2  A    between atoms: C_2  and  N_3
REMARK    3  A    between atoms: N_3  and  C_4
REMARK    4  A    between atoms: C_4  and  C_5
REMARK    5  A    between atoms: N_8  and  C_9
REMARK    6  A    between atoms: C_9  and  C_10
REMARK    7  A    between atoms: C_12  and  C_14
REMARK    8  A    between atoms: C_14  and  N_15
REMARK                            x       y       z     vdW  Elec       q    Type
REMARK                         _______ _______ _______ _____ _____    ______ ____
ROOT
ATOM      1  N   UNL     1       3.497   4.133  18.619  0.00  0.00    +0.000 N 
ATOM      2  C   UNL     1       2.507   5.042  19.025  0.00  0.00    +0.000 C 
ATOM      3  O   UNL     1       1.316   4.898  18.740  0.00  0.00    +0.000 OA
ENDROOT
BRANCH   1   5
ATOM      4  C   UNL     1       3.495   1.532  18.566  0.00  0.00    +0.000 C 
ATOM      5  C   UNL     1       3.151   2.872  17.928  0.00  0.00    +0.000 C 
ENDBRANCH   1   5
BRANCH   1   6
ATOM      6  C   UNL     1       4.923   4.463  18.801  0.00  0.00    +0.000 C 
BRANCH   6   7
ATOM      7  C   UNL     1       5.729   4.558  17.557  0.00  0.00    +0.000 A 
ATOM      8  C   UNL     1       7.137   4.644  17.453  0.00  0.00    +0.000 A 
ATOM      9  N   UNL     1       7.560   4.653  16.188  0.00  0.00    +0.000 NA
ATOM     10  N   UNL     1       6.425   4.562  15.474  0.00  0.00    +0.000 N 
ATOM     11  C   UNL     1       5.298   4.602  16.244  0.00  0.00    +0.000 A 
BRANCH  10  12
ATOM     12  C   UNL     1       6.484   4.277  14.053  0.00  0.00    +0.000 C 
ATOM     13  C   UNL     1       7.605   5.068  13.394  0.00  0.00    +0.000 C 
ENDBRANCH  10  12
ENDBRANCH   6   7
ENDBRANCH   1   6
BRANCH   2  14
ATOM     14  C   UNL     1       2.916   6.309  19.812  0.00  0.00    +0.000 C 
BRANCH  14  15
ATOM     15  N   UNL     1       2.314   7.555  19.325  0.00  0.00    +0.000 N 
ATOM     16  C   UNL     1       2.742   7.998  18.069  0.00  0.00    +0.000 C 
ATOM     17  O   UNL     1       3.534   7.376  17.362  0.00  0.00    +0.000 OA
ATOM     18  C   UNL     1       2.282   9.368  17.635  0.00  0.00    +0.000 C 
ATOM     19  C   UNL     1       0.851   9.615  18.048  0.00  0.00    +0.000 C 
ATOM     20  C   UNL     1       0.715   9.386  19.522  0.00  0.00    +0.000 A 
ATOM     21  C   UNL     1      -0.200  10.152  20.265  0.00  0.00    +0.000 A 
ATOM     22  C   UNL     1      -0.362   9.923  21.624  0.00  0.00    +0.000 A 
ATOM     23  C   UNL     1       0.387   8.938  22.252  0.00  0.00    +0.000 A 
ATOM     24  C   UNL     1       1.292   8.162  21.516  0.00  0.00    +0.000 A 
ATOM     25  C   UNL     1       1.459   8.363  20.142  0.00  0.00    +0.000 A 
ENDBRANCH  14  15
ENDBRANCH   2  14
TORSDOF 6
ENDMDL
MODEL 4
REMARK VINA RESULT:      -7.1      2.740      5.370
REMARK  Name = 
REMARK  8 active torsions:
REMARK  status: ('A' for Active; 'I' for Inactive)
REMARK    1  A    between atoms: C_1  and  C_2
REMARK    2  A    between atoms: C_2  and  N_3
REMARK    3  A    between atoms: N_3  and  C_4
REMARK    4  A    between atoms: C_4  and  C_5
REMARK    5  A    between atoms: N_8  and  C_9
REMARK    6  A    between atoms: C_9  and  C_10
REMARK    7  A    between atoms: C_12  and  C_14
REMARK    8  A    between atoms: C_14  and  N_15
REMARK                            x       y       z     vdW  Elec       q    Type
REMARK                         _______ _______ _______ _____ _____    ______ ____
ROOT
ATOM      1  N   UNL     1       2.065   4.968  18.908  0.00  0.00    +0.000 N 
ATOM      2  C   UNL     1       1.928   5.915  19.935  0.00  0.00    +0.000 C 
ATOM      3  O   UNL     1       1.244   5.712  20.940  0.00  0.00    +0.000 OA
ENDROOT
BRANCH   1   5
ATOM      4  C   UNL     1       2.266   2.522  19.769  0.00  0.00    +0.000 C 
ATOM      5  C   UNL     1       1.495   3.608  19.031  0.00  0.00    +0.000 C 
ENDBRANCH   1   5
BRANCH   1   6
ATOM      6  C   UNL     1       2.715   5.342  17.638  0.00  0.00    +0.000 C 
BRANCH   6   7
ATOM      7  C   UNL     1       4.113   4.870  17.463  0.00  0.00    +0.000 A 
ATOM      8  C   UNL     1       4.631   4.109  16.389  0.00  0.00    +0.000 A 
ATOM      9  N   UNL     1       5.944   3.898  16.495  0.00  0.00    +0.000 NA
ATOM     10  N   UNL     1       6.276   4.534  17.631  0.00  0.00    +0.000 N 
ATOM     11  C   UNL     1       5.199   5.047  18.298  0.00  0.00    +0.000 A 
BRANCH  10  12
ATOM     12  C   UNL     1       7.672   4.759  17.955  0.00  0.00    +0.000 C 
ATOM     13  C   UNL     1       7.806   5.800  19.057  0.00  0.00    +0.000 C 
ENDBRANCH  10  12
ENDBRANCH   6   7
ENDBRANCH   1   6
BRANCH   2  14
ATOM     14  C   UNL     1       2.609   7.297  19.789  0.00  0.00    +0.000 C 
BRANCH  14  15
ATOM     15  N   UNL     1       1.685   8.418  19.587  0.00  0.00    +0.000 N 
ATOM     16  C   UNL     1       1.622   8.941  18.291  0.00  0.00    +0.000 C 
ATOM     17  O   UNL     1       2.249   8.478  17.339  0.00  0.00    +0.000 OA
ATOM     18  C   UNL     1       0.825  10.209  18.105  0.00  0.00    +0.000 C 
ATOM     19  C   UNL     1      -0.427  10.191  18.947  0.00  0.00    +0.000 C 
ATOM     20  C   UNL     1      -0.060   9.929  20.375  0.00  0.00    +0.000 A 
ATOM     21  C   UNL     1      -0.816  10.511  21.407  0.00  0.00    +0.000 A 
ATOM     22  C   UNL     1      -0.508  10.247  22.734  0.00  0.00    +0.000 A 
ATOM     23  C   UNL     1       0.554   9.407  23.042  0.00  0.00    +0.000 A 
ATOM     24  C   UNL     1       1.304   8.813  22.019  0.00  0.00    +0.000 A 
ATOM     25  C   UNL     1       1.001   9.052  20.674  0.00  0.00    +0.000 A 
ENDBRANCH  14  15
ENDBRANCH   2  14
TORSDOF 6
ENDMDL
MODEL 5
REMARK VINA RESULT:      -7.0      0.940      1.064
REMARK  Name = 
REMARK  8 active torsions:
REMARK  status: ('A' for Active; 'I' for Inactive)
REMARK    1  A    between atoms: C_1  and  C_2
REMARK    2  A    between atoms: C_2  and  N_3
REMARK    3  A    between atoms: N_3  and  C_4
REMARK    4  A    between atoms: C_4  and  C_5
REMARK    5  A    between atoms: N_8  and  C_9
REMARK    6  A    between atoms: C_9  and  C_10
REMARK    7  A    between atoms: C_12  and  C_14
REMARK    8  A    between atoms: C_14  and  N_15
REMARK                            x       y       z     vdW  Elec       q    Type
REMARK                         _______ _______ _______ _____ _____    ______ ____
ROOT
ATOM      1  N   UNL     1       5.756   4.515  16.611  0.00  0.00    +0.000 N 
ATOM      2  C   UNL     1       4.973   3.848  17.567  0.00  0.00    +0.000 C 
ATOM      3  O   UNL     1       5.452   3.343  18.584  0.00  0.00    +0.000 OA
ENDROOT
BRANCH   1   5
ATOM      4  C   UNL     1       7.649   5.657  17.981  0.00  0.00    +0.000 C 
ATOM      5  C   UNL     1       7.197   4.764  16.833  0.00  0.00    +0.000 C 
ENDBRANCH   1   5
BRANCH   1   6
ATOM      6  C   UNL     1       5.168   4.908  15.318  0.00  0.00    +0.000 C 
BRANCH   6   7
ATOM      7  C   UNL     1       5.941   4.518  14.110  0.00  0.00    +0.000 A 
ATOM      8  C   UNL     1       7.128   5.114  13.624  0.00  0.00    +0.000 A 
ATOM      9  N   UNL     1       7.613   4.491  12.549  0.00  0.00    +0.000 NA
ATOM     10  N   UNL     1       6.745   3.485  12.348  0.00  0.00    +0.000 N 
ATOM     11  C   UNL     1       5.674   3.518  13.195  0.00  0.00    +0.000 A 
BRANCH  10  12
ATOM     12  C   UNL     1       7.075   2.418  11.422  0.00  0.00    +0.000 C 
ATOM     13  C   UNL     1       5.866   1.526  11.180  0.00  0.00    +0.000 C 
ENDBRANCH  10  12
ENDBRANCH   6   7
ENDBRANCH   1   6
BRANCH   2  14
ATOM     14  C   UNL     1       3.454   3.680  17.322  0.00  0.00    +0.000 C 
BRANCH  14  15
ATOM     15  N   UNL     1       2.615   3.897  18.504  0.00  0.00    +0.000 N 
ATOM     16  C   UNL     1       1.996   2.763  19.041  0.00  0.00    +0.000 C 
ATOM     17  O   UNL     1       2.168   1.625  18.605  0.00  0.00    +0.000 OA
ATOM     18  C   UNL     1       0.983   2.991  20.135  0.00  0.00    +0.000 C 
ATOM     19  C   UNL     1       1.431   4.088  21.069  0.00  0.00    +0.000 C 
ATOM     20  C   UNL     1       1.730   5.323  20.276  0.00  0.00    +0.000 A 
ATOM     21  C   UNL     1       1.489   6.588  20.837  0.00  0.00    +0.000 A 
ATOM     22  C   UNL     1       1.796   7.739  20.125  0.00  0.00    +0.000 A 
ATOM     23  C   UNL     1       2.340   7.639  18.853  0.00  0.00    +0.000 A 
ATOM     24  C   UNL     1       2.596   6.381  18.291  0.00  0.00    +0.000 A 
ATOM     25  C   UNL     1       2.310   5.207  18.996  0.00  0.00    +0.000 A 
ENDBRANCH  14  15
ENDBRANCH   2  14
TORSDOF 6
ENDMDL
MODEL 6
REMARK VINA RESULT:      -7.0      2.496      5.072
REMARK  Name = 
REMARK  8 active torsions:
REMARK  status: ('A' for Active; 'I' for Inactive)
REMARK    1  A    between atoms: C_1  and  C_2
REMARK    2  A    between atoms: C_2  and  N_3
REMARK    3  A    between atoms: N_3  and  C_4
REMARK    4  A    between atoms: C_4  and  C_5
REMARK    5  A    between atoms: N_8  and  C_9
REMARK    6  A    between atoms: C_9  and  C_10
REMARK    7  A    between atoms: C_12  and  C_14
REMARK    8  A    between atoms: C_14  and  N_15
REMARK                            x       y       z     vdW  Elec       q    Type
REMARK                         _______ _______ _______ _____ _____    ______ ____
ROOT
ATOM      1  N   UNL     1       2.495   3.713  20.061  0.00  0.00    +0.000 N 
ATOM      2  C   UNL     1       1.888   4.978  20.103  0.00  0.00    +0.000 C 
ATOM      3  O   UNL     1       0.673   5.137  19.971  0.00  0.00    +0.000 OA
ENDROOT
BRANCH   1   5
ATOM      4  C   UNL     1       0.876   2.169  18.735  0.00  0.00    +0.000 C 
ATOM      5  C   UNL     1       1.692   2.473  19.984  0.00  0.00    +0.000 C 
ENDBRANCH   1   5
BRANCH   1   6
ATOM      6  C   UNL     1       3.964   3.599  20.008  0.00  0.00    +0.000 C 
BRANCH   6   7
ATOM      7  C   UNL     1       4.587   3.875  18.688  0.00  0.00    +0.000 A 
ATOM      8  C   UNL     1       4.085   3.520  17.413  0.00  0.00    +0.000 A 
ATOM      9  N   UNL     1       4.849   3.967  16.416  0.00  0.00    +0.000 NA
ATOM     10  N   UNL     1       5.841   4.621  17.046  0.00  0.00    +0.000 N 
ATOM     11  C   UNL     1       5.782   4.509  18.407  0.00  0.00    +0.000 A 
BRANCH  10  12
ATOM     12  C   UNL     1       6.739   5.476  16.293  0.00  0.00    +0.000 C 
ATOM     13  C   UNL     1       7.274   6.597  17.173  0.00  0.00    +0.000 C 
ENDBRANCH  10  12
ENDBRANCH   6   7
ENDBRANCH   1   6
BRANCH   2  14
ATOM     14  C   UNL     1       2.771   6.239  20.261  0.00  0.00    +0.000 C 
BRANCH  14  15
ATOM     15  N   UNL     1       2.229   7.449  19.634  0.00  0.00    +0.000 N 
ATOM     16  C   UNL     1       2.648   7.708  18.324  0.00  0.00    +0.000 C 
ATOM     17  O   UNL     1       3.384   6.957  17.685  0.00  0.00    +0.000 OA
ATOM     18  C   UNL     1       2.256   9.039  17.732  0.00  0.00    +0.000 C 
ATOM     19  C   UNL     1       0.853   9.421  18.138  0.00  0.00    +0.000 C 
ATOM     20  C   UNL     1       0.743   9.384  19.632  0.00  0.00    +0.000 A 
ATOM     21  C   UNL     1      -0.106  10.289  20.291  0.00  0.00    +0.000 A 
ATOM     22  C   UNL     1      -0.245  10.240  21.671  0.00  0.00    +0.000 A 
ATOM     23  C   UNL     1       0.463   9.296  22.402  0.00  0.00    +0.000 A 
ATOM     24  C   UNL     1       1.302   8.382  21.751  0.00  0.00    +0.000 A 
ATOM     25  C   UNL     1       1.444   8.402  20.360  0.00  0.00    +0.000 A 
ENDBRANCH  14  15
ENDBRANCH   2  14
TORSDOF 6
ENDMDL
MODEL 7
REMARK VINA RESULT:      -7.0      2.713      5.190
REMARK  Name = 
REMARK  8 active torsions:
REMARK  status: ('A' for Active; 'I' for Inactive)
REMARK    1  A    between atoms: C_1  and  C_2
REMARK    2  A    between atoms: C_2  and  N_3
REMARK    3  A    between atoms: N_3  and  C_4
REMARK    4  A    between atoms: C_4  and  C_5
REMARK    5  A    between atoms: N_8  and  C_9
REMARK    6  A    between atoms: C_9  and  C_10
REMARK    7  A    between atoms: C_12  and  C_14
REMARK    8  A    between atoms: C_14  and  N_15
REMARK                            x       y       z     vdW  Elec       q    Type
REMARK                         _______ _______ _______ _____ _____    ______ ____
ROOT
ATOM      1  N   UNL     1       1.930   4.869  19.051  0.00  0.00    +0.000 N 
ATOM      2  C   UNL     1       1.844   5.880  20.022  0.00  0.00    +0.000 C 
ATOM      3  O   UNL     1       1.154   5.770  21.037  0.00  0.00    +0.000 OA
ENDROOT
BRANCH   1   5
ATOM      4  C   UNL     1       1.997   2.480  20.076  0.00  0.00    +0.000 C 
ATOM      5  C   UNL     1       1.292   3.550  19.252  0.00  0.00    +0.000 C 
ENDBRANCH   1   5
BRANCH   1   6
ATOM      6  C   UNL     1       2.593   5.137  17.762  0.00  0.00    +0.000 C 
BRANCH   6   7
ATOM      7  C   UNL     1       4.065   4.935  17.738  0.00  0.00    +0.000 A 
ATOM      8  C   UNL     1       4.882   4.465  18.793  0.00  0.00    +0.000 A 
ATOM      9  N   UNL     1       6.160   4.335  18.434  0.00  0.00    +0.000 NA
ATOM     10  N   UNL     1       6.167   4.710  17.144  0.00  0.00    +0.000 N 
ATOM     11  C   UNL     1       4.957   5.172  16.709  0.00  0.00    +0.000 A 
BRANCH  10  12
ATOM     12  C   UNL     1       7.334   4.456  16.321  0.00  0.00    +0.000 C 
ATOM     13  C   UNL     1       7.046   4.790  14.864  0.00  0.00    +0.000 C 
ENDBRANCH  10  12
ENDBRANCH   6   7
ENDBRANCH   1   6
BRANCH   2  14
ATOM     14  C   UNL     1       2.594   7.215  19.797  0.00  0.00    +0.000 C 
BRANCH  14  15
ATOM     15  N   UNL     1       1.726   8.372  19.553  0.00  0.00    +0.000 N 
ATOM     16  C   UNL     1       1.738   8.891  18.254  0.00  0.00    +0.000 C 
ATOM     17  O   UNL     1       2.385   8.398  17.330  0.00  0.00    +0.000 OA
ATOM     18  C   UNL     1       1.003  10.189  18.031  0.00  0.00    +0.000 C 
ATOM     19  C   UNL     1      -0.283  10.227  18.820  0.00  0.00    +0.000 C 
ATOM     20  C   UNL     1       0.013   9.958  20.263  0.00  0.00    +0.000 A 
ATOM     21  C   UNL     1      -0.759  10.575  21.261  0.00  0.00    +0.000 A 
ATOM     22  C   UNL     1      -0.518  10.304  22.600  0.00  0.00    +0.000 A 
ATOM     23  C   UNL     1       0.494   9.423  22.955  0.00  0.00    +0.000 A 
ATOM     24  C   UNL     1       1.261   8.794  21.965  0.00  0.00    +0.000 A 
ATOM     25  C   UNL     1       1.024   9.039  20.608  0.00  0.00    +0.000 A 
ENDBRANCH  14  15
ENDBRANCH   2  14
TORSDOF 6
ENDMDL
MODEL 8
REMARK VINA RESULT:      -7.0      1.023      1.461
REMARK  Name = 
REMARK  8 active torsions:
REMARK  status: ('A' for Active; 'I' for Inactive)
REMARK    1  A    between atoms: C_1  and  C_2
REMARK    2  A    between atoms: C_2  and  N_3
REMARK    3  A    between atoms: N_3  and  C_4
REMARK    4  A    between atoms: C_4  and  C_5
REMARK    5  A    between atoms: N_8  and  C_9
REMARK    6  A    between atoms: C_9  and  C_10
REMARK    7  A    between atoms: C_12  and  C_14
REMARK    8  A    between atoms: C_14  and  N_15
REMARK                            x       y       z     vdW  Elec       q    Type
REMARK                         _______ _______ _______ _____ _____    ______ ____
ROOT
ATOM      1  N   UNL     1       6.231   5.191  17.520  0.00  0.00    +0.000 N 
ATOM      2  C   UNL     1       5.365   4.358  18.245  0.00  0.00    +0.000 C 
ATOM      3  O   UNL     1       5.747   3.661  19.188  0.00  0.00    +0.000 OA
ENDROOT
BRANCH   1   5
ATOM      4  C   UNL     1       8.063   6.661  18.637  0.00  0.00    +0.000 C 
ATOM      5  C   UNL     1       7.640   5.382  17.927  0.00  0.00    +0.000 C 
ENDBRANCH   1   5
BRANCH   1   6
ATOM      6  C   UNL     1       5.769   5.833  16.276  0.00  0.00    +0.000 C 
BRANCH   6   7
ATOM      7  C   UNL     1       5.905   5.021  15.039  0.00  0.00    +0.000 A 
ATOM      8  C   UNL     1       4.906   4.239  14.414  0.00  0.00    +0.000 A 
ATOM      9  N   UNL     1       5.326   3.677  13.280  0.00  0.00    +0.000 NA
ATOM     10  N   UNL     1       6.595   4.106  13.166  0.00  0.00    +0.000 N 
ATOM     11  C   UNL     1       7.019   4.831  14.244  0.00  0.00    +0.000 A 
BRANCH  10  12
ATOM     12  C   UNL     1       7.313   3.921  11.920  0.00  0.00    +0.000 C 
ATOM     13  C   UNL     1       7.115   2.508  11.390  0.00  0.00    +0.000 C 
ENDBRANCH  10  12
ENDBRANCH   6   7
ENDBRANCH   1   6
BRANCH   2  14
ATOM     14  C   UNL     1       3.880   4.253  17.823  0.00  0.00    +0.000 C 
BRANCH  14  15
ATOM     15  N   UNL     1       2.926   4.788  18.800  0.00  0.00    +0.000 N 
ATOM     16  C   UNL     1       2.277   3.850  19.609  0.00  0.00    +0.000 C 
ATOM     17  O   UNL     1       2.510   2.642  19.571  0.00  0.00    +0.000 OA
ATOM     18  C   UNL     1       1.159   4.360  20.484  0.00  0.00    +0.000 C 
ATOM     19  C   UNL     1       1.495   5.713  21.061  0.00  0.00    +0.000 C 
ATOM     20  C   UNL     1       1.849   6.652  19.949  0.00  0.00    +0.000 A 
ATOM     21  C   UNL     1       1.532   8.016  20.060  0.00  0.00    +0.000 A 
ATOM     22  C   UNL     1       1.888   8.901  19.052  0.00  0.00    +0.000 A 
ATOM     23  C   UNL     1       2.555   8.435  17.928  0.00  0.00    +0.000 A 
ATOM     24  C   UNL     1       2.886   7.078  17.815  0.00  0.00    +0.000 A 
ATOM     25  C   UNL     1       2.552   6.171  18.826  0.00  0.00    +0.000 A 
ENDBRANCH  14  15
ENDBRANCH   2  14
TORSDOF 6
ENDMDL
MODEL 9
REMARK VINA RESULT:      -6.8      2.305      4.839
REMARK  Name = 
REMARK  8 active torsions:
REMARK  status: ('A' for Active; 'I' for Inactive)
REMARK    1  A    between atoms: C_1  and  C_2
REMARK    2  A    between atoms: C_2  and  N_3
REMARK    3  A    between atoms: N_3  and  C_4
REMARK    4  A    between atoms: C_4  and  C_5
REMARK    5  A    between atoms: N_8  and  C_9
REMARK    6  A    between atoms: C_9  and  C_10
REMARK    7  A    between atoms: C_12  and  C_14
REMARK    8  A    between atoms: C_14  and  N_15
REMARK                            x       y       z     vdW  Elec       q    Type
REMARK                         _______ _______ _______ _____ _____    ______ ____
ROOT
ATOM      1  N   UNL     1       2.589   3.779  20.047  0.00  0.00    +0.000 N 
ATOM      2  C   UNL     1       1.946   5.027  20.042  0.00  0.00    +0.000 C 
ATOM      3  O   UNL     1       0.736   5.151  19.846  0.00  0.00    +0.000 OA
ENDROOT
BRANCH   1   5
ATOM      4  C   UNL     1       1.213   2.104  18.609  0.00  0.00    +0.000 C 
ATOM      5  C   UNL     1       1.824   2.517  19.941  0.00  0.00    +0.000 C 
ENDBRANCH   1   5
BRANCH   1   6
ATOM      6  C   UNL     1       4.061   3.705  20.072  0.00  0.00    +0.000 C 
BRANCH   6   7
ATOM      7  C   UNL     1       4.749   4.070  18.807  0.00  0.00    +0.000 A 
ATOM      8  C   UNL     1       5.907   4.870  18.661  0.00  0.00    +0.000 A 
ATOM      9  N   UNL     1       6.314   4.959  17.395  0.00  0.00    +0.000 NA
ATOM     10  N   UNL     1       5.425   4.208  16.722  0.00  0.00    +0.000 N 
ATOM     11  C   UNL     1       4.413   3.736  17.508  0.00  0.00    +0.000 A 
BRANCH  10  12
ATOM     12  C   UNL     1       5.683   3.842  15.342  0.00  0.00    +0.000 C 
ATOM     13  C   UNL     1       6.861   4.631  14.789  0.00  0.00    +0.000 C 
ENDBRANCH  10  12
ENDBRANCH   6   7
ENDBRANCH   1   6
BRANCH   2  14
ATOM     14  C   UNL     1       2.785   6.314  20.233  0.00  0.00    +0.000 C 
BRANCH  14  15
ATOM     15  N   UNL     1       2.207   7.518  19.626  0.00  0.00    +0.000 N 
ATOM     16  C   UNL     1       2.605   7.802  18.316  0.00  0.00    +0.000 C 
ATOM     17  O   UNL     1       3.351   7.076  17.659  0.00  0.00    +0.000 OA
ATOM     18  C   UNL     1       2.174   9.129  17.744  0.00  0.00    +0.000 C 
ATOM     19  C   UNL     1       0.767   9.473  18.171  0.00  0.00    +0.000 C 
ATOM     20  C   UNL     1       0.675   9.416  19.664  0.00  0.00    +0.000 A 
ATOM     21  C   UNL     1      -0.188  10.292  20.344  0.00  0.00    +0.000 A 
ATOM     22  C   UNL     1      -0.309  10.224  21.725  0.00  0.00    +0.000 A 
ATOM     23  C   UNL     1       0.429   9.289  22.437  0.00  0.00    +0.000 A 
ATOM     24  C   UNL     1       1.282   8.403  21.766  0.00  0.00    +0.000 A 
ATOM     25  C   UNL     1       1.408   8.443  20.373  0.00  0.00    +0.000 A 
ENDBRANCH  14  15
ENDBRANCH   2  14
TORSDOF 6
ENDMDL
