MODEL 1
REMARK VINA RESULT:      -7.4      0.000      0.000
REMARK  Name = 
REMARK  5 active torsions:
REMARK  status: ('A' for Active; 'I' for Inactive)
REMARK    1  A    between atoms: C_1  and  C_2
REMARK    2  A    between atoms: C_2  and  N_3
REMARK    3  A    between atoms: C_2  and  C_16
REMARK    4  A    between atoms: C_4  and  C_6
REMARK    5  A    between atoms: N_18  and  O_19
REMARK                            x       y       z     vdW  Elec       q    Type
REMARK                         _______ _______ _______ _____ _____    ______ ____
ROOT
ATOM      1  N   UNL     1       3.660   4.266  17.982  0.00  0.00    +0.000 N 
ATOM      2  C   UNL     1       4.187   5.428  17.500  0.00  0.00    +0.000 C 
ATOM      3  O   UNL     1       4.070   6.473  18.124  0.00  0.00    +0.000 OA
ATOM      4  H   UNL     1       3.757   3.407  17.419  0.00  0.00    +0.000 HD
ENDROOT
BRANCH   2   5
ATOM      5  C   UNL     1       4.933   5.434  16.188  0.00  0.00    +0.000 C 
ATOM      6  C   UNL     1       5.152   3.984  15.685  0.00  0.00    +0.000 C 
ATOM      7  C   UNL     1       5.915   4.088  14.398  0.00  0.00    +0.000 A 
ATOM      8  C   UNL     1       5.507   3.456  13.216  0.00  0.00    +0.000 A 
ATOM      9  C   UNL     1       6.240   3.646  12.041  0.00  0.00    +0.000 A 
ATOM     10  C   UNL     1       7.369   4.474  12.043  0.00  0.00    +0.000 A 
ATOM     11  C   UNL     1       7.771   5.116  13.222  0.00  0.00    +0.000 A 
ATOM     12  C   UNL     1       7.044   4.913  14.403  0.00  0.00    +0.000 A 
ATOM     13  C   UNL     1       7.398   5.569  15.712  0.00  0.00    +0.000 C 
ATOM     14  N   UNL     1       6.209   6.191  16.339  0.00  0.00    +0.000 NA
ATOM     15  H   UNL     1       6.077   7.162  15.963  0.00  0.00    +0.000 HD
ENDBRANCH   2   5
BRANCH   1  17
ATOM     16  C   UNL     1       1.490   3.893  19.038  0.00  0.00    +0.000 C 
ATOM     17  C   UNL     1       2.979   4.160  19.262  0.00  0.00    +0.000 C 
BRANCH  17  18
ATOM     18  C   UNL     1       3.607   3.036  20.053  0.00  0.00    +0.000 C 
ATOM     19  O   UNL     1       3.018   2.586  21.027  0.00  0.00    +0.000 OA
ATOM     20  N   UNL     1       4.802   2.507  19.687  0.00  0.00    +0.000 N 
ATOM     21  H   UNL     1       5.311   2.878  18.870  0.00  0.00    +0.000 HD
BRANCH  20  22
ATOM     22  O   UNL     1       5.329   1.475  20.367  0.00  0.00    +0.000 OA
ATOM     23  H   UNL     1       5.772   0.905  19.685  0.00  0.00    +0.000 HD
ENDBRANCH  20  22
ENDBRANCH  17  18
ENDBRANCH   1  17
TORSDOF 4
ENDMDL
MODEL 2
REMARK VINA RESULT:      -7.3      3.434      6.521
REMARK  Name = 
REMARK  5 active torsions:
REMARK  status: ('A' for Active; 'I' for Inactive)
REMARK    1  A    between atoms: C_1  and  C_2
REMARK    2  A    between atoms: C_2  and  N_3
REMARK    3  A    between atoms: C_2  and  C_16
REMARK    4  A    between atoms: C_4  and  C_6
REMARK    5  A    between atoms: N_18  and  O_19
REMARK                            x       y       z     vdW  Elec       q    Type
REMARK                         _______ _______ _______ _____ _____    ______ ____
ROOT
ATOM      1  N   UNL     1       4.542   5.033  16.453  0.00  0.00    +0.000 N 
ATOM      2  C   UNL     1       3.696   4.721  17.475  0.00  0.00    +0.000 C 
ATOM      3  O   UNL     1       3.690   3.597  17.960  0.00  0.00    +0.000 OA
ATOM      4  H   UNL     1       4.505   5.983  16.051  0.00  0.00    +0.000 HD
ENDROOT
BRANCH   2   5
ATOM      5  C   UNL     1       2.758   5.765  18.029  0.00  0.00    +0.000 C 
ATOM      6  C   UNL     1       3.382   7.178  17.890  0.00  0.00    +0.000 C 
ATOM      7  C   UNL     1       2.398   8.142  18.483  0.00  0.00    +0.000 A 
ATOM      8  C   UNL     1       1.943   9.282  17.807  0.00  0.00    +0.000 A 
ATOM      9  C   UNL     1       0.982  10.103  18.403  0.00  0.00    +0.000 A 
ATOM     10  C   UNL     1       0.465   9.779  19.663  0.00  0.00    +0.000 A 
ATOM     11  C   UNL     1       0.910   8.633  20.335  0.00  0.00    +0.000 A 
ATOM     12  C   UNL     1       1.885   7.819  19.743  0.00  0.00    +0.000 A 
ATOM     13  C   UNL     1       2.414   6.564  20.388  0.00  0.00    +0.000 C 
ATOM     14  N   UNL     1       2.405   5.428  19.438  0.00  0.00    +0.000 NA
ATOM     15  H   UNL     1       1.466   4.961  19.453  0.00  0.00    +0.000 HD
ENDBRANCH   2   5
BRANCH   1  17
ATOM     16  C   UNL     1       5.640   4.321  14.391  0.00  0.00    +0.000 C 
ATOM     17  C   UNL     1       5.516   4.106  15.900  0.00  0.00    +0.000 C 
BRANCH  17  18
ATOM     18  C   UNL     1       6.845   4.337  16.581  0.00  0.00    +0.000 C 
ATOM     19  O   UNL     1       7.822   4.626  15.905  0.00  0.00    +0.000 OA
ATOM     20  N   UNL     1       6.964   4.246  17.930  0.00  0.00    +0.000 N 
ATOM     21  H   UNL     1       6.149   4.000  18.513  0.00  0.00    +0.000 HD
BRANCH  20  22
ATOM     22  O   UNL     1       8.138   4.501  18.531  0.00  0.00    +0.000 OA
ATOM     23  H   UNL     1       8.269   3.765  19.184  0.00  0.00    +0.000 HD
ENDBRANCH  20  22
ENDBRANCH  17  18
ENDBRANCH   1  17
TORSDOF 4
ENDMDL
MODEL 3
REMARK VINA RESULT:      -7.1      3.244      6.828
REMARK  Name = 
REMARK  5 active torsions:
REMARK  status: ('A' for Active; 'I' for Inactive)
REMARK    1  A    between atoms: C_1  and  C_2
REMARK    2  A    between atoms: C_2  and  N_3
REMARK    3  A    between atoms: C_2  and  C_16
REMARK    4  A    between atoms: C_4  and  C_6
REMARK    5  A    between atoms: N_18  and  O_19
REMARK                            x       y       z     vdW  Elec       q    Type
REMARK                         _______ _______ _______ _____ _____    ______ ____
ROOT
ATOM      1  N   UNL     1       5.066   5.059  15.841  0.00  0.00    +0.000 N 
ATOM      2  C   UNL     1       4.253   4.491  16.776  0.00  0.00    +0.000 C 
ATOM      3  O   UNL     1       4.285   3.286  16.983  0.00  0.00    +0.000 OA
ATOM      4  H   UNL     1       4.997   6.075  15.675  0.00  0.00    +0.000 HD
ENDROOT
BRANCH   2   5
ATOM      5  C   UNL     1       3.305   5.349  17.577  0.00  0.00    +0.000 C 
ATOM      6  C   UNL     1       3.801   6.818  17.607  0.00  0.00    +0.000 C 
ATOM      7  C   UNL     1       2.817   7.586  18.438  0.00  0.00    +0.000 A 
ATOM      8  C   UNL     1       2.207   8.769  18.000  0.00  0.00    +0.000 A 
ATOM      9  C   UNL     1       1.256   9.399  18.809  0.00  0.00    +0.000 A 
ATOM     10  C   UNL     1       0.905   8.842  20.045  0.00  0.00    +0.000 A 
ATOM     11  C   UNL     1       1.507   7.653  20.479  0.00  0.00    +0.000 A 
ATOM     12  C   UNL     1       2.471   7.030  19.674  0.00  0.00    +0.000 A 
ATOM     13  C   UNL     1       3.160   5.746  20.056  0.00  0.00    +0.000 C 
ATOM     14  N   UNL     1       3.133   4.771  18.942  0.00  0.00    +0.000 NA
ATOM     15  H   UNL     1       2.239   4.223  18.971  0.00  0.00    +0.000 HD
ENDBRANCH   2   5
BRANCH   1  17
ATOM     16  C   UNL     1       5.433   3.867  13.741  0.00  0.00    +0.000 C 
ATOM     17  C   UNL     1       6.048   4.315  15.068  0.00  0.00    +0.000 C 
BRANCH  17  18
ATOM     18  C   UNL     1       7.246   5.203  14.825  0.00  0.00    +0.000 C 
ATOM     19  O   UNL     1       7.690   5.876  15.744  0.00  0.00    +0.000 OA
ATOM     20  N   UNL     1       7.846   5.248  13.608  0.00  0.00    +0.000 N 
ATOM     21  H   UNL     1       7.481   4.688  12.823  0.00  0.00    +0.000 HD
BRANCH  20  22
ATOM     22  O   UNL     1       8.941   6.002  13.414  0.00  0.00    +0.000 OA
ATOM     23  H   UNL     1       8.902   6.289  12.464  0.00  0.00    +0.000 HD
ENDBRANCH  20  22
ENDBRANCH  17  18
ENDBRANCH   1  17
TORSDOF 4
ENDMDL
MODEL 4
REMARK VINA RESULT:      -7.0      3.218      6.838
REMARK  Name = 
REMARK  5 active torsions:
REMARK  status: ('A' for Active; 'I' for Inactive)
REMARK    1  A    between atoms: C_1  and  C_2
REMARK    2  A    between atoms: C_2  and  N_3
REMARK    3  A    between atoms: C_2  and  C_16
REMARK    4  A    between atoms: C_4  and  C_6
REMARK    5  A    between atoms: N_18  and  O_19
REMARK                            x       y       z     vdW  Elec       q    Type
REMARK                         _______ _______ _______ _____ _____    ______ ____
ROOT
ATOM      1  N   UNL     1       5.382   3.861  14.770  0.00  0.00    +0.000 N 
ATOM      2  C   UNL     1       4.976   4.611  15.834  0.00  0.00    +0.000 C 
ATOM      3  O   UNL     1       5.119   5.826  15.832  0.00  0.00    +0.000 OA
ATOM      4  H   UNL     1       5.268   2.836  14.813  0.00  0.00    +0.000 HD
ENDROOT
BRANCH   2   5
ATOM      5  C   UNL     1       4.335   3.948  17.028  0.00  0.00    +0.000 C 
ATOM      6  C   UNL     1       3.149   4.801  17.546  0.00  0.00    +0.000 C 
ATOM      7  C   UNL     1       2.592   4.082  18.739  0.00  0.00    +0.000 A 
ATOM      8  C   UNL     1       1.232   3.774  18.877  0.00  0.00    +0.000 A 
ATOM      9  C   UNL     1       0.796   3.051  19.992  0.00  0.00    +0.000 A 
ATOM     10  C   UNL     1       1.717   2.624  20.957  0.00  0.00    +0.000 A 
ATOM     11  C   UNL     1       3.078   2.921  20.812  0.00  0.00    +0.000 A 
ATOM     12  C   UNL     1       3.513   3.660  19.703  0.00  0.00    +0.000 A 
ATOM     13  C   UNL     1       4.956   4.016  19.463  0.00  0.00    +0.000 C 
ATOM     14  N   UNL     1       5.365   3.695  18.076  0.00  0.00    +0.000 NA
ATOM     15  H   UNL     1       5.671   2.693  18.020  0.00  0.00    +0.000 HD
ENDBRANCH   2   5
BRANCH   1  17
ATOM     16  C   UNL     1       7.419   4.793  13.797  0.00  0.00    +0.000 C 
ATOM     17  C   UNL     1       5.954   4.424  13.558  0.00  0.00    +0.000 C 
BRANCH  17  18
ATOM     18  C   UNL     1       5.838   3.405  12.448  0.00  0.00    +0.000 C 
ATOM     19  O   UNL     1       4.799   3.333  11.807  0.00  0.00    +0.000 OA
ATOM     20  N   UNL     1       6.875   2.586  12.141  0.00  0.00    +0.000 N 
ATOM     21  H   UNL     1       7.757   2.634  12.675  0.00  0.00    +0.000 HD
BRANCH  20  22
ATOM     22  O   UNL     1       6.781   1.717  11.121  0.00  0.00    +0.000 OA
ATOM     23  H   UNL     1       7.247   0.895  11.427  0.00  0.00    +0.000 HD
ENDBRANCH  20  22
ENDBRANCH  17  18
ENDBRANCH   1  17
TORSDOF 4
ENDMDL
MODEL 5
REMARK VINA RESULT:      -6.9      3.109      6.663
REMARK  Name = 
REMARK  5 active torsions:
REMARK  status: ('A' for Active; 'I' for Inactive)
REMARK    1  A    between atoms: C_1  and  C_2
REMARK    2  A    between atoms: C_2  and  N_3
REMARK    3  A    between atoms: C_2  and  C_16
REMARK    4  A    between atoms: C_4  and  C_6
REMARK    5  A    between atoms: N_18  and  O_19
REMARK                            x       y       z     vdW  Elec       q    Type
REMARK                         _______ _______ _______ _____ _____    ______ ____
ROOT
ATOM      1  N   UNL     1       5.301   4.415  14.987  0.00  0.00    +0.000 N 
ATOM      2  C   UNL     1       5.104   5.358  15.951  0.00  0.00    +0.000 C 
ATOM      3  O   UNL     1       5.527   6.497  15.808  0.00  0.00    +0.000 OA
ATOM      4  H   UNL     1       4.951   3.458  15.150  0.00  0.00    +0.000 HD
ENDROOT
BRANCH   2   5
ATOM      5  C   UNL     1       4.349   5.008  17.211  0.00  0.00    +0.000 C 
ATOM      6  C   UNL     1       3.209   4.006  16.895  0.00  0.00    +0.000 C 
ATOM      7  C   UNL     1       2.505   3.735  18.191  0.00  0.00    +0.000 A 
ATOM      8  C   UNL     1       2.262   2.442  18.672  0.00  0.00    +0.000 A 
ATOM      9  C   UNL     1       1.650   2.270  19.917  0.00  0.00    +0.000 A 
ATOM     10  C   UNL     1       1.295   3.385  20.686  0.00  0.00    +0.000 A 
ATOM     11  C   UNL     1       1.549   4.679  20.211  0.00  0.00    +0.000 A 
ATOM     12  C   UNL     1       2.148   4.850  18.956  0.00  0.00    +0.000 A 
ATOM     13  C   UNL     1       2.466   6.202  18.371  0.00  0.00    +0.000 C 
ATOM     14  N   UNL     1       3.857   6.254  17.865  0.00  0.00    +0.000 NA
ATOM     15  H   UNL     1       4.509   6.511  18.646  0.00  0.00    +0.000 HD
ENDBRANCH   2   5
BRANCH   1  17
ATOM     16  C   UNL     1       7.479   4.725  13.926  0.00  0.00    +0.000 C 
ATOM     17  C   UNL     1       5.964   4.684  13.721  0.00  0.00    +0.000 C 
BRANCH  17  18
ATOM     18  C   UNL     1       5.591   3.598  12.738  0.00  0.00    +0.000 C 
ATOM     19  O   UNL     1       4.465   3.583  12.260  0.00  0.00    +0.000 OA
ATOM     20  N   UNL     1       6.492   2.653  12.366  0.00  0.00    +0.000 N 
ATOM     21  H   UNL     1       7.444   2.652  12.763  0.00  0.00    +0.000 HD
BRANCH  20  22
ATOM     22  O   UNL     1       6.167   1.721  11.455  0.00  0.00    +0.000 OA
ATOM     23  H   UNL     1       6.918   1.710  10.805  0.00  0.00    +0.000 HD
ENDBRANCH  20  22
ENDBRANCH  17  18
ENDBRANCH   1  17
TORSDOF 4
ENDMDL
MODEL 6
REMARK VINA RESULT:      -6.8      4.715      6.784
REMARK  Name = 
REMARK  5 active torsions:
REMARK  status: ('A' for Active; 'I' for Inactive)
REMARK    1  A    between atoms: C_1  and  C_2
REMARK    2  A    between atoms: C_2  and  N_3
REMARK    3  A    between atoms: C_2  and  C_16
REMARK    4  A    between atoms: C_4  and  C_6
REMARK    5  A    between atoms: N_18  and  O_19
REMARK                            x       y       z     vdW  Elec       q    Type
REMARK                         _______ _______ _______ _____ _____    ______ ____
ROOT
ATOM      1  N   UNL     1       1.329   8.513  20.086  0.00  0.00    +0.000 N 
ATOM      2  C   UNL     1       2.141   7.964  19.139  0.00  0.00    +0.000 C 
ATOM      3  O   UNL     1       2.542   8.631  18.195  0.00  0.00    +0.000 OA
ATOM      4  H   UNL     1       0.990   7.916  20.856  0.00  0.00    +0.000 HD
ENDROOT
BRANCH   2   5
ATOM      5  C   UNL     1       2.564   6.519  19.249  0.00  0.00    +0.000 C 
ATOM      6  C   UNL     1       1.967   5.692  18.081  0.00  0.00    +0.000 C 
ATOM      7  C   UNL     1       2.418   4.276  18.284  0.00  0.00    +0.000 A 
ATOM      8  C   UNL     1       3.043   3.523  17.281  0.00  0.00    +0.000 A 
ATOM      9  C   UNL     1       3.486   2.227  17.564  0.00  0.00    +0.000 A 
ATOM     10  C   UNL     1       3.319   1.691  18.847  0.00  0.00    +0.000 A 
ATOM     11  C   UNL     1       2.705   2.449  19.853  0.00  0.00    +0.000 A 
ATOM     12  C   UNL     1       2.247   3.741  19.565  0.00  0.00    +0.000 A 
ATOM     13  C   UNL     1       1.585   4.629  20.587  0.00  0.00    +0.000 C 
ATOM     14  N   UNL     1       2.183   5.984  20.588  0.00  0.00    +0.000 NA
ATOM     15  H   UNL     1       3.023   6.000  21.214  0.00  0.00    +0.000 HD
ENDBRANCH   2   5
BRANCH   1  17
ATOM     16  C   UNL     1      -0.334  10.086  19.232  0.00  0.00    +0.000 C 
ATOM     17  C   UNL     1       0.922   9.909  20.088  0.00  0.00    +0.000 C 
BRANCH  17  18
ATOM     18  C   UNL     1       0.658  10.335  21.513  0.00  0.00    +0.000 C 
ATOM     19  O   UNL     1       0.489  11.521  21.763  0.00  0.00    +0.000 OA
ATOM     20  N   UNL     1       0.587   9.421  22.514  0.00  0.00    +0.000 N 
ATOM     21  H   UNL     1       0.730   8.418  22.318  0.00  0.00    +0.000 HD
BRANCH  20  22
ATOM     22  O   UNL     1       0.302   9.804  23.769  0.00  0.00    +0.000 OA
ATOM     23  H   UNL     1       1.180   9.902  24.223  0.00  0.00    +0.000 HD
ENDBRANCH  20  22
ENDBRANCH  17  18
ENDBRANCH   1  17
TORSDOF 4
ENDMDL
MODEL 7
REMARK VINA RESULT:      -6.8      4.062      7.016
REMARK  Name = 
REMARK  5 active torsions:
REMARK  status: ('A' for Active; 'I' for Inactive)
REMARK    1  A    between atoms: C_1  and  C_2
REMARK    2  A    between atoms: C_2  and  N_3
REMARK    3  A    between atoms: C_2  and  C_16
REMARK    4  A    between atoms: C_4  and  C_6
REMARK    5  A    between atoms: N_18  and  O_19
REMARK                            x       y       z     vdW  Elec       q    Type
REMARK                         _______ _______ _______ _____ _____    ______ ____
ROOT
ATOM      1  N   UNL     1       4.065   5.511  17.913  0.00  0.00    +0.000 N 
ATOM      2  C   UNL     1       3.340   5.500  19.068  0.00  0.00    +0.000 C 
ATOM      3  O   UNL     1       3.581   4.686  19.949  0.00  0.00    +0.000 OA
ATOM      4  H   UNL     1       3.821   6.195  17.180  0.00  0.00    +0.000 HD
ENDROOT
BRANCH   2   5
ATOM      5  C   UNL     1       2.232   6.502  19.276  0.00  0.00    +0.000 C 
ATOM      6  C   UNL     1       2.612   7.866  18.645  0.00  0.00    +0.000 C 
ATOM      7  C   UNL     1       1.470   8.799  18.919  0.00  0.00    +0.000 A 
ATOM      8  C   UNL     1       0.844   9.553  17.917  0.00  0.00    +0.000 A 
ATOM      9  C   UNL     1      -0.252  10.358  18.241  0.00  0.00    +0.000 A 
ATOM     10  C   UNL     1      -0.730  10.400  19.557  0.00  0.00    +0.000 A 
ATOM     11  C   UNL     1      -0.111   9.637  20.556  0.00  0.00    +0.000 A 
ATOM     12  C   UNL     1       0.997   8.842  20.234  0.00  0.00    +0.000 A 
ATOM     13  C   UNL     1       1.718   7.983  21.241  0.00  0.00    +0.000 C 
ATOM     14  N   UNL     1       1.915   6.607  20.729  0.00  0.00    +0.000 NA
ATOM     15  H   UNL     1       1.067   6.026  20.938  0.00  0.00    +0.000 HD
ENDBRANCH   2   5
BRANCH   1  17
ATOM     16  C   UNL     1       5.374   4.442  16.148  0.00  0.00    +0.000 C 
ATOM     17  C   UNL     1       5.186   4.621  17.656  0.00  0.00    +0.000 C 
BRANCH  17  18
ATOM     18  C   UNL     1       6.428   5.214  18.279  0.00  0.00    +0.000 C 
ATOM     19  O   UNL     1       7.163   5.917  17.599  0.00  0.00    +0.000 OA
ATOM     20  N   UNL     1       6.729   4.994  19.584  0.00  0.00    +0.000 N 
ATOM     21  H   UNL     1       6.120   4.401  20.169  0.00  0.00    +0.000 HD
BRANCH  20  22
ATOM     22  O   UNL     1       7.809   5.565  20.142  0.00  0.00    +0.000 OA
ATOM     23  H   UNL     1       7.865   6.474  19.747  0.00  0.00    +0.000 HD
ENDBRANCH  20  22
ENDBRANCH  17  18
ENDBRANCH   1  17
TORSDOF 4
ENDMDL
MODEL 8
REMARK VINA RESULT:      -6.8      4.242      7.072
REMARK  Name = 
REMARK  5 active torsions:
REMARK  status: ('A' for Active; 'I' for Inactive)
REMARK    1  A    between atoms: C_1  and  C_2
REMARK    2  A    between atoms: C_2  and  N_3
REMARK    3  A    between atoms: C_2  and  C_16
REMARK    4  A    between atoms: C_4  and  C_6
REMARK    5  A    between atoms: N_18  and  O_19
REMARK                            x       y       z     vdW  Elec       q    Type
REMARK                         _______ _______ _______ _____ _____    ______ ____
ROOT
ATOM      1  N   UNL     1       4.811   6.592  18.313  0.00  0.00    +0.000 N 
ATOM      2  C   UNL     1       3.548   6.097  18.184  0.00  0.00    +0.000 C 
ATOM      3  O   UNL     1       3.358   4.983  17.716  0.00  0.00    +0.000 OA
ATOM      4  H   UNL     1       4.934   7.545  18.690  0.00  0.00    +0.000 HD
ENDROOT
BRANCH   2   5
ATOM      5  C   UNL     1       2.362   6.919  18.629  0.00  0.00    +0.000 C 
ATOM      6  C   UNL     1       2.530   8.393  18.178  0.00  0.00    +0.000 C 
ATOM      7  C   UNL     1       1.326   9.134  18.680  0.00  0.00    +0.000 A 
ATOM      8  C   UNL     1       0.526   9.937  17.856  0.00  0.00    +0.000 A 
ATOM      9  C   UNL     1      -0.614  10.551  18.384  0.00  0.00    +0.000 A 
ATOM     10  C   UNL     1      -0.962  10.352  19.726  0.00  0.00    +0.000 A 
ATOM     11  C   UNL     1      -0.169   9.540  20.547  0.00  0.00    +0.000 A 
ATOM     12  C   UNL     1       0.982   8.937  20.021  0.00  0.00    +0.000 A 
ATOM     13  C   UNL     1       1.886   8.041  20.827  0.00  0.00    +0.000 C 
ATOM     14  N   UNL     1       2.181   6.783  20.103  0.00  0.00    +0.000 NA
ATOM     15  H   UNL     1       1.425   6.081  20.291  0.00  0.00    +0.000 HD
ENDBRANCH   2   5
BRANCH   1  17
ATOM     16  C   UNL     1       7.009   6.765  17.262  0.00  0.00    +0.000 C 
ATOM     17  C   UNL     1       6.009   5.845  17.965  0.00  0.00    +0.000 C 
BRANCH  17  18
ATOM     18  C   UNL     1       6.609   5.276  19.230  0.00  0.00    +0.000 C 
ATOM     19  O   UNL     1       6.030   4.370  19.813  0.00  0.00    +0.000 OA
ATOM     20  N   UNL     1       7.789   5.742  19.714  0.00  0.00    +0.000 N 
ATOM     21  H   UNL     1       8.287   6.507  19.234  0.00  0.00    +0.000 HD
BRANCH  20  22
ATOM     22  O   UNL     1       8.340   5.196  20.811  0.00  0.00    +0.000 OA
ATOM     23  H   UNL     1       8.790   5.945  21.284  0.00  0.00    +0.000 HD
ENDBRANCH  20  22
ENDBRANCH  17  18
ENDBRANCH   1  17
TORSDOF 4
ENDMDL
MODEL 9
REMARK VINA RESULT:      -6.7      3.157      6.701
REMARK  Name = 
REMARK  5 active torsions:
REMARK  status: ('A' for Active; 'I' for Inactive)
REMARK    1  A    between atoms: C_1  and  C_2
REMARK    2  A    between atoms: C_2  and  N_3
REMARK    3  A    between atoms: C_2  and  C_16
REMARK    4  A    between atoms: C_4  and  C_6
REMARK    5  A    between atoms: N_18  and  O_19
REMARK                            x       y       z     vdW  Elec       q    Type
REMARK                         _______ _______ _______ _____ _____    ______ ____
ROOT
ATOM      1  N   UNL     1       5.415   4.011  14.079  0.00  0.00    +0.000 N 
ATOM      2  C   UNL     1       5.732   4.022  15.405  0.00  0.00    +0.000 C 
ATOM      3  O   UNL     1       6.804   3.580  15.796  0.00  0.00    +0.000 OA
ATOM      4  H   UNL     1       4.493   4.370  13.787  0.00  0.00    +0.000 HD
ENDROOT
BRANCH   2   5
ATOM      5  C   UNL     1       4.762   4.590  16.412  0.00  0.00    +0.000 C 
ATOM      6  C   UNL     1       5.071   6.087  16.673  0.00  0.00    +0.000 C 
ATOM      7  C   UNL     1       4.079   6.558  17.695  0.00  0.00    +0.000 A 
ATOM      8  C   UNL     1       3.288   7.701  17.520  0.00  0.00    +0.000 A 
ATOM      9  C   UNL     1       2.344   8.045  18.493  0.00  0.00    +0.000 A 
ATOM     10  C   UNL     1       2.181   7.242  19.629  0.00  0.00    +0.000 A 
ATOM     11  C   UNL     1       2.963   6.092  19.798  0.00  0.00    +0.000 A 
ATOM     12  C   UNL     1       3.920   5.756  18.830  0.00  0.00    +0.000 A 
ATOM     13  C   UNL     1       4.797   4.535  18.925  0.00  0.00    +0.000 C 
ATOM     14  N   UNL     1       4.790   3.770  17.657  0.00  0.00    +0.000 NA
ATOM     15  H   UNL     1       3.978   3.106  17.647  0.00  0.00    +0.000 HD
ENDBRANCH   2   5
BRANCH   1  17
ATOM     16  C   UNL     1       5.510   3.123  11.806  0.00  0.00    +0.000 C 
ATOM     17  C   UNL     1       6.314   3.537  13.040  0.00  0.00    +0.000 C 
BRANCH  17  18
ATOM     18  C   UNL     1       7.283   4.644  12.695  0.00  0.00    +0.000 C 
ATOM     19  O   UNL     1       7.329   5.064  11.547  0.00  0.00    +0.000 OA
ATOM     20  N   UNL     1       8.086   5.190  13.643  0.00  0.00    +0.000 N 
ATOM     21  H   UNL     1       8.060   4.844  14.614  0.00  0.00    +0.000 HD
BRANCH  20  22
ATOM     22  O   UNL     1       8.909   6.207  13.338  0.00  0.00    +0.000 OA
ATOM     23  H   UNL     1       9.219   6.031  12.412  0.00  0.00    +0.000 HD
ENDBRANCH  20  22
ENDBRANCH  17  18
ENDBRANCH   1  17
TORSDOF 4
ENDMDL
