MODEL 1
REMARK VINA RESULT:      -9.0      0.000      0.000
REMARK  Name = 
REMARK  4 active torsions:
REMARK  status: ('A' for Active; 'I' for Inactive)
REMARK    1  A    between atoms: C_2  and  O_3
REMARK    2  A    between atoms: C_2  and  C_12
REMARK    3  A    between atoms: O_3  and  C_4
REMARK    4  A    between atoms: C_4  and  C_5
REMARK                            x       y       z     vdW  Elec       q    Type
REMARK                         _______ _______ _______ _____ _____    ______ ____
ROOT
ATOM      1  C   UNL     1       5.787   5.460  16.617  0.00  0.00    +0.000 A 
ATOM      2  C   UNL     1       5.470   6.822  16.831  0.00  0.00    +0.000 A 
ATOM      3  C   UNL     1       4.419   7.191  17.675  0.00  0.00    +0.000 A 
ATOM      4  C   UNL     1       3.704   6.174  18.278  0.00  0.00    +0.000 A 
ATOM      5  C   UNL     1       3.994   4.813  18.091  0.00  0.00    +0.000 A 
ATOM      6  C   UNL     1       5.046   4.447  17.264  0.00  0.00    +0.000 A 
ATOM      7  C   UNL     1       3.046   4.020  18.851  0.00  0.00    +0.000 A 
ATOM      8  C   UNL     1       2.895   2.651  18.985  0.00  0.00    +0.000 A 
ATOM      9  C   UNL     1       1.855   2.172  19.797  0.00  0.00    +0.000 A 
ATOM     10  C   UNL     1       0.982   3.055  20.463  0.00  0.00    +0.000 A 
ATOM     11  C   UNL     1       1.130   4.435  20.329  0.00  0.00    +0.000 A 
ATOM     12  C   UNL     1       2.161   4.880  19.524  0.00  0.00    +0.000 A 
ATOM     13  C   UNL     1       2.543   6.267  19.189  0.00  0.00    +0.000 C 
ATOM     14  O   UNL     1       2.009   7.284  19.577  0.00  0.00    +0.000 OA
ENDROOT
BRANCH   1  16
ATOM     15  O   UNL     1       7.876   4.432  16.088  0.00  0.00    +0.000 OA
ATOM     16  C   UNL     1       6.890   5.041  15.702  0.00  0.00    +0.000 C 
BRANCH  16  17
ATOM     17  O   UNL     1       6.634   5.423  14.428  0.00  0.00    +0.000 OA
BRANCH  17  18
ATOM     18  C   UNL     1       7.389   4.767  13.399  0.00  0.00    +0.000 C 
BRANCH  18  19
ATOM     19  C   UNL     1       6.476   3.849  12.626  0.00  0.00    +0.000 A 
ATOM     20  C   UNL     1       5.102   4.126  12.534  0.00  0.00    +0.000 A 
ATOM     21  C   UNL     1       4.249   3.280  11.816  0.00  0.00    +0.000 A 
ATOM     22  C   UNL     1       4.763   2.154  11.178  0.00  0.00    +0.000 A 
ATOM     23  C   UNL     1       6.124   1.883  11.259  0.00  0.00    +0.000 A 
ATOM     24  F   UNL     1       6.619   0.800  10.645  0.00  0.00    +0.000 F 
ATOM     25  C   UNL     1       6.982   2.718  11.971  0.00  0.00    +0.000 A 
ENDBRANCH  18  19
ENDBRANCH  17  18
ENDBRANCH  16  17
ENDBRANCH   1  16
TORSDOF 4
ENDMDL
MODEL 2
REMARK VINA RESULT:      -9.0      4.103      6.483
REMARK  Name = 
REMARK  4 active torsions:
REMARK  status: ('A' for Active; 'I' for Inactive)
REMARK    1  A    between atoms: C_2  and  O_3
REMARK    2  A    between atoms: C_2  and  C_12
REMARK    3  A    between atoms: O_3  and  C_4
REMARK    4  A    between atoms: C_4  and  C_5
REMARK                            x       y       z     vdW  Elec       q    Type
REMARK                         _______ _______ _______ _____ _____    ______ ____
ROOT
ATOM      1  C   UNL     1       2.313   6.426  19.743  0.00  0.00    +0.000 A 
ATOM      2  C   UNL     1       2.583   7.079  18.517  0.00  0.00    +0.000 A 
ATOM      3  C   UNL     1       2.165   8.394  18.296  0.00  0.00    +0.000 A 
ATOM      4  C   UNL     1       1.475   9.019  19.317  0.00  0.00    +0.000 A 
ATOM      5  C   UNL     1       1.194   8.402  20.547  0.00  0.00    +0.000 A 
ATOM      6  C   UNL     1       1.621   7.101  20.771  0.00  0.00    +0.000 A 
ATOM      7  C   UNL     1       0.446   9.326  21.378  0.00  0.00    +0.000 A 
ATOM      8  C   UNL     1      -0.078   9.197  22.652  0.00  0.00    +0.000 A 
ATOM      9  C   UNL     1      -0.779  10.283  23.198  0.00  0.00    +0.000 A 
ATOM     10  C   UNL     1      -0.951  11.481  22.474  0.00  0.00    +0.000 A 
ATOM     11  C   UNL     1      -0.426  11.615  21.190  0.00  0.00    +0.000 A 
ATOM     12  C   UNL     1       0.259  10.530  20.675  0.00  0.00    +0.000 A 
ATOM     13  C   UNL     1       0.900  10.381  19.353  0.00  0.00    +0.000 C 
ATOM     14  O   UNL     1       0.945  11.208  18.467  0.00  0.00    +0.000 OA
ENDROOT
BRANCH   1  16
ATOM     15  O   UNL     1       2.711   4.504  21.102  0.00  0.00    +0.000 OA
ATOM     16  C   UNL     1       2.729   5.013  19.993  0.00  0.00    +0.000 C 
BRANCH  16  17
ATOM     17  O   UNL     1       3.110   4.410  18.841  0.00  0.00    +0.000 OA
BRANCH  17  18
ATOM     18  C   UNL     1       4.407   3.798  18.839  0.00  0.00    +0.000 C 
BRANCH  18  19
ATOM     19  C   UNL     1       5.400   4.747  18.218  0.00  0.00    +0.000 A 
ATOM     20  C   UNL     1       5.272   5.130  16.872  0.00  0.00    +0.000 A 
ATOM     21  C   UNL     1       6.188   6.013  16.290  0.00  0.00    +0.000 A 
ATOM     22  C   UNL     1       7.236   6.526  17.049  0.00  0.00    +0.000 A 
ATOM     23  C   UNL     1       7.360   6.158  18.383  0.00  0.00    +0.000 A 
ATOM     24  F   UNL     1       8.368   6.653  19.114  0.00  0.00    +0.000 F 
ATOM     25  C   UNL     1       6.454   5.280  18.974  0.00  0.00    +0.000 A 
ENDBRANCH  18  19
ENDBRANCH  17  18
ENDBRANCH  16  17
ENDBRANCH   1  16
TORSDOF 4
ENDMDL
MODEL 3
REMARK VINA RESULT:      -8.9      0.853      1.284
REMARK  Name = 
REMARK  4 active torsions:
REMARK  status: ('A' for Active; 'I' for Inactive)
REMARK    1  A    between atoms: C_2  and  O_3
REMARK    2  A    between atoms: C_2  and  C_12
REMARK    3  A    between atoms: O_3  and  C_4
REMARK    4  A    between atoms: C_4  and  C_5
REMARK                            x       y       z     vdW  Elec       q    Type
REMARK                         _______ _______ _______ _____ _____    ______ ____
ROOT
ATOM      1  C   UNL     1       5.715   5.425  16.353  0.00  0.00    +0.000 A 
ATOM      2  C   UNL     1       5.369   6.789  16.503  0.00  0.00    +0.000 A 
ATOM      3  C   UNL     1       4.331   7.177  17.355  0.00  0.00    +0.000 A 
ATOM      4  C   UNL     1       3.660   6.176  18.032  0.00  0.00    +0.000 A 
ATOM      5  C   UNL     1       3.980   4.814  17.909  0.00  0.00    +0.000 A 
ATOM      6  C   UNL     1       5.019   4.431  17.073  0.00  0.00    +0.000 A 
ATOM      7  C   UNL     1       3.074   4.040  18.736  0.00  0.00    +0.000 A 
ATOM      8  C   UNL     1       2.962   2.677  18.947  0.00  0.00    +0.000 A 
ATOM      9  C   UNL     1       1.958   2.217  19.812  0.00  0.00    +0.000 A 
ATOM     10  C   UNL     1       1.079   3.113  20.455  0.00  0.00    +0.000 A 
ATOM     11  C   UNL     1       1.187   4.486  20.244  0.00  0.00    +0.000 A 
ATOM     12  C   UNL     1       2.185   4.914  19.387  0.00  0.00    +0.000 A 
ATOM     13  C   UNL     1       2.521   6.289  18.968  0.00  0.00    +0.000 C 
ATOM     14  O   UNL     1       1.971   7.312  19.317  0.00  0.00    +0.000 OA
ENDROOT
BRANCH   1  16
ATOM     15  O   UNL     1       7.783   4.362  15.811  0.00  0.00    +0.000 OA
ATOM     16  C   UNL     1       6.805   4.985  15.431  0.00  0.00    +0.000 C 
BRANCH  16  17
ATOM     17  O   UNL     1       6.544   5.366  14.157  0.00  0.00    +0.000 OA
BRANCH  17  18
ATOM     18  C   UNL     1       7.428   4.863  13.146  0.00  0.00    +0.000 C 
BRANCH  18  19
ATOM     19  C   UNL     1       6.729   3.768  12.381  0.00  0.00    +0.000 A 
ATOM     20  C   UNL     1       7.466   2.714  11.814  0.00  0.00    +0.000 A 
ATOM     21  C   UNL     1       6.824   1.693  11.105  0.00  0.00    +0.000 A 
ATOM     22  C   UNL     1       5.439   1.712  10.962  0.00  0.00    +0.000 A 
ATOM     23  C   UNL     1       4.706   2.747  11.530  0.00  0.00    +0.000 A 
ATOM     24  F   UNL     1       3.373   2.765  11.393  0.00  0.00    +0.000 F 
ATOM     25  C   UNL     1       5.334   3.769  12.238  0.00  0.00    +0.000 A 
ENDBRANCH  18  19
ENDBRANCH  17  18
ENDBRANCH  16  17
ENDBRANCH   1  16
TORSDOF 4
ENDMDL
MODEL 4
REMARK VINA RESULT:      -8.7      4.447      6.147
REMARK  Name = 
REMARK  4 active torsions:
REMARK  status: ('A' for Active; 'I' for Inactive)
REMARK    1  A    between atoms: C_2  and  O_3
REMARK    2  A    between atoms: C_2  and  C_12
REMARK    3  A    between atoms: O_3  and  C_4
REMARK    4  A    between atoms: C_4  and  C_5
REMARK                            x       y       z     vdW  Elec       q    Type
REMARK                         _______ _______ _______ _____ _____    ______ ____
ROOT
ATOM      1  C   UNL     1       4.364   5.522  18.219  0.00  0.00    +0.000 A 
ATOM      2  C   UNL     1       4.548   6.334  17.075  0.00  0.00    +0.000 A 
ATOM      3  C   UNL     1       3.854   7.539  16.930  0.00  0.00    +0.000 A 
ATOM      4  C   UNL     1       2.983   7.894  17.942  0.00  0.00    +0.000 A 
ATOM      5  C   UNL     1       2.780   7.114  19.093  0.00  0.00    +0.000 A 
ATOM      6  C   UNL     1       3.479   5.925  19.242  0.00  0.00    +0.000 A 
ATOM      7  C   UNL     1       1.796   7.764  19.936  0.00  0.00    +0.000 A 
ATOM      8  C   UNL     1       1.244   7.400  21.151  0.00  0.00    +0.000 A 
ATOM      9  C   UNL     1       0.284   8.245  21.728  0.00  0.00    +0.000 A 
ATOM     10  C   UNL     1      -0.114   9.439  21.094  0.00  0.00    +0.000 A 
ATOM     11  C   UNL     1       0.438   9.810  19.868  0.00  0.00    +0.000 A 
ATOM     12  C   UNL     1       1.380   8.959  19.322  0.00  0.00    +0.000 A 
ATOM     13  C   UNL     1       2.112   9.085  18.045  0.00  0.00    +0.000 C 
ATOM     14  O   UNL     1       2.018   9.982  17.235  0.00  0.00    +0.000 OA
ENDROOT
BRANCH   1  16
ATOM     15  O   UNL     1       5.945   4.042  19.223  0.00  0.00    +0.000 OA
ATOM     16  C   UNL     1       5.076   4.219  18.384  0.00  0.00    +0.000 C 
BRANCH  16  17
ATOM     17  O   UNL     1       4.621   3.303  17.496  0.00  0.00    +0.000 OA
BRANCH  17  18
ATOM     18  C   UNL     1       4.026   2.120  18.047  0.00  0.00    +0.000 C 
BRANCH  18  19
ATOM     19  C   UNL     1       2.820   2.509  18.863  0.00  0.00    +0.000 A 
ATOM     20  C   UNL     1       1.627   2.897  18.230  0.00  0.00    +0.000 A 
ATOM     21  C   UNL     1       0.503   3.256  18.981  0.00  0.00    +0.000 A 
ATOM     22  C   UNL     1       0.558   3.225  20.372  0.00  0.00    +0.000 A 
ATOM     23  C   UNL     1       1.732   2.832  21.002  0.00  0.00    +0.000 A 
ATOM     24  F   UNL     1       1.785   2.802  22.340  0.00  0.00    +0.000 F 
ATOM     25  C   UNL     1       2.858   2.472  20.264  0.00  0.00    +0.000 A 
ENDBRANCH  18  19
ENDBRANCH  17  18
ENDBRANCH  16  17
ENDBRANCH   1  16
TORSDOF 4
ENDMDL
MODEL 5
REMARK VINA RESULT:      -8.7      3.609      6.000
REMARK  Name = 
REMARK  4 active torsions:
REMARK  status: ('A' for Active; 'I' for Inactive)
REMARK    1  A    between atoms: C_2  and  O_3
REMARK    2  A    between atoms: C_2  and  C_12
REMARK    3  A    between atoms: O_3  and  C_4
REMARK    4  A    between atoms: C_4  and  C_5
REMARK                            x       y       z     vdW  Elec       q    Type
REMARK                         _______ _______ _______ _____ _____    ______ ____
ROOT
ATOM      1  C   UNL     1       2.243   6.254  19.862  0.00  0.00    +0.000 A 
ATOM      2  C   UNL     1       2.589   6.883  18.642  0.00  0.00    +0.000 A 
ATOM      3  C   UNL     1       2.235   8.212  18.393  0.00  0.00    +0.000 A 
ATOM      4  C   UNL     1       1.534   8.876  19.382  0.00  0.00    +0.000 A 
ATOM      5  C   UNL     1       1.179   8.284  20.605  0.00  0.00    +0.000 A 
ATOM      6  C   UNL     1       1.541   6.969  20.856  0.00  0.00    +0.000 A 
ATOM      7  C   UNL     1       0.439   9.247  21.398  0.00  0.00    +0.000 A 
ATOM      8  C   UNL     1      -0.138   9.153  22.652  0.00  0.00    +0.000 A 
ATOM      9  C   UNL     1      -0.813  10.273  23.161  0.00  0.00    +0.000 A 
ATOM     10  C   UNL     1      -0.905  11.470  22.421  0.00  0.00    +0.000 A 
ATOM     11  C   UNL     1      -0.327  11.568  21.157  0.00  0.00    +0.000 A 
ATOM     12  C   UNL     1       0.332  10.451  20.678  0.00  0.00    +0.000 A 
ATOM     13  C   UNL     1       1.017  10.261  19.383  0.00  0.00    +0.000 C 
ATOM     14  O   UNL     1       1.130  11.076  18.493  0.00  0.00    +0.000 OA
ENDROOT
BRANCH   1  16
ATOM     15  O   UNL     1       2.463   4.319  21.242  0.00  0.00    +0.000 OA
ATOM     16  C   UNL     1       2.590   4.828  20.140  0.00  0.00    +0.000 C 
BRANCH  16  17
ATOM     17  O   UNL     1       3.043   4.213  19.021  0.00  0.00    +0.000 OA
BRANCH  17  18
ATOM     18  C   UNL     1       4.360   3.648  19.091  0.00  0.00    +0.000 C 
BRANCH  18  19
ATOM     19  C   UNL     1       5.186   4.181  17.948  0.00  0.00    +0.000 A 
ATOM     20  C   UNL     1       6.417   4.812  18.194  0.00  0.00    +0.000 A 
ATOM     21  C   UNL     1       7.190   5.306  17.138  0.00  0.00    +0.000 A 
ATOM     22  C   UNL     1       6.744   5.168  15.826  0.00  0.00    +0.000 A 
ATOM     23  C   UNL     1       5.532   4.535  15.579  0.00  0.00    +0.000 A 
ATOM     24  F   UNL     1       5.103   4.402  14.316  0.00  0.00    +0.000 F 
ATOM     25  C   UNL     1       4.753   4.039  16.622  0.00  0.00    +0.000 A 
ENDBRANCH  18  19
ENDBRANCH  17  18
ENDBRANCH  16  17
ENDBRANCH   1  16
TORSDOF 4
ENDMDL
MODEL 6
REMARK VINA RESULT:      -8.7      5.538      8.745
REMARK  Name = 
REMARK  4 active torsions:
REMARK  status: ('A' for Active; 'I' for Inactive)
REMARK    1  A    between atoms: C_2  and  O_3
REMARK    2  A    between atoms: C_2  and  C_12
REMARK    3  A    between atoms: O_3  and  C_4
REMARK    4  A    between atoms: C_4  and  C_5
REMARK                            x       y       z     vdW  Elec       q    Type
REMARK                         _______ _______ _______ _____ _____    ______ ____
ROOT
ATOM      1  C   UNL     1       1.359   8.841  19.873  0.00  0.00    +0.000 A 
ATOM      2  C   UNL     1       1.945   9.100  18.612  0.00  0.00    +0.000 A 
ATOM      3  C   UNL     1       2.647   8.104  17.926  0.00  0.00    +0.000 A 
ATOM      4  C   UNL     1       2.746   6.868  18.535  0.00  0.00    +0.000 A 
ATOM      5  C   UNL     1       2.173   6.574  19.783  0.00  0.00    +0.000 A 
ATOM      6  C   UNL     1       1.466   7.560  20.457  0.00  0.00    +0.000 A 
ATOM      7  C   UNL     1       2.481   5.201  20.133  0.00  0.00    +0.000 A 
ATOM      8  C   UNL     1       2.168   4.446  21.249  0.00  0.00    +0.000 A 
ATOM      9  C   UNL     1       2.627   3.121  21.308  0.00  0.00    +0.000 A 
ATOM     10  C   UNL     1       3.388   2.564  20.261  0.00  0.00    +0.000 A 
ATOM     11  C   UNL     1       3.708   3.321  19.135  0.00  0.00    +0.000 A 
ATOM     12  C   UNL     1       3.244   4.623  19.102  0.00  0.00    +0.000 A 
ATOM     13  C   UNL     1       3.439   5.651  18.059  0.00  0.00    +0.000 C 
ATOM     14  O   UNL     1       4.049   5.526  17.019  0.00  0.00    +0.000 OA
ENDROOT
BRANCH   1  16
ATOM     15  O   UNL     1       1.150  10.569  21.506  0.00  0.00    +0.000 OA
ATOM     16  C   UNL     1       0.625   9.896  20.634  0.00  0.00    +0.000 C 
BRANCH  16  17
ATOM     17  O   UNL     1      -0.661   9.986  20.218  0.00  0.00    +0.000 OA
BRANCH  17  18
ATOM     18  C   UNL     1      -1.069  11.250  19.675  0.00  0.00    +0.000 C 
BRANCH  18  19
ATOM     19  C   UNL     1      -1.944  11.010  18.471  0.00  0.00    +0.000 A 
ATOM     20  C   UNL     1      -1.569  10.072  17.495  0.00  0.00    +0.000 A 
ATOM     21  C   UNL     1      -2.378   9.842  16.377  0.00  0.00    +0.000 A 
ATOM     22  C   UNL     1      -3.572  10.543  16.227  0.00  0.00    +0.000 A 
ATOM     23  C   UNL     1      -3.951  11.464  17.195  0.00  0.00    +0.000 A 
ATOM     24  F   UNL     1      -5.100  12.138  17.052  0.00  0.00    +0.000 F 
ATOM     25  C   UNL     1      -3.154  11.702  18.313  0.00  0.00    +0.000 A 
ENDBRANCH  18  19
ENDBRANCH  17  18
ENDBRANCH  16  17
ENDBRANCH   1  16
TORSDOF 4
ENDMDL
MODEL 7
REMARK VINA RESULT:      -8.6      4.595      8.526
REMARK  Name = 
REMARK  4 active torsions:
REMARK  status: ('A' for Active; 'I' for Inactive)
REMARK    1  A    between atoms: C_2  and  O_3
REMARK    2  A    between atoms: C_2  and  C_12
REMARK    3  A    between atoms: O_3  and  C_4
REMARK    4  A    between atoms: C_4  and  C_5
REMARK                            x       y       z     vdW  Elec       q    Type
REMARK                         _______ _______ _______ _____ _____    ______ ____
ROOT
ATOM      1  C   UNL     1       1.976   7.083  20.100  0.00  0.00    +0.000 A 
ATOM      2  C   UNL     1       1.669   5.836  20.694  0.00  0.00    +0.000 A 
ATOM      3  C   UNL     1       2.183   4.646  20.172  0.00  0.00    +0.000 A 
ATOM      4  C   UNL     1       2.993   4.741  19.056  0.00  0.00    +0.000 A 
ATOM      5  C   UNL     1       3.322   5.961  18.445  0.00  0.00    +0.000 A 
ATOM      6  C   UNL     1       2.821   7.144  18.971  0.00  0.00    +0.000 A 
ATOM      7  C   UNL     1       4.168   5.701  17.296  0.00  0.00    +0.000 A 
ATOM      8  C   UNL     1       4.739   6.550  16.365  0.00  0.00    +0.000 A 
ATOM      9  C   UNL     1       5.514   5.990  15.338  0.00  0.00    +0.000 A 
ATOM     10  C   UNL     1       5.713   4.597  15.250  0.00  0.00    +0.000 A 
ATOM     11  C   UNL     1       5.139   3.738  16.185  0.00  0.00    +0.000 A 
ATOM     12  C   UNL     1       4.380   4.315  17.185  0.00  0.00    +0.000 A 
ATOM     13  C   UNL     1       3.648   3.660  18.289  0.00  0.00    +0.000 C 
ATOM     14  O   UNL     1       3.590   2.471  18.520  0.00  0.00    +0.000 OA
ENDROOT
BRANCH   1  16
ATOM     15  O   UNL     1       1.200   8.556  21.810  0.00  0.00    +0.000 OA
ATOM     16  C   UNL     1       1.420   8.366  20.625  0.00  0.00    +0.000 C 
BRANCH  16  17
ATOM     17  O   UNL     1       1.210   9.250  19.620  0.00  0.00    +0.000 OA
BRANCH  17  18
ATOM     18  C   UNL     1       0.626  10.508  19.986  0.00  0.00    +0.000 C 
BRANCH  18  19
ATOM     19  C   UNL     1      -0.633  10.720  19.185  0.00  0.00    +0.000 A 
ATOM     20  C   UNL     1      -1.605  11.637  19.617  0.00  0.00    +0.000 A 
ATOM     21  C   UNL     1      -2.775  11.841  18.877  0.00  0.00    +0.000 A 
ATOM     22  C   UNL     1      -2.981  11.135  17.695  0.00  0.00    +0.000 A 
ATOM     23  C   UNL     1      -2.017  10.234  17.259  0.00  0.00    +0.000 A 
ATOM     24  F   UNL     1      -2.214   9.555  16.121  0.00  0.00    +0.000 F 
ATOM     25  C   UNL     1      -0.848  10.023  17.987  0.00  0.00    +0.000 A 
ENDBRANCH  18  19
ENDBRANCH  17  18
ENDBRANCH  16  17
ENDBRANCH   1  16
TORSDOF 4
ENDMDL
MODEL 8
REMARK VINA RESULT:      -8.6      4.847      7.896
REMARK  Name = 
REMARK  4 active torsions:
REMARK  status: ('A' for Active; 'I' for Inactive)
REMARK    1  A    between atoms: C_2  and  O_3
REMARK    2  A    between atoms: C_2  and  C_12
REMARK    3  A    between atoms: O_3  and  C_4
REMARK    4  A    between atoms: C_4  and  C_5
REMARK                            x       y       z     vdW  Elec       q    Type
REMARK                         _______ _______ _______ _____ _____    ______ ____
ROOT
ATOM      1  C   UNL     1       2.714   8.070  17.970  0.00  0.00    +0.000 A 
ATOM      2  C   UNL     1       3.957   7.814  17.344  0.00  0.00    +0.000 A 
ATOM      3  C   UNL     1       4.634   6.610  17.558  0.00  0.00    +0.000 A 
ATOM      4  C   UNL     1       4.043   5.693  18.406  0.00  0.00    +0.000 A 
ATOM      5  C   UNL     1       2.809   5.913  19.040  0.00  0.00    +0.000 A 
ATOM      6  C   UNL     1       2.131   7.103  18.817  0.00  0.00    +0.000 A 
ATOM      7  C   UNL     1       2.492   4.765  19.868  0.00  0.00    +0.000 A 
ATOM      8  C   UNL     1       1.416   4.500  20.695  0.00  0.00    +0.000 A 
ATOM      9  C   UNL     1       1.395   3.282  21.392  0.00  0.00    +0.000 A 
ATOM     10  C   UNL     1       2.440   2.345  21.258  0.00  0.00    +0.000 A 
ATOM     11  C   UNL     1       3.527   2.609  20.426  0.00  0.00    +0.000 A 
ATOM     12  C   UNL     1       3.524   3.816  19.752  0.00  0.00    +0.000 A 
ATOM     13  C   UNL     1       4.537   4.365  18.828  0.00  0.00    +0.000 C 
ATOM     14  O   UNL     1       5.573   3.836  18.485  0.00  0.00    +0.000 OA
ENDROOT
BRANCH   1  16
ATOM     15  O   UNL     1       2.551  10.411  17.529  0.00  0.00    +0.000 OA
ATOM     16  C   UNL     1       1.983   9.358  17.775  0.00  0.00    +0.000 C 
BRANCH  16  17
ATOM     17  O   UNL     1       0.647   9.181  17.905  0.00  0.00    +0.000 OA
BRANCH  17  18
ATOM     18  C   UNL     1      -0.046  10.126  18.733  0.00  0.00    +0.000 C 
BRANCH  18  19
ATOM     19  C   UNL     1      -1.389  10.428  18.119  0.00  0.00    +0.000 A 
ATOM     20  C   UNL     1      -2.245  11.372  18.711  0.00  0.00    +0.000 A 
ATOM     21  C   UNL     1      -3.492  11.660  18.145  0.00  0.00    +0.000 A 
ATOM     22  C   UNL     1      -3.891  11.013  16.978  0.00  0.00    +0.000 A 
ATOM     23  C   UNL     1      -3.043  10.087  16.384  0.00  0.00    +0.000 A 
ATOM     24  F   UNL     1      -3.427   9.465  15.261  0.00  0.00    +0.000 F 
ATOM     25  C   UNL     1      -1.799   9.792  16.939  0.00  0.00    +0.000 A 
ENDBRANCH  18  19
ENDBRANCH  17  18
ENDBRANCH  16  17
ENDBRANCH   1  16
TORSDOF 4
ENDMDL
MODEL 9
REMARK VINA RESULT:      -8.5      3.582      5.734
REMARK  Name = 
REMARK  4 active torsions:
REMARK  status: ('A' for Active; 'I' for Inactive)
REMARK    1  A    between atoms: C_2  and  O_3
REMARK    2  A    between atoms: C_2  and  C_12
REMARK    3  A    between atoms: O_3  and  C_4
REMARK    4  A    between atoms: C_4  and  C_5
REMARK                            x       y       z     vdW  Elec       q    Type
REMARK                         _______ _______ _______ _____ _____    ______ ____
ROOT
ATOM      1  C   UNL     1       2.928   4.631  18.794  0.00  0.00    +0.000 A 
ATOM      2  C   UNL     1       2.439   4.334  20.088  0.00  0.00    +0.000 A 
ATOM      3  C   UNL     1       1.832   5.320  20.871  0.00  0.00    +0.000 A 
ATOM      4  C   UNL     1       1.739   6.588  20.331  0.00  0.00    +0.000 A 
ATOM      5  C   UNL     1       2.210   6.917  19.049  0.00  0.00    +0.000 A 
ATOM      6  C   UNL     1       2.800   5.934  18.268  0.00  0.00    +0.000 A 
ATOM      7  C   UNL     1       1.971   8.326  18.805  0.00  0.00    +0.000 A 
ATOM      8  C   UNL     1       2.261   9.132  17.718  0.00  0.00    +0.000 A 
ATOM      9  C   UNL     1       1.913  10.489  17.783  0.00  0.00    +0.000 A 
ATOM     10  C   UNL     1       1.283  11.029  18.922  0.00  0.00    +0.000 A 
ATOM     11  C   UNL     1       0.990  10.222  20.020  0.00  0.00    +0.000 A 
ATOM     12  C   UNL     1       1.344   8.889  19.932  0.00  0.00    +0.000 A 
ATOM     13  C   UNL     1       1.174   7.816  20.932  0.00  0.00    +0.000 C 
ATOM     14  O   UNL     1       0.676   7.918  22.033  0.00  0.00    +0.000 OA
ENDROOT
BRANCH   1  16
ATOM     15  O   UNL     1       3.794   2.455  18.329  0.00  0.00    +0.000 OA
ATOM     16  C   UNL     1       3.601   3.599  17.949  0.00  0.00    +0.000 C 
BRANCH  16  17
ATOM     17  O   UNL     1       3.945   4.111  16.743  0.00  0.00    +0.000 OA
BRANCH  17  18
ATOM     18  C   UNL     1       5.312   3.941  16.343  0.00  0.00    +0.000 C 
BRANCH  18  19
ATOM     19  C   UNL     1       6.156   4.997  17.011  0.00  0.00    +0.000 A 
ATOM     20  C   UNL     1       6.078   6.337  16.596  0.00  0.00    +0.000 A 
ATOM     21  C   UNL     1       6.857   7.323  17.213  0.00  0.00    +0.000 A 
ATOM     22  C   UNL     1       7.715   6.979  18.255  0.00  0.00    +0.000 A 
ATOM     23  C   UNL     1       7.787   5.656  18.674  0.00  0.00    +0.000 A 
ATOM     24  F   UNL     1       8.612   5.325  19.677  0.00  0.00    +0.000 F 
ATOM     25  C   UNL     1       7.017   4.666  18.067  0.00  0.00    +0.000 A 
ENDBRANCH  18  19
ENDBRANCH  17  18
ENDBRANCH  16  17
ENDBRANCH   1  16
TORSDOF 4
ENDMDL
