MODEL 1
REMARK VINA RESULT:      -7.8      0.000      0.000
REMARK  Name = 
REMARK  5 active torsions:
REMARK  status: ('A' for Active; 'I' for Inactive)
REMARK    1  A    between atoms: C_11  and  O_12
REMARK    2  A    between atoms: O_12  and  C_13
REMARK    3  A    between atoms: C_13  and  C_14
REMARK    4  A    between atoms: C_14  and  C_15
REMARK    5  A    between atoms: C_14  and  C_16
REMARK                            x       y       z     vdW  Elec       q    Type
REMARK                         _______ _______ _______ _____ _____    ______ ____
ROOT
ATOM      1  C   UNL     1       0.542   3.272  19.970  0.00  0.00    +0.000 C 
ATOM      2  C   UNL     1       1.864   3.388  19.767  0.00  0.00    +0.000 C 
ATOM      3  C   UNL     1       2.838   2.245  19.608  0.00  0.00    +0.000 C 
ATOM      4  C   UNL     1       3.645   2.300  18.291  0.00  0.00    +0.000 C 
ATOM      5  C   UNL     1       3.956   3.704  17.878  0.00  0.00    +0.000 A 
ATOM      6  C   UNL     1       3.412   4.805  18.511  0.00  0.00    +0.000 A 
ATOM      7  N   UNL     1       3.893   5.929  17.903  0.00  0.00    +0.000 N 
ATOM      8  C   UNL     1       4.642   5.577  16.803  0.00  0.00    +0.000 A 
ATOM      9  C   UNL     1       5.239   6.382  15.829  0.00  0.00    +0.000 A 
ATOM     10  C   UNL     1       5.944   5.745  14.799  0.00  0.00    +0.000 A 
ATOM     11  C   UNL     1       6.052   4.354  14.748  0.00  0.00    +0.000 A 
ATOM     12  C   UNL     1       5.425   3.567  15.722  0.00  0.00    +0.000 A 
ATOM     13  C   UNL     1       4.713   4.182  16.772  0.00  0.00    +0.000 A 
ATOM     14  C   UNL     1       2.434   4.766  19.569  0.00  0.00    +0.000 C 
ATOM     15  O   UNL     1       2.055   5.739  20.200  0.00  0.00    +0.000 OA
ATOM     16  H   UNL     1       3.648   6.875  18.169  0.00  0.00    +0.000 HD
ENDROOT
BRANCH  11  17
ATOM     17  O   UNL     1       6.698   3.651  13.762  0.00  0.00    +0.000 OA
BRANCH  17  18
ATOM     18  C   UNL     1       6.213   3.862  12.433  0.00  0.00    +0.000 C 
BRANCH  18  19
ATOM     19  C   UNL     1       5.355   2.664  11.994  0.00  0.00    +0.000 C 
ATOM     20  C   UNL     1       4.161   3.110  11.146  0.00  0.00    +0.000 C 
ATOM     21  C   UNL     1       6.213   1.669  11.213  0.00  0.00    +0.000 C 
ENDBRANCH  18  19
ENDBRANCH  17  18
ENDBRANCH  11  17
TORSDOF 3
ENDMDL
MODEL 2
REMARK VINA RESULT:      -7.8      1.674      1.924
REMARK  Name = 
REMARK  5 active torsions:
REMARK  status: ('A' for Active; 'I' for Inactive)
REMARK    1  A    between atoms: C_11  and  O_12
REMARK    2  A    between atoms: O_12  and  C_13
REMARK    3  A    between atoms: C_13  and  C_14
REMARK    4  A    between atoms: C_14  and  C_15
REMARK    5  A    between atoms: C_14  and  C_16
REMARK                            x       y       z     vdW  Elec       q    Type
REMARK                         _______ _______ _______ _____ _____    ______ ____
ROOT
ATOM      1  C   UNL     1       0.749   3.829  20.614  0.00  0.00    +0.000 C 
ATOM      2  C   UNL     1       1.641   3.208  19.825  0.00  0.00    +0.000 C 
ATOM      3  C   UNL     1       1.375   2.682  18.434  0.00  0.00    +0.000 C 
ATOM      4  C   UNL     1       2.330   3.256  17.363  0.00  0.00    +0.000 C 
ATOM      5  C   UNL     1       3.707   3.489  17.901  0.00  0.00    +0.000 A 
ATOM      6  C   UNL     1       4.011   3.377  19.245  0.00  0.00    +0.000 A 
ATOM      7  N   UNL     1       5.339   3.647  19.406  0.00  0.00    +0.000 N 
ATOM      8  C   UNL     1       5.879   4.058  18.208  0.00  0.00    +0.000 A 
ATOM      9  C   UNL     1       7.161   4.530  17.916  0.00  0.00    +0.000 A 
ATOM     10  C   UNL     1       7.436   4.893  16.590  0.00  0.00    +0.000 A 
ATOM     11  C   UNL     1       6.466   4.781  15.593  0.00  0.00    +0.000 A 
ATOM     12  C   UNL     1       5.181   4.328  15.914  0.00  0.00    +0.000 A 
ATOM     13  C   UNL     1       4.878   3.952  17.239  0.00  0.00    +0.000 A 
ATOM     14  C   UNL     1       3.065   3.114  20.299  0.00  0.00    +0.000 C 
ATOM     15  O   UNL     1       3.365   2.896  21.462  0.00  0.00    +0.000 OA
ATOM     16  H   UNL     1       5.822   3.640  20.297  0.00  0.00    +0.000 HD
ENDROOT
BRANCH  11  17
ATOM     17  O   UNL     1       6.644   5.140  14.280  0.00  0.00    +0.000 OA
BRANCH  17  18
ATOM     18  C   UNL     1       5.594   4.758  13.387  0.00  0.00    +0.000 C 
BRANCH  18  19
ATOM     19  C   UNL     1       6.005   3.499  12.605  0.00  0.00    +0.000 C 
ATOM     20  C   UNL     1       4.870   3.001  11.708  0.00  0.00    +0.000 C 
ATOM     21  C   UNL     1       7.249   3.793  11.767  0.00  0.00    +0.000 C 
ENDBRANCH  18  19
ENDBRANCH  17  18
ENDBRANCH  11  17
TORSDOF 3
ENDMDL
MODEL 3
REMARK VINA RESULT:      -7.7      2.573      4.605
REMARK  Name = 
REMARK  5 active torsions:
REMARK  status: ('A' for Active; 'I' for Inactive)
REMARK    1  A    between atoms: C_11  and  O_12
REMARK    2  A    between atoms: O_12  and  C_13
REMARK    3  A    between atoms: C_13  and  C_14
REMARK    4  A    between atoms: C_14  and  C_15
REMARK    5  A    between atoms: C_14  and  C_16
REMARK                            x       y       z     vdW  Elec       q    Type
REMARK                         _______ _______ _______ _____ _____    ______ ____
ROOT
ATOM      1  C   UNL     1       1.256   2.779  21.662  0.00  0.00    +0.000 C 
ATOM      2  C   UNL     1       1.319   3.596  20.599  0.00  0.00    +0.000 C 
ATOM      3  C   UNL     1       1.446   5.100  20.646  0.00  0.00    +0.000 C 
ATOM      4  C   UNL     1       2.672   5.642  19.875  0.00  0.00    +0.000 C 
ATOM      5  C   UNL     1       2.972   4.832  18.653  0.00  0.00    +0.000 A 
ATOM      6  C   UNL     1       2.335   3.638  18.374  0.00  0.00    +0.000 A 
ATOM      7  N   UNL     1       2.829   3.156  17.197  0.00  0.00    +0.000 N 
ATOM      8  C   UNL     1       3.868   3.950  16.768  0.00  0.00    +0.000 A 
ATOM      9  C   UNL     1       4.731   3.790  15.681  0.00  0.00    +0.000 A 
ATOM     10  C   UNL     1       5.721   4.762  15.485  0.00  0.00    +0.000 A 
ATOM     11  C   UNL     1       5.839   5.858  16.341  0.00  0.00    +0.000 A 
ATOM     12  C   UNL     1       4.978   5.985  17.438  0.00  0.00    +0.000 A 
ATOM     13  C   UNL     1       3.970   5.024  17.656  0.00  0.00    +0.000 A 
ATOM     14  C   UNL     1       1.383   2.976  19.230  0.00  0.00    +0.000 C 
ATOM     15  O   UNL     1       0.739   1.988  18.917  0.00  0.00    +0.000 OA
ATOM     16  H   UNL     1       2.535   2.287  16.765  0.00  0.00    +0.000 HD
ENDROOT
BRANCH  11  17
ATOM     17  O   UNL     1       6.794   6.838  16.238  0.00  0.00    +0.000 OA
BRANCH  17  18
ATOM     18  C   UNL     1       6.805   7.806  17.290  0.00  0.00    +0.000 C 
BRANCH  18  19
ATOM     19  C   UNL     1       8.193   7.846  17.950  0.00  0.00    +0.000 C 
ATOM     20  C   UNL     1       8.528   9.246  18.468  0.00  0.00    +0.000 C 
ATOM     21  C   UNL     1       8.254   6.833  19.093  0.00  0.00    +0.000 C 
ENDBRANCH  18  19
ENDBRANCH  17  18
ENDBRANCH  11  17
TORSDOF 3
ENDMDL
MODEL 4
REMARK VINA RESULT:      -7.6      0.772      1.143
REMARK  Name = 
REMARK  5 active torsions:
REMARK  status: ('A' for Active; 'I' for Inactive)
REMARK    1  A    between atoms: C_11  and  O_12
REMARK    2  A    between atoms: O_12  and  C_13
REMARK    3  A    between atoms: C_13  and  C_14
REMARK    4  A    between atoms: C_14  and  C_15
REMARK    5  A    between atoms: C_14  and  C_16
REMARK                            x       y       z     vdW  Elec       q    Type
REMARK                         _______ _______ _______ _____ _____    ______ ____
ROOT
ATOM      1  C   UNL     1       0.436   2.837  19.962  0.00  0.00    +0.000 C 
ATOM      2  C   UNL     1       1.760   2.913  19.754  0.00  0.00    +0.000 C 
ATOM      3  C   UNL     1       2.629   1.819  19.180  0.00  0.00    +0.000 C 
ATOM      4  C   UNL     1       3.419   2.253  17.924  0.00  0.00    +0.000 C 
ATOM      5  C   UNL     1       3.844   3.686  17.993  0.00  0.00    +0.000 A 
ATOM      6  C   UNL     1       3.407   4.547  18.981  0.00  0.00    +0.000 A 
ATOM      7  N   UNL     1       3.975   5.770  18.765  0.00  0.00    +0.000 N 
ATOM      8  C   UNL     1       4.674   5.754  17.580  0.00  0.00    +0.000 A 
ATOM      9  C   UNL     1       5.326   6.791  16.908  0.00  0.00    +0.000 A 
ATOM     10  C   UNL     1       5.957   6.488  15.694  0.00  0.00    +0.000 A 
ATOM     11  C   UNL     1       5.944   5.192  15.175  0.00  0.00    +0.000 A 
ATOM     12  C   UNL     1       5.265   4.173  15.855  0.00  0.00    +0.000 A 
ATOM     13  C   UNL     1       4.624   4.450  17.080  0.00  0.00    +0.000 A 
ATOM     14  C   UNL     1       2.444   4.228  20.005  0.00  0.00    +0.000 C 
ATOM     15  O   UNL     1       2.160   4.957  20.942  0.00  0.00    +0.000 OA
ATOM     16  H   UNL     1       3.816   6.586  19.343  0.00  0.00    +0.000 HD
ENDROOT
BRANCH  11  17
ATOM     17  O   UNL     1       6.512   4.816  13.984  0.00  0.00    +0.000 OA
BRANCH  17  18
ATOM     18  C   UNL     1       6.234   3.479  13.561  0.00  0.00    +0.000 C 
BRANCH  18  19
ATOM     19  C   UNL     1       6.070   3.438  12.032  0.00  0.00    +0.000 C 
ATOM     20  C   UNL     1       6.887   2.303  11.410  0.00  0.00    +0.000 C 
ATOM     21  C   UNL     1       4.592   3.282  11.673  0.00  0.00    +0.000 C 
ENDBRANCH  18  19
ENDBRANCH  17  18
ENDBRANCH  11  17
TORSDOF 3
ENDMDL
MODEL 5
REMARK VINA RESULT:      -7.5      1.915      6.711
REMARK  Name = 
REMARK  5 active torsions:
REMARK  status: ('A' for Active; 'I' for Inactive)
REMARK    1  A    between atoms: C_11  and  O_12
REMARK    2  A    between atoms: O_12  and  C_13
REMARK    3  A    between atoms: C_13  and  C_14
REMARK    4  A    between atoms: C_14  and  C_15
REMARK    5  A    between atoms: C_14  and  C_16
REMARK                            x       y       z     vdW  Elec       q    Type
REMARK                         _______ _______ _______ _____ _____    ______ ____
ROOT
ATOM      1  C   UNL     1       7.438   3.097  11.561  0.00  0.00    +0.000 C 
ATOM      2  C   UNL     1       6.682   3.873  12.353  0.00  0.00    +0.000 C 
ATOM      3  C   UNL     1       5.199   3.712  12.593  0.00  0.00    +0.000 C 
ATOM      4  C   UNL     1       4.828   3.553  14.086  0.00  0.00    +0.000 C 
ATOM      5  C   UNL     1       5.720   4.359  14.977  0.00  0.00    +0.000 A 
ATOM      6  C   UNL     1       6.850   5.007  14.514  0.00  0.00    +0.000 A 
ATOM      7  N   UNL     1       7.435   5.650  15.566  0.00  0.00    +0.000 N 
ATOM      8  C   UNL     1       6.778   5.327  16.732  0.00  0.00    +0.000 A 
ATOM      9  C   UNL     1       7.079   5.663  18.055  0.00  0.00    +0.000 A 
ATOM     10  C   UNL     1       6.229   5.181  19.060  0.00  0.00    +0.000 A 
ATOM     11  C   UNL     1       5.115   4.398  18.752  0.00  0.00    +0.000 A 
ATOM     12  C   UNL     1       4.846   4.055  17.421  0.00  0.00    +0.000 A 
ATOM     13  C   UNL     1       5.683   4.530  16.389  0.00  0.00    +0.000 A 
ATOM     14  C   UNL     1       7.366   4.934  13.170  0.00  0.00    +0.000 C 
ATOM     15  O   UNL     1       8.291   5.607  12.746  0.00  0.00    +0.000 OA
ATOM     16  H   UNL     1       8.285   6.197  15.503  0.00  0.00    +0.000 HD
ENDROOT
BRANCH  11  17
ATOM     17  O   UNL     1       4.250   3.865  19.674  0.00  0.00    +0.000 OA
BRANCH  17  18
ATOM     18  C   UNL     1       3.437   2.784  19.207  0.00  0.00    +0.000 C 
BRANCH  18  19
ATOM     19  C   UNL     1       2.090   2.786  19.949  0.00  0.00    +0.000 C 
ATOM     20  C   UNL     1       1.849   4.114  20.670  0.00  0.00    +0.000 C 
ATOM     21  C   UNL     1       0.955   2.509  18.963  0.00  0.00    +0.000 C 
ENDBRANCH  18  19
ENDBRANCH  17  18
ENDBRANCH  11  17
TORSDOF 3
ENDMDL
MODEL 6
REMARK VINA RESULT:      -7.5      1.899      6.846
REMARK  Name = 
REMARK  5 active torsions:
REMARK  status: ('A' for Active; 'I' for Inactive)
REMARK    1  A    between atoms: C_11  and  O_12
REMARK    2  A    between atoms: O_12  and  C_13
REMARK    3  A    between atoms: C_13  and  C_14
REMARK    4  A    between atoms: C_14  and  C_15
REMARK    5  A    between atoms: C_14  and  C_16
REMARK                            x       y       z     vdW  Elec       q    Type
REMARK                         _______ _______ _______ _____ _____    ______ ____
ROOT
ATOM      1  C   UNL     1       7.476   3.261  11.808  0.00  0.00    +0.000 C 
ATOM      2  C   UNL     1       6.739   4.058  12.597  0.00  0.00    +0.000 C 
ATOM      3  C   UNL     1       5.239   3.998  12.760  0.00  0.00    +0.000 C 
ATOM      4  C   UNL     1       4.784   3.809  14.226  0.00  0.00    +0.000 C 
ATOM      5  C   UNL     1       5.686   4.511  15.192  0.00  0.00    +0.000 A 
ATOM      6  C   UNL     1       6.881   5.091  14.810  0.00  0.00    +0.000 A 
ATOM      7  N   UNL     1       7.458   5.646  15.915  0.00  0.00    +0.000 N 
ATOM      8  C   UNL     1       6.723   5.328  17.034  0.00  0.00    +0.000 A 
ATOM      9  C   UNL     1       6.981   5.587  18.382  0.00  0.00    +0.000 A 
ATOM     10  C   UNL     1       6.050   5.130  19.325  0.00  0.00    +0.000 A 
ATOM     11  C   UNL     1       4.899   4.445  18.932  0.00  0.00    +0.000 A 
ATOM     12  C   UNL     1       4.672   4.176  17.576  0.00  0.00    +0.000 A 
ATOM     13  C   UNL     1       5.591   4.628  16.607  0.00  0.00    +0.000 A 
ATOM     14  C   UNL     1       7.457   5.033  13.490  0.00  0.00    +0.000 C 
ATOM     15  O   UNL     1       8.448   5.652  13.138  0.00  0.00    +0.000 OA
ATOM     16  H   UNL     1       8.348   6.131  15.915  0.00  0.00    +0.000 HD
ENDROOT
BRANCH  11  17
ATOM     17  O   UNL     1       3.953   3.941  19.789  0.00  0.00    +0.000 OA
BRANCH  17  18
ATOM     18  C   UNL     1       2.725   4.672  19.854  0.00  0.00    +0.000 C 
BRANCH  18  19
ATOM     19  C   UNL     1       1.643   3.815  20.533  0.00  0.00    +0.000 C 
ATOM     20  C   UNL     1       0.856   2.992  19.511  0.00  0.00    +0.000 C 
ATOM     21  C   UNL     1       2.286   2.893  21.569  0.00  0.00    +0.000 C 
ENDBRANCH  18  19
ENDBRANCH  17  18
ENDBRANCH  11  17
TORSDOF 3
ENDMDL
MODEL 7
REMARK VINA RESULT:      -7.4      1.404      1.585
REMARK  Name = 
REMARK  5 active torsions:
REMARK  status: ('A' for Active; 'I' for Inactive)
REMARK    1  A    between atoms: C_11  and  O_12
REMARK    2  A    between atoms: O_12  and  C_13
REMARK    3  A    between atoms: C_13  and  C_14
REMARK    4  A    between atoms: C_14  and  C_15
REMARK    5  A    between atoms: C_14  and  C_16
REMARK                            x       y       z     vdW  Elec       q    Type
REMARK                         _______ _______ _______ _____ _____    ______ ____
ROOT
ATOM      1  C   UNL     1       0.418   3.039  19.590  0.00  0.00    +0.000 C 
ATOM      2  C   UNL     1       1.755   2.915  19.596  0.00  0.00    +0.000 C 
ATOM      3  C   UNL     1       2.540   1.781  18.980  0.00  0.00    +0.000 C 
ATOM      4  C   UNL     1       3.591   2.247  17.946  0.00  0.00    +0.000 C 
ATOM      5  C   UNL     1       4.203   3.561  18.317  0.00  0.00    +0.000 A 
ATOM      6  C   UNL     1       3.732   4.335  19.361  0.00  0.00    +0.000 A 
ATOM      7  N   UNL     1       4.502   5.460  19.439  0.00  0.00    +0.000 N 
ATOM      8  C   UNL     1       5.386   5.493  18.385  0.00  0.00    +0.000 A 
ATOM      9  C   UNL     1       6.289   6.488  18.000  0.00  0.00    +0.000 A 
ATOM     10  C   UNL     1       7.069   6.256  16.859  0.00  0.00    +0.000 A 
ATOM     11  C   UNL     1       6.956   5.069  16.134  0.00  0.00    +0.000 A 
ATOM     12  C   UNL     1       6.028   4.095  16.525  0.00  0.00    +0.000 A 
ATOM     13  C   UNL     1       5.232   4.301  17.671  0.00  0.00    +0.000 A 
ATOM     14  C   UNL     1       2.571   4.044  20.162  0.00  0.00    +0.000 C 
ATOM     15  O   UNL     1       2.240   4.671  21.156  0.00  0.00    +0.000 OA
ATOM     16  H   UNL     1       4.367   6.201  20.116  0.00  0.00    +0.000 HD
ENDROOT
BRANCH  11  17
ATOM     17  O   UNL     1       7.660   4.774  14.994  0.00  0.00    +0.000 OA
BRANCH  17  18
ATOM     18  C   UNL     1       7.010   5.100  13.763  0.00  0.00    +0.000 C 
BRANCH  18  19
ATOM     19  C   UNL     1       6.551   3.812  13.058  0.00  0.00    +0.000 C 
ATOM     20  C   UNL     1       5.025   3.735  12.970  0.00  0.00    +0.000 C 
ATOM     21  C   UNL     1       7.163   3.740  11.659  0.00  0.00    +0.000 C 
ENDBRANCH  18  19
ENDBRANCH  17  18
ENDBRANCH  11  17
TORSDOF 3
ENDMDL
MODEL 8
REMARK VINA RESULT:      -7.3      4.042      5.811
REMARK  Name = 
REMARK  5 active torsions:
REMARK  status: ('A' for Active; 'I' for Inactive)
REMARK    1  A    between atoms: C_11  and  O_12
REMARK    2  A    between atoms: O_12  and  C_13
REMARK    3  A    between atoms: C_13  and  C_14
REMARK    4  A    between atoms: C_14  and  C_15
REMARK    5  A    between atoms: C_14  and  C_16
REMARK                            x       y       z     vdW  Elec       q    Type
REMARK                         _______ _______ _______ _____ _____    ______ ____
ROOT
ATOM      1  C   UNL     1       1.094   4.022  20.350  0.00  0.00    +0.000 C 
ATOM      2  C   UNL     1       2.024   4.052  19.382  0.00  0.00    +0.000 C 
ATOM      3  C   UNL     1       1.896   4.763  18.055  0.00  0.00    +0.000 C 
ATOM      4  C   UNL     1       3.027   5.783  17.789  0.00  0.00    +0.000 C 
ATOM      5  C   UNL     1       4.337   5.332  18.353  0.00  0.00    +0.000 A 
ATOM      6  C   UNL     1       4.455   4.226  19.175  0.00  0.00    +0.000 A 
ATOM      7  N   UNL     1       5.769   4.084  19.513  0.00  0.00    +0.000 N 
ATOM      8  C   UNL     1       6.492   5.151  19.031  0.00  0.00    +0.000 A 
ATOM      9  C   UNL     1       7.837   5.482  19.216  0.00  0.00    +0.000 A 
ATOM     10  C   UNL     1       8.311   6.652  18.607  0.00  0.00    +0.000 A 
ATOM     11  C   UNL     1       7.472   7.457  17.836  0.00  0.00    +0.000 A 
ATOM     12  C   UNL     1       6.122   7.119  17.683  0.00  0.00    +0.000 A 
ATOM     13  C   UNL     1       5.619   5.945  18.282  0.00  0.00    +0.000 A 
ATOM     14  C   UNL     1       3.361   3.424  19.661  0.00  0.00    +0.000 C 
ATOM     15  O   UNL     1       3.489   2.382  20.283  0.00  0.00    +0.000 OA
ATOM     16  H   UNL     1       6.130   3.353  20.115  0.00  0.00    +0.000 HD
ENDROOT
BRANCH  11  17
ATOM     17  O   UNL     1       7.848   8.630  17.230  0.00  0.00    +0.000 OA
BRANCH  17  18
ATOM     18  C   UNL     1       7.837   9.790  18.066  0.00  0.00    +0.000 C 
BRANCH  18  19
ATOM     19  C   UNL     1       9.259  10.082  18.573  0.00  0.00    +0.000 C 
ATOM     20  C   UNL     1       9.922  11.203  17.768  0.00  0.00    +0.000 C 
ATOM     21  C   UNL     1       9.215  10.453  20.055  0.00  0.00    +0.000 C 
ENDBRANCH  18  19
ENDBRANCH  17  18
ENDBRANCH  11  17
TORSDOF 3
ENDMDL
MODEL 9
REMARK VINA RESULT:      -7.3      3.710      5.650
REMARK  Name = 
REMARK  5 active torsions:
REMARK  status: ('A' for Active; 'I' for Inactive)
REMARK    1  A    between atoms: C_11  and  O_12
REMARK    2  A    between atoms: O_12  and  C_13
REMARK    3  A    between atoms: C_13  and  C_14
REMARK    4  A    between atoms: C_14  and  C_15
REMARK    5  A    between atoms: C_14  and  C_16
REMARK                            x       y       z     vdW  Elec       q    Type
REMARK                         _______ _______ _______ _____ _____    ______ ____
ROOT
ATOM      1  C   UNL     1       1.060  11.630  20.766  0.00  0.00    +0.000 C 
ATOM      2  C   UNL     1       0.832  10.508  20.064  0.00  0.00    +0.000 C 
ATOM      3  C   UNL     1       0.798  10.399  18.558  0.00  0.00    +0.000 C 
ATOM      4  C   UNL     1       1.790   9.357  17.991  0.00  0.00    +0.000 C 
ATOM      5  C   UNL     1       1.943   8.174  18.895  0.00  0.00    +0.000 A 
ATOM      6  C   UNL     1       1.400   8.131  20.166  0.00  0.00    +0.000 A 
ATOM      7  N   UNL     1       1.714   6.925  20.723  0.00  0.00    +0.000 N 
ATOM      8  C   UNL     1       2.559   6.233  19.887  0.00  0.00    +0.000 A 
ATOM      9  C   UNL     1       3.215   5.014  20.082  0.00  0.00    +0.000 A 
ATOM     10  C   UNL     1       4.037   4.543  19.050  0.00  0.00    +0.000 A 
ATOM     11  C   UNL     1       4.193   5.261  17.863  0.00  0.00    +0.000 A 
ATOM     12  C   UNL     1       3.544   6.491  17.699  0.00  0.00    +0.000 A 
ATOM     13  C   UNL     1       2.708   6.987  18.721  0.00  0.00    +0.000 A 
ATOM     14  C   UNL     1       0.705   9.212  20.817  0.00  0.00    +0.000 C 
ATOM     15  O   UNL     1       0.126   9.119  21.887  0.00  0.00    +0.000 OA
ATOM     16  H   UNL     1       1.442   6.637  21.656  0.00  0.00    +0.000 HD
ENDROOT
BRANCH  11  17
ATOM     17  O   UNL     1       4.998   4.886  16.817  0.00  0.00    +0.000 OA
BRANCH  17  18
ATOM     18  C   UNL     1       5.715   5.945  16.178  0.00  0.00    +0.000 C 
BRANCH  18  19
ATOM     19  C   UNL     1       7.177   5.947  16.653  0.00  0.00    +0.000 C 
ATOM     20  C   UNL     1       7.456   7.114  17.603  0.00  0.00    +0.000 C 
ATOM     21  C   UNL     1       7.502   4.620  17.339  0.00  0.00    +0.000 C 
ENDBRANCH  18  19
ENDBRANCH  17  18
ENDBRANCH  11  17
TORSDOF 3
ENDMDL
