MODEL 1
REMARK VINA RESULT:      -7.0      0.000      0.000
REMARK  Name = 
REMARK  6 active torsions:
REMARK  status: ('A' for Active; 'I' for Inactive)
REMARK    1  A    between atoms: C_2  and  C_3
REMARK    2  A    between atoms: C_2  and  C_14
REMARK    3  A    between atoms: C_3  and  C_4
REMARK    4  A    between atoms: C_4  and  N_5
REMARK    5  A    between atoms: C_4  and  C_10
REMARK    6  A    between atoms: C_17  and  N_18
REMARK                            x       y       z     vdW  Elec       q    Type
REMARK                         _______ _______ _______ _____ _____    ______ ____
ROOT
ATOM      1  O   UNL     1       6.121   4.791  19.338  0.00  0.00    +0.000 OA
ATOM      2  C   UNL     1       5.458   4.288  18.437  0.00  0.00    +0.000 C 
ENDROOT
BRANCH   2   3
ATOM      3  C   UNL     1       5.906   4.411  17.019  0.00  0.00    +0.000 A 
ATOM      4  C   UNL     1       5.062   4.070  15.950  0.00  0.00    +0.000 A 
ATOM      5  C   UNL     1       5.512   4.196  14.631  0.00  0.00    +0.000 A 
ATOM      6  C   UNL     1       6.810   4.662  14.384  0.00  0.00    +0.000 A 
ATOM      7  C   UNL     1       7.659   5.001  15.445  0.00  0.00    +0.000 A 
ATOM      8  C   UNL     1       7.205   4.868  16.761  0.00  0.00    +0.000 A 
BRANCH   6   9
ATOM      9  N   UNL     1       7.284   4.791  12.998  0.00  0.00    +0.000 N 
ATOM     10  O   UNL     1       8.004   5.762  12.727  0.00  0.00    +0.000 OA
ATOM     11  O   UNL     1       6.932   3.925  12.188  0.00  0.00    +0.000 OA
ENDBRANCH   6   9
ENDBRANCH   2   3
BRANCH   2  12
ATOM     12  C   UNL     1       4.199   3.495  18.727  0.00  0.00    +0.000 C 
BRANCH  12  13
ATOM     13  C   UNL     1       3.293   4.189  19.769  0.00  0.00    +0.000 C 
BRANCH  13  14
ATOM     14  N   UNL     1       2.864   5.505  19.313  0.00  0.00    +0.000 N 
ATOM     15  C   UNL     1       2.543   5.882  18.043  0.00  0.00    +0.000 A 
ATOM     16  N   UNL     1       2.171   7.141  18.045  0.00  0.00    +0.000 NA
ATOM     17  C   UNL     1       2.267   7.492  19.360  0.00  0.00    +0.000 A 
ATOM     18  N   UNL     1       2.700   6.526  20.176  0.00  0.00    +0.000 NA
ENDBRANCH  13  14
BRANCH  13  19
ATOM     19  C   UNL     1       2.103   3.304  20.268  0.00  0.00    +0.000 C 
ATOM     20 CL   UNL     1       0.506   4.163  20.345  0.00  0.00    +0.000 Cl
ATOM     21 CL   UNL     1       1.856   1.939  19.089  0.00  0.00    +0.000 Cl
ATOM     22 CL   UNL     1       2.314   2.528  21.883  0.00  0.00    +0.000 Cl
ENDBRANCH  13  19
ENDBRANCH  12  13
ENDBRANCH   2  12
TORSDOF 6
ENDMDL
MODEL 2
REMARK VINA RESULT:      -7.0      3.785      6.543
REMARK  Name = 
REMARK  6 active torsions:
REMARK  status: ('A' for Active; 'I' for Inactive)
REMARK    1  A    between atoms: C_2  and  C_3
REMARK    2  A    between atoms: C_2  and  C_14
REMARK    3  A    between atoms: C_3  and  C_4
REMARK    4  A    between atoms: C_4  and  N_5
REMARK    5  A    between atoms: C_4  and  C_10
REMARK    6  A    between atoms: C_17  and  N_18
REMARK                            x       y       z     vdW  Elec       q    Type
REMARK                         _______ _______ _______ _____ _____    ______ ____
ROOT
ATOM      1  O   UNL     1       3.148   8.277  17.625  0.00  0.00    +0.000 OA
ATOM      2  C   UNL     1       3.725   7.198  17.540  0.00  0.00    +0.000 C 
ENDROOT
BRANCH   2   3
ATOM      3  C   UNL     1       3.159   5.991  18.213  0.00  0.00    +0.000 A 
ATOM      4  C   UNL     1       2.762   4.861  17.481  0.00  0.00    +0.000 A 
ATOM      5  C   UNL     1       2.234   3.746  18.141  0.00  0.00    +0.000 A 
ATOM      6  C   UNL     1       2.100   3.765  19.536  0.00  0.00    +0.000 A 
ATOM      7  C   UNL     1       2.490   4.891  20.272  0.00  0.00    +0.000 A 
ATOM      8  C   UNL     1       3.013   6.005  19.606  0.00  0.00    +0.000 A 
BRANCH   6   9
ATOM      9  N   UNL     1       1.542   2.596  20.228  0.00  0.00    +0.000 N 
ATOM     10  O   UNL     1       1.507   1.524  19.607  0.00  0.00    +0.000 OA
ATOM     11  O   UNL     1       1.139   2.752  21.388  0.00  0.00    +0.000 OA
ENDBRANCH   6   9
ENDBRANCH   2   3
BRANCH   2  12
ATOM     12  C   UNL     1       4.993   7.037  16.726  0.00  0.00    +0.000 C 
BRANCH  12  13
ATOM     13  C   UNL     1       5.646   5.649  16.919  0.00  0.00    +0.000 C 
BRANCH  13  14
ATOM     14  N   UNL     1       6.041   5.063  15.644  0.00  0.00    +0.000 N 
ATOM     15  C   UNL     1       5.464   4.011  14.997  0.00  0.00    +0.000 A 
ATOM     16  N   UNL     1       6.086   3.807  13.860  0.00  0.00    +0.000 NA
ATOM     17  C   UNL     1       7.039   4.783  13.847  0.00  0.00    +0.000 A 
ATOM     18  N   UNL     1       7.060   5.572  14.926  0.00  0.00    +0.000 NA
ENDBRANCH  13  14
BRANCH  13  19
ATOM     19  C   UNL     1       6.797   5.628  17.977  0.00  0.00    +0.000 C 
ATOM     20 CL   UNL     1       8.063   4.361  17.688  0.00  0.00    +0.000 Cl
ATOM     21 CL   UNL     1       7.684   7.216  17.907  0.00  0.00    +0.000 Cl
ATOM     22 CL   UNL     1       6.291   5.424  19.697  0.00  0.00    +0.000 Cl
ENDBRANCH  13  19
ENDBRANCH  12  13
ENDBRANCH   2  12
TORSDOF 6
ENDMDL
MODEL 3
REMARK VINA RESULT:      -6.9      0.621      1.447
REMARK  Name = 
REMARK  6 active torsions:
REMARK  status: ('A' for Active; 'I' for Inactive)
REMARK    1  A    between atoms: C_2  and  C_3
REMARK    2  A    between atoms: C_2  and  C_14
REMARK    3  A    between atoms: C_3  and  C_4
REMARK    4  A    between atoms: C_4  and  N_5
REMARK    5  A    between atoms: C_4  and  C_10
REMARK    6  A    between atoms: C_17  and  N_18
REMARK                            x       y       z     vdW  Elec       q    Type
REMARK                         _______ _______ _______ _____ _____    ______ ____
ROOT
ATOM      1  O   UNL     1       6.242   4.924  19.470  0.00  0.00    +0.000 OA
ATOM      2  C   UNL     1       5.636   4.394  18.545  0.00  0.00    +0.000 C 
ENDROOT
BRANCH   2   3
ATOM      3  C   UNL     1       6.118   4.558  17.142  0.00  0.00    +0.000 A 
ATOM      4  C   UNL     1       7.012   5.580  16.788  0.00  0.00    +0.000 A 
ATOM      5  C   UNL     1       7.445   5.708  15.463  0.00  0.00    +0.000 A 
ATOM      6  C   UNL     1       6.979   4.812  14.492  0.00  0.00    +0.000 A 
ATOM      7  C   UNL     1       6.083   3.792  14.838  0.00  0.00    +0.000 A 
ATOM      8  C   UNL     1       5.650   3.672  16.162  0.00  0.00    +0.000 A 
BRANCH   6   9
ATOM      9  N   UNL     1       7.431   4.949  13.101  0.00  0.00    +0.000 N 
ATOM     10  O   UNL     1       6.905   4.215  12.252  0.00  0.00    +0.000 OA
ATOM     11  O   UNL     1       8.310   5.787  12.862  0.00  0.00    +0.000 OA
ENDBRANCH   6   9
ENDBRANCH   2   3
BRANCH   2  12
ATOM     12  C   UNL     1       4.416   3.528  18.788  0.00  0.00    +0.000 C 
BRANCH  12  13
ATOM     13  C   UNL     1       3.398   4.198  19.739  0.00  0.00    +0.000 C 
BRANCH  13  14
ATOM     14  N   UNL     1       2.907   5.458  19.194  0.00  0.00    +0.000 N 
ATOM     15  C   UNL     1       2.744   6.642  19.848  0.00  0.00    +0.000 A 
ATOM     16  N   UNL     1       2.313   7.550  19.004  0.00  0.00    +0.000 NA
ATOM     17  C   UNL     1       2.241   6.868  17.824  0.00  0.00    +0.000 A 
ATOM     18  N   UNL     1       2.584   5.577  17.891  0.00  0.00    +0.000 NA
ENDBRANCH  13  14
BRANCH  13  19
ATOM     19  C   UNL     1       2.245   3.251  20.208  0.00  0.00    +0.000 C 
ATOM     20 CL   UNL     1       0.604   4.024  20.247  0.00  0.00    +0.000 Cl
ATOM     21 CL   UNL     1       2.099   1.878  19.022  0.00  0.00    +0.000 Cl
ATOM     22 CL   UNL     1       2.458   2.483  21.827  0.00  0.00    +0.000 Cl
ENDBRANCH  13  19
ENDBRANCH  12  13
ENDBRANCH   2  12
TORSDOF 6
ENDMDL
MODEL 4
REMARK VINA RESULT:      -6.9      3.815      6.585
REMARK  Name = 
REMARK  6 active torsions:
REMARK  status: ('A' for Active; 'I' for Inactive)
REMARK    1  A    between atoms: C_2  and  C_3
REMARK    2  A    between atoms: C_2  and  C_14
REMARK    3  A    between atoms: C_3  and  C_4
REMARK    4  A    between atoms: C_4  and  N_5
REMARK    5  A    between atoms: C_4  and  C_10
REMARK    6  A    between atoms: C_17  and  N_18
REMARK                            x       y       z     vdW  Elec       q    Type
REMARK                         _______ _______ _______ _____ _____    ______ ____
ROOT
ATOM      1  O   UNL     1       3.393   8.424  17.897  0.00  0.00    +0.000 OA
ATOM      2  C   UNL     1       3.704   7.276  17.598  0.00  0.00    +0.000 C 
ENDROOT
BRANCH   2   3
ATOM      3  C   UNL     1       2.995   6.121  18.224  0.00  0.00    +0.000 A 
ATOM      4  C   UNL     1       2.901   5.985  19.617  0.00  0.00    +0.000 A 
ATOM      5  C   UNL     1       2.230   4.889  20.173  0.00  0.00    +0.000 A 
ATOM      6  C   UNL     1       1.656   3.928  19.331  0.00  0.00    +0.000 A 
ATOM      7  C   UNL     1       1.750   4.055  17.939  0.00  0.00    +0.000 A 
ATOM      8  C   UNL     1       2.426   5.150  17.390  0.00  0.00    +0.000 A 
BRANCH   6   9
ATOM      9  N   UNL     1       0.955   2.776  19.915  0.00  0.00    +0.000 N 
ATOM     10  O   UNL     1       1.106   2.568  21.127  0.00  0.00    +0.000 OA
ATOM     11  O   UNL     1       0.260   2.084  19.161  0.00  0.00    +0.000 OA
ENDBRANCH   6   9
ENDBRANCH   2   3
BRANCH   2  12
ATOM     12  C   UNL     1       4.774   6.987  16.565  0.00  0.00    +0.000 C 
BRANCH  12  13
ATOM     13  C   UNL     1       5.504   5.651  16.831  0.00  0.00    +0.000 C 
BRANCH  13  14
ATOM     14  N   UNL     1       5.922   5.014  15.588  0.00  0.00    +0.000 N 
ATOM     15  C   UNL     1       5.451   3.856  15.046  0.00  0.00    +0.000 A 
ATOM     16  N   UNL     1       6.053   3.634  13.901  0.00  0.00    +0.000 NA
ATOM     17  C   UNL     1       6.886   4.708  13.776  0.00  0.00    +0.000 A 
ATOM     18  N   UNL     1       6.851   5.577  14.791  0.00  0.00    +0.000 NA
ENDBRANCH  13  14
BRANCH  13  19
ATOM     19  C   UNL     1       6.663   5.755  17.876  0.00  0.00    +0.000 C 
ATOM     20 CL   UNL     1       6.149   5.504  19.598  0.00  0.00    +0.000 Cl
ATOM     21 CL   UNL     1       7.872   4.437  17.540  0.00  0.00    +0.000 Cl
ATOM     22 CL   UNL     1       7.601   7.296  17.870  0.00  0.00    +0.000 Cl
ENDBRANCH  13  19
ENDBRANCH  12  13
ENDBRANCH   2  12
TORSDOF 6
ENDMDL
MODEL 5
REMARK VINA RESULT:      -6.8      4.086      7.675
REMARK  Name = 
REMARK  6 active torsions:
REMARK  status: ('A' for Active; 'I' for Inactive)
REMARK    1  A    between atoms: C_2  and  C_3
REMARK    2  A    between atoms: C_2  and  C_14
REMARK    3  A    between atoms: C_3  and  C_4
REMARK    4  A    between atoms: C_4  and  N_5
REMARK    5  A    between atoms: C_4  and  C_10
REMARK    6  A    between atoms: C_17  and  N_18
REMARK                            x       y       z     vdW  Elec       q    Type
REMARK                         _______ _______ _______ _____ _____    ______ ____
ROOT
ATOM      1  O   UNL     1       2.571   7.827  17.664  0.00  0.00    +0.000 OA
ATOM      2  C   UNL     1       2.399   7.560  18.849  0.00  0.00    +0.000 C 
ENDROOT
BRANCH   2   3
ATOM      3  C   UNL     1       1.561   8.451  19.704  0.00  0.00    +0.000 A 
ATOM      4  C   UNL     1       0.983   9.624  19.196  0.00  0.00    +0.000 A 
ATOM      5  C   UNL     1       0.203  10.440  20.023  0.00  0.00    +0.000 A 
ATOM      6  C   UNL     1       0.005  10.080  21.363  0.00  0.00    +0.000 A 
ATOM      7  C   UNL     1       0.583   8.913  21.878  0.00  0.00    +0.000 A 
ATOM      8  C   UNL     1       1.366   8.105  21.047  0.00  0.00    +0.000 A 
BRANCH   6   9
ATOM      9  N   UNL     1      -0.811  10.938  22.233  0.00  0.00    +0.000 N 
ATOM     10  O   UNL     1      -1.412  11.884  21.704  0.00  0.00    +0.000 OA
ATOM     11  O   UNL     1      -0.845  10.666  23.440  0.00  0.00    +0.000 OA
ENDBRANCH   6   9
ENDBRANCH   2   3
BRANCH   2  12
ATOM     12  C   UNL     1       2.986   6.310  19.473  0.00  0.00    +0.000 C 
BRANCH  12  13
ATOM     13  C   UNL     1       2.793   5.061  18.583  0.00  0.00    +0.000 C 
BRANCH  13  14
ATOM     14  N   UNL     1       4.007   4.738  17.845  0.00  0.00    +0.000 N 
ATOM     15  C   UNL     1       5.279   5.145  18.115  0.00  0.00    +0.000 A 
ATOM     16  N   UNL     1       6.101   4.613  17.240  0.00  0.00    +0.000 NA
ATOM     17  C   UNL     1       5.275   3.865  16.453  0.00  0.00    +0.000 A 
ATOM     18  N   UNL     1       3.979   3.918  16.776  0.00  0.00    +0.000 NA
ENDBRANCH  13  14
BRANCH  13  19
ATOM     19  C   UNL     1       2.198   3.827  19.338  0.00  0.00    +0.000 C 
ATOM     20 CL   UNL     1       3.437   2.729  20.081  0.00  0.00    +0.000 Cl
ATOM     21 CL   UNL     1       1.191   4.425  20.731  0.00  0.00    +0.000 Cl
ATOM     22 CL   UNL     1       1.115   2.753  18.374  0.00  0.00    +0.000 Cl
ENDBRANCH  13  19
ENDBRANCH  12  13
ENDBRANCH   2  12
TORSDOF 6
ENDMDL
MODEL 6
REMARK VINA RESULT:      -6.8      3.778      6.954
REMARK  Name = 
REMARK  6 active torsions:
REMARK  status: ('A' for Active; 'I' for Inactive)
REMARK    1  A    between atoms: C_2  and  C_3
REMARK    2  A    between atoms: C_2  and  C_14
REMARK    3  A    between atoms: C_3  and  C_4
REMARK    4  A    between atoms: C_4  and  N_5
REMARK    5  A    between atoms: C_4  and  C_10
REMARK    6  A    between atoms: C_17  and  N_18
REMARK                            x       y       z     vdW  Elec       q    Type
REMARK                         _______ _______ _______ _____ _____    ______ ____
ROOT
ATOM      1  O   UNL     1       3.877   7.140  17.089  0.00  0.00    +0.000 OA
ATOM      2  C   UNL     1       3.375   6.965  18.195  0.00  0.00    +0.000 C 
ENDROOT
BRANCH   2   3
ATOM      3  C   UNL     1       2.360   7.926  18.718  0.00  0.00    +0.000 A 
ATOM      4  C   UNL     1       1.908   7.866  20.045  0.00  0.00    +0.000 A 
ATOM      5  C   UNL     1       0.954   8.781  20.505  0.00  0.00    +0.000 A 
ATOM      6  C   UNL     1       0.451   9.755  19.632  0.00  0.00    +0.000 A 
ATOM      7  C   UNL     1       0.894   9.817  18.305  0.00  0.00    +0.000 A 
ATOM      8  C   UNL     1       1.844   8.897  17.850  0.00  0.00    +0.000 A 
BRANCH   6   9
ATOM      9  N   UNL     1      -0.554  10.713  20.114  0.00  0.00    +0.000 N 
ATOM     10  O   UNL     1      -1.494  10.988  19.356  0.00  0.00    +0.000 OA
ATOM     11  O   UNL     1      -0.398  11.189  21.246  0.00  0.00    +0.000 OA
ENDBRANCH   6   9
ENDBRANCH   2   3
BRANCH   2  12
ATOM     12  C   UNL     1       3.729   5.761  19.045  0.00  0.00    +0.000 C 
BRANCH  12  13
ATOM     13  C   UNL     1       4.131   4.536  18.191  0.00  0.00    +0.000 C 
BRANCH  13  14
ATOM     14  N   UNL     1       5.559   4.533  17.900  0.00  0.00    +0.000 N 
ATOM     15  C   UNL     1       6.166   4.275  16.707  0.00  0.00    +0.000 A 
ATOM     16  N   UNL     1       7.465   4.407  16.842  0.00  0.00    +0.000 NA
ATOM     17  C   UNL     1       7.606   4.767  18.150  0.00  0.00    +0.000 A 
ATOM     18  N   UNL     1       6.467   4.846  18.845  0.00  0.00    +0.000 NA
ENDBRANCH  13  14
BRANCH  13  19
ATOM     19  C   UNL     1       3.628   3.169  18.761  0.00  0.00    +0.000 C 
ATOM     20 CL   UNL     1       4.666   2.473  20.077  0.00  0.00    +0.000 Cl
ATOM     21 CL   UNL     1       1.994   3.421  19.522  0.00  0.00    +0.000 Cl
ATOM     22 CL   UNL     1       3.412   1.839  17.561  0.00  0.00    +0.000 Cl
ENDBRANCH  13  19
ENDBRANCH  12  13
ENDBRANCH   2  12
TORSDOF 6
ENDMDL
MODEL 7
REMARK VINA RESULT:      -6.8      4.067      7.541
REMARK  Name = 
REMARK  6 active torsions:
REMARK  status: ('A' for Active; 'I' for Inactive)
REMARK    1  A    between atoms: C_2  and  C_3
REMARK    2  A    between atoms: C_2  and  C_14
REMARK    3  A    between atoms: C_3  and  C_4
REMARK    4  A    between atoms: C_4  and  N_5
REMARK    5  A    between atoms: C_4  and  C_10
REMARK    6  A    between atoms: C_17  and  N_18
REMARK                            x       y       z     vdW  Elec       q    Type
REMARK                         _______ _______ _______ _____ _____    ______ ____
ROOT
ATOM      1  O   UNL     1       2.684   7.506  17.826  0.00  0.00    +0.000 OA
ATOM      2  C   UNL     1       2.426   7.306  19.008  0.00  0.00    +0.000 C 
ENDROOT
BRANCH   2   3
ATOM      3  C   UNL     1       1.613   8.296  19.775  0.00  0.00    +0.000 A 
ATOM      4  C   UNL     1       1.136   9.474  19.179  0.00  0.00    +0.000 A 
ATOM      5  C   UNL     1       0.377  10.382  19.925  0.00  0.00    +0.000 A 
ATOM      6  C   UNL     1       0.099  10.111  21.271  0.00  0.00    +0.000 A 
ATOM      7  C   UNL     1       0.575   8.940  21.874  0.00  0.00    +0.000 A 
ATOM      8  C   UNL     1       1.337   8.038  21.124  0.00  0.00    +0.000 A 
BRANCH   6   9
ATOM      9  N   UNL     1      -0.695  11.067  22.055  0.00  0.00    +0.000 N 
ATOM     10  O   UNL     1      -0.542  11.067  23.284  0.00  0.00    +0.000 OA
ATOM     11  O   UNL     1      -1.469  11.812  21.440  0.00  0.00    +0.000 OA
ENDBRANCH   6   9
ENDBRANCH   2   3
BRANCH   2  12
ATOM     12  C   UNL     1       2.878   6.046  19.717  0.00  0.00    +0.000 C 
BRANCH  12  13
ATOM     13  C   UNL     1       3.211   4.903  18.731  0.00  0.00    +0.000 C 
BRANCH  13  14
ATOM     14  N   UNL     1       4.642   4.831  18.460  0.00  0.00    +0.000 N 
ATOM     15  C   UNL     1       5.258   4.279  17.377  0.00  0.00    +0.000 A 
ATOM     16  N   UNL     1       6.556   4.446  17.483  0.00  0.00    +0.000 NA
ATOM     17  C   UNL     1       6.686   5.128  18.657  0.00  0.00    +0.000 A 
ATOM     18  N   UNL     1       5.541   5.378  19.301  0.00  0.00    +0.000 NA
ENDBRANCH  13  14
BRANCH  13  19
ATOM     19  C   UNL     1       2.601   3.519  19.129  0.00  0.00    +0.000 C 
ATOM     20 CL   UNL     1       2.197   2.442  17.726  0.00  0.00    +0.000 Cl
ATOM     21 CL   UNL     1       3.832   2.596  20.102  0.00  0.00    +0.000 Cl
ATOM     22 CL   UNL     1       1.111   3.572  20.145  0.00  0.00    +0.000 Cl
ENDBRANCH  13  19
ENDBRANCH  12  13
ENDBRANCH   2  12
TORSDOF 6
ENDMDL
MODEL 8
REMARK VINA RESULT:      -6.7      3.925      7.358
REMARK  Name = 
REMARK  6 active torsions:
REMARK  status: ('A' for Active; 'I' for Inactive)
REMARK    1  A    between atoms: C_2  and  C_3
REMARK    2  A    between atoms: C_2  and  C_14
REMARK    3  A    between atoms: C_3  and  C_4
REMARK    4  A    between atoms: C_4  and  N_5
REMARK    5  A    between atoms: C_4  and  C_10
REMARK    6  A    between atoms: C_17  and  N_18
REMARK                            x       y       z     vdW  Elec       q    Type
REMARK                         _______ _______ _______ _____ _____    ______ ____
ROOT
ATOM      1  O   UNL     1       2.935   7.238  17.823  0.00  0.00    +0.000 OA
ATOM      2  C   UNL     1       2.552   7.034  18.970  0.00  0.00    +0.000 C 
ENDROOT
BRANCH   2   3
ATOM      3  C   UNL     1       1.765   8.076  19.694  0.00  0.00    +0.000 A 
ATOM      4  C   UNL     1       1.315   9.237  19.047  0.00  0.00    +0.000 A 
ATOM      5  C   UNL     1       0.580  10.196  19.753  0.00  0.00    +0.000 A 
ATOM      6  C   UNL     1       0.299   9.992  21.110  0.00  0.00    +0.000 A 
ATOM      7  C   UNL     1       0.749   8.838  21.764  0.00  0.00    +0.000 A 
ATOM      8  C   UNL     1       1.487   7.885  21.054  0.00  0.00    +0.000 A 
BRANCH   6   9
ATOM      9  N   UNL     1      -0.469  11.001  21.853  0.00  0.00    +0.000 N 
ATOM     10  O   UNL     1      -0.371  11.001  23.088  0.00  0.00    +0.000 OA
ATOM     11  O   UNL     1      -1.169  11.785  21.200  0.00  0.00    +0.000 OA
ENDBRANCH   6   9
ENDBRANCH   2   3
BRANCH   2  12
ATOM     12  C   UNL     1       2.819   5.719  19.674  0.00  0.00    +0.000 C 
BRANCH  12  13
ATOM     13  C   UNL     1       3.137   4.575  18.683  0.00  0.00    +0.000 C 
BRANCH  13  14
ATOM     14  N   UNL     1       4.542   4.577  18.297  0.00  0.00    +0.000 N 
ATOM     15  C   UNL     1       5.631   4.549  19.117  0.00  0.00    +0.000 A 
ATOM     16  N   UNL     1       6.722   4.525  18.389  0.00  0.00    +0.000 NA
ATOM     17  C   UNL     1       6.244   4.524  17.111  0.00  0.00    +0.000 A 
ATOM     18  N   UNL     1       4.912   4.567  17.002  0.00  0.00    +0.000 NA
ENDBRANCH  13  14
BRANCH  13  19
ATOM     19  C   UNL     1       2.641   3.168  19.154  0.00  0.00    +0.000 C 
ATOM     20 CL   UNL     1       0.848   2.918  19.022  0.00  0.00    +0.000 Cl
ATOM     21 CL   UNL     1       3.382   1.898  18.081  0.00  0.00    +0.000 Cl
ATOM     22 CL   UNL     1       3.072   2.699  20.842  0.00  0.00    +0.000 Cl
ENDBRANCH  13  19
ENDBRANCH  12  13
ENDBRANCH   2  12
TORSDOF 6
ENDMDL
MODEL 9
REMARK VINA RESULT:      -6.7      3.949      7.390
REMARK  Name = 
REMARK  6 active torsions:
REMARK  status: ('A' for Active; 'I' for Inactive)
REMARK    1  A    between atoms: C_2  and  C_3
REMARK    2  A    between atoms: C_2  and  C_14
REMARK    3  A    between atoms: C_3  and  C_4
REMARK    4  A    between atoms: C_4  and  N_5
REMARK    5  A    between atoms: C_4  and  C_10
REMARK    6  A    between atoms: C_17  and  N_18
REMARK                            x       y       z     vdW  Elec       q    Type
REMARK                         _______ _______ _______ _____ _____    ______ ____
ROOT
ATOM      1  O   UNL     1       2.935   7.281  17.879  0.00  0.00    +0.000 OA
ATOM      2  C   UNL     1       2.548   7.045  19.019  0.00  0.00    +0.000 C 
ENDROOT
BRANCH   2   3
ATOM      3  C   UNL     1       1.747   8.061  19.763  0.00  0.00    +0.000 A 
ATOM      4  C   UNL     1       1.383   7.870  21.105  0.00  0.00    +0.000 A 
ATOM      5  C   UNL     1       0.630   8.841  21.775  0.00  0.00    +0.000 A 
ATOM      6  C   UNL     1       0.238  10.003  21.097  0.00  0.00    +0.000 A 
ATOM      7  C   UNL     1       0.593  10.198  19.757  0.00  0.00    +0.000 A 
ATOM      8  C   UNL     1       1.342   9.222  19.091  0.00  0.00    +0.000 A 
BRANCH   6   9
ATOM      9  N   UNL     1      -0.556  11.020  21.800  0.00  0.00    +0.000 N 
ATOM     10  O   UNL     1      -1.351  11.691  21.128  0.00  0.00    +0.000 OA
ATOM     11  O   UNL     1      -0.379  11.147  23.018  0.00  0.00    +0.000 OA
ENDBRANCH   6   9
ENDBRANCH   2   3
BRANCH   2  12
ATOM     12  C   UNL     1       2.827   5.716  19.692  0.00  0.00    +0.000 C 
BRANCH  12  13
ATOM     13  C   UNL     1       3.132   4.593  18.674  0.00  0.00    +0.000 C 
BRANCH  13  14
ATOM     14  N   UNL     1       4.537   4.592  18.286  0.00  0.00    +0.000 N 
ATOM     15  C   UNL     1       5.627   4.567  19.103  0.00  0.00    +0.000 A 
ATOM     16  N   UNL     1       6.718   4.539  18.374  0.00  0.00    +0.000 NA
ATOM     17  C   UNL     1       6.237   4.533  17.097  0.00  0.00    +0.000 A 
ATOM     18  N   UNL     1       4.905   4.577  16.990  0.00  0.00    +0.000 NA
ENDBRANCH  13  14
BRANCH  13  19
ATOM     19  C   UNL     1       2.625   3.180  19.113  0.00  0.00    +0.000 C 
ATOM     20 CL   UNL     1       0.838   2.930  18.926  0.00  0.00    +0.000 Cl
ATOM     21 CL   UNL     1       3.398   1.925  18.045  0.00  0.00    +0.000 Cl
ATOM     22 CL   UNL     1       3.009   2.690  20.806  0.00  0.00    +0.000 Cl
ENDBRANCH  13  19
ENDBRANCH  12  13
ENDBRANCH   2  12
TORSDOF 6
ENDMDL
