MODEL 1
REMARK VINA RESULT:      -8.6      0.000      0.000
REMARK  Name = 
REMARK  9 active torsions:
REMARK  status: ('A' for Active; 'I' for Inactive)
REMARK    1  A    between atoms: C_1  and  O_2
REMARK    2  A    between atoms: O_2  and  C_3
REMARK    3  A    between atoms: C_6  and  C_7
REMARK    4  A    between atoms: C_10  and  C_11
REMARK    5  A    between atoms: N_17  and  C_18
REMARK    6  A    between atoms: C_20  and  O_21
REMARK    7  A    between atoms: O_21  and  C_22
REMARK    8  A    between atoms: C_22  and  C_23
REMARK    9  A    between atoms: C_23  and  O_24
REMARK                            x       y       z     vdW  Elec       q    Type
REMARK                         _______ _______ _______ _____ _____    ______ ____
ROOT
ATOM      1  C   UNL     1       3.116   6.499  18.814  0.00  0.00    +0.000 A 
ATOM      2  C   UNL     1       3.313   5.500  19.713  0.00  0.00    +0.000 A 
ATOM      3  C   UNL     1       3.948   4.204  19.262  0.00  0.00    +0.000 A 
ATOM      4  C   UNL     1       3.677   3.049  19.958  0.00  0.00    +0.000 A 
ATOM      5  C   UNL     1       4.611   1.853  19.781  0.00  0.00    +0.000 C 
ATOM      6  N   UNL     1       2.406   2.646  19.928  0.00  0.00    +0.000 NA
ATOM      7  C   UNL     1       1.843   2.788  18.723  0.00  0.00    +0.000 A 
ATOM      8  N   UNL     1       0.555   2.276  18.646  0.00  0.00    +0.000 N 
ATOM      9  N   UNL     1       2.466   3.362  17.665  0.00  0.00    +0.000 NA
ATOM     10  C   UNL     1       3.619   4.024  17.937  0.00  0.00    +0.000 A 
ATOM     11  N   UNL     1       4.097   5.048  17.054  0.00  0.00    +0.000 N 
ATOM     12  C   UNL     1       3.864   6.359  17.513  0.00  0.00    +0.000 A 
ATOM     13  O   UNL     1       4.310   7.366  16.966  0.00  0.00    +0.000 OA
ATOM     14  H   UNL     1       0.668   1.280  18.834  0.00  0.00    +0.000 HD
ATOM     15  H   UNL     1       0.113   2.600  19.509  0.00  0.00    +0.000 HD
ENDROOT
BRANCH   1  19
ATOM     16  C   UNL     1       0.571   9.834  19.431  0.00  0.00    +0.000 A 
ATOM     17  C   UNL     1       0.999   9.573  18.142  0.00  0.00    +0.000 A 
ATOM     18  C   UNL     1       1.836   8.475  17.952  0.00  0.00    +0.000 A 
ATOM     19  C   UNL     1       2.237   7.668  19.034  0.00  0.00    +0.000 A 
ATOM     20  C   UNL     1       1.740   8.037  20.282  0.00  0.00    +0.000 A 
ATOM     21  N   UNL     1       0.917   9.088  20.510  0.00  0.00    +0.000 NA
BRANCH  16  23
ATOM     22  C   UNL     1      -0.922  11.316  18.399  0.00  0.00    +0.000 C 
ATOM     23  O   UNL     1      -0.259  10.926  19.600  0.00  0.00    +0.000 OA
ENDBRANCH  16  23
ENDBRANCH   1  19
BRANCH  11  24
ATOM     24  C   UNL     1       5.521   4.855  16.537  0.00  0.00    +0.000 C 
ATOM     25  C   UNL     1       5.882   3.486  15.915  0.00  0.00    +0.000 C 
ATOM     26  C   UNL     1       5.523   4.077  14.528  0.00  0.00    +0.000 C 
ATOM     27  C   UNL     1       5.835   5.459  15.136  0.00  0.00    +0.000 C 
BRANCH  26  28
ATOM     28  O   UNL     1       6.351   3.696  13.407  0.00  0.00    +0.000 OA
BRANCH  28  29
ATOM     29  C   UNL     1       5.655   3.505  12.171  0.00  0.00    +0.000 C 
BRANCH  29  30
ATOM     30  C   UNL     1       5.778   2.050  11.731  0.00  0.00    +0.000 C 
BRANCH  30  31
ATOM     31  O   UNL     1       7.122   1.752  11.359  0.00  0.00    +0.000 OA
ATOM     32  H   UNL     1       7.650   2.510  11.674  0.00  0.00    +0.000 HD
ENDBRANCH  30  31
ENDBRANCH  29  30
ENDBRANCH  28  29
ENDBRANCH  26  28
ENDBRANCH  11  24
TORSDOF 7
ENDMDL
MODEL 2
REMARK VINA RESULT:      -8.4      0.752      1.094
REMARK  Name = 
REMARK  9 active torsions:
REMARK  status: ('A' for Active; 'I' for Inactive)
REMARK    1  A    between atoms: C_1  and  O_2
REMARK    2  A    between atoms: O_2  and  C_3
REMARK    3  A    between atoms: C_6  and  C_7
REMARK    4  A    between atoms: C_10  and  C_11
REMARK    5  A    between atoms: N_17  and  C_18
REMARK    6  A    between atoms: C_20  and  O_21
REMARK    7  A    between atoms: O_21  and  C_22
REMARK    8  A    between atoms: C_22  and  C_23
REMARK    9  A    between atoms: C_23  and  O_24
REMARK                            x       y       z     vdW  Elec       q    Type
REMARK                         _______ _______ _______ _____ _____    ______ ____
ROOT
ATOM      1  C   UNL     1       3.073   6.533  18.931  0.00  0.00    +0.000 A 
ATOM      2  C   UNL     1       3.263   5.514  19.810  0.00  0.00    +0.000 A 
ATOM      3  C   UNL     1       3.904   4.229  19.337  0.00  0.00    +0.000 A 
ATOM      4  C   UNL     1       3.628   3.059  20.005  0.00  0.00    +0.000 A 
ATOM      5  C   UNL     1       4.566   1.869  19.811  0.00  0.00    +0.000 C 
ATOM      6  N   UNL     1       2.358   2.656  19.953  0.00  0.00    +0.000 NA
ATOM      7  C   UNL     1       1.807   2.823  18.746  0.00  0.00    +0.000 A 
ATOM      8  N   UNL     1       0.521   2.311  18.644  0.00  0.00    +0.000 N 
ATOM      9  N   UNL     1       2.440   3.420  17.707  0.00  0.00    +0.000 NA
ATOM     10  C   UNL     1       3.589   4.078  18.005  0.00  0.00    +0.000 A 
ATOM     11  N   UNL     1       4.075   5.122  17.150  0.00  0.00    +0.000 N 
ATOM     12  C   UNL     1       3.834   6.423  17.634  0.00  0.00    +0.000 A 
ATOM     13  O   UNL     1       4.285   7.442  17.115  0.00  0.00    +0.000 OA
ATOM     14  H   UNL     1       0.634   1.311  18.811  0.00  0.00    +0.000 HD
ATOM     15  H   UNL     1       0.070   2.615  19.510  0.00  0.00    +0.000 HD
ENDROOT
BRANCH   1  19
ATOM     16  C   UNL     1       0.567   9.881  19.628  0.00  0.00    +0.000 A 
ATOM     17  C   UNL     1       0.841   9.042  20.692  0.00  0.00    +0.000 A 
ATOM     18  C   UNL     1       1.665   7.944  20.450  0.00  0.00    +0.000 A 
ATOM     19  C   UNL     1       2.190   7.696  19.168  0.00  0.00    +0.000 A 
ATOM     20  C   UNL     1       1.838   8.613  18.181  0.00  0.00    +0.000 A 
ATOM     21  N   UNL     1       1.050   9.697  18.373  0.00  0.00    +0.000 NA
BRANCH  16  23
ATOM     22  C   UNL     1      -0.212  11.383  21.249  0.00  0.00    +0.000 C 
ATOM     23  O   UNL     1      -0.251  10.965  19.886  0.00  0.00    +0.000 OA
ENDBRANCH  16  23
ENDBRANCH   1  19
BRANCH  11  24
ATOM     24  C   UNL     1       5.504   4.942  16.644  0.00  0.00    +0.000 C 
ATOM     25  C   UNL     1       5.875   3.586  16.000  0.00  0.00    +0.000 C 
ATOM     26  C   UNL     1       5.528   4.202  14.621  0.00  0.00    +0.000 C 
ATOM     27  C   UNL     1       5.830   5.573  15.257  0.00  0.00    +0.000 C 
BRANCH  26  28
ATOM     28  O   UNL     1       6.369   3.843  13.501  0.00  0.00    +0.000 OA
BRANCH  28  29
ATOM     29  C   UNL     1       5.676   3.339  12.355  0.00  0.00    +0.000 C 
BRANCH  29  30
ATOM     30  C   UNL     1       6.577   2.373  11.593  0.00  0.00    +0.000 C 
BRANCH  30  31
ATOM     31  O   UNL     1       5.961   1.091  11.489  0.00  0.00    +0.000 OA
ATOM     32  H   UNL     1       5.120   1.170  11.978  0.00  0.00    +0.000 HD
ENDBRANCH  30  31
ENDBRANCH  29  30
ENDBRANCH  28  29
ENDBRANCH  26  28
ENDBRANCH  11  24
TORSDOF 7
ENDMDL
MODEL 3
REMARK VINA RESULT:      -8.0      1.140      1.514
REMARK  Name = 
REMARK  9 active torsions:
REMARK  status: ('A' for Active; 'I' for Inactive)
REMARK    1  A    between atoms: C_1  and  O_2
REMARK    2  A    between atoms: O_2  and  C_3
REMARK    3  A    between atoms: C_6  and  C_7
REMARK    4  A    between atoms: C_10  and  C_11
REMARK    5  A    between atoms: N_17  and  C_18
REMARK    6  A    between atoms: C_20  and  O_21
REMARK    7  A    between atoms: O_21  and  C_22
REMARK    8  A    between atoms: C_22  and  C_23
REMARK    9  A    between atoms: C_23  and  O_24
REMARK                            x       y       z     vdW  Elec       q    Type
REMARK                         _______ _______ _______ _____ _____    ______ ____
ROOT
ATOM      1  C   UNL     1       2.754   6.738  19.386  0.00  0.00    +0.000 A 
ATOM      2  C   UNL     1       2.986   5.644  20.158  0.00  0.00    +0.000 A 
ATOM      3  C   UNL     1       3.692   4.447  19.564  0.00  0.00    +0.000 A 
ATOM      4  C   UNL     1       3.467   3.202  20.105  0.00  0.00    +0.000 A 
ATOM      5  C   UNL     1       4.462   2.084  19.802  0.00  0.00    +0.000 C 
ATOM      6  N   UNL     1       2.218   2.747  19.995  0.00  0.00    +0.000 NA
ATOM      7  C   UNL     1       1.669   3.012  18.805  0.00  0.00    +0.000 A 
ATOM      8  N   UNL     1       0.409   2.454  18.635  0.00  0.00    +0.000 N 
ATOM      9  N   UNL     1       2.281   3.743  17.841  0.00  0.00    +0.000 NA
ATOM     10  C   UNL     1       3.394   4.419  18.220  0.00  0.00    +0.000 A 
ATOM     11  N   UNL     1       3.836   5.568  17.482  0.00  0.00    +0.000 N 
ATOM     12  C   UNL     1       3.530   6.799  18.095  0.00  0.00    +0.000 A 
ATOM     13  O   UNL     1       3.935   7.886  17.688  0.00  0.00    +0.000 OA
ATOM     14  H   UNL     1       0.569   1.448  18.700  0.00  0.00    +0.000 HD
ATOM     15  H   UNL     1      -0.062   2.645  19.521  0.00  0.00    +0.000 HD
ENDROOT
BRANCH   1  19
ATOM     16  C   UNL     1       0.085   9.876  20.391  0.00  0.00    +0.000 A 
ATOM     17  C   UNL     1       0.394   8.948  21.368  0.00  0.00    +0.000 A 
ATOM     18  C   UNL     1       1.271   7.920  21.025  0.00  0.00    +0.000 A 
ATOM     19  C   UNL     1       1.815   7.828  19.730  0.00  0.00    +0.000 A 
ATOM     20  C   UNL     1       1.424   8.823  18.837  0.00  0.00    +0.000 A 
ATOM     21  N   UNL     1       0.584   9.843  19.129  0.00  0.00    +0.000 NA
BRANCH  16  23
ATOM     22  C   UNL     1      -0.860  11.089  22.159  0.00  0.00    +0.000 C 
ATOM     23  O   UNL     1      -0.786  10.888  20.749  0.00  0.00    +0.000 OA
ENDBRANCH  16  23
ENDBRANCH   1  19
BRANCH  11  24
ATOM     24  C   UNL     1       5.276   5.508  16.978  0.00  0.00    +0.000 C 
ATOM     25  C   UNL     1       5.895   4.113  16.729  0.00  0.00    +0.000 C 
ATOM     26  C   UNL     1       5.446   4.232  15.251  0.00  0.00    +0.000 C 
ATOM     27  C   UNL     1       5.486   5.759  15.455  0.00  0.00    +0.000 C 
BRANCH  26  28
ATOM     28  O   UNL     1       6.344   3.722  14.240  0.00  0.00    +0.000 OA
BRANCH  28  29
ATOM     29  C   UNL     1       5.752   3.496  12.956  0.00  0.00    +0.000 C 
BRANCH  29  30
ATOM     30  C   UNL     1       6.793   3.717  11.864  0.00  0.00    +0.000 C 
BRANCH  30  31
ATOM     31  O   UNL     1       7.616   4.837  12.177  0.00  0.00    +0.000 OA
ATOM     32  H   UNL     1       7.651   4.866  13.152  0.00  0.00    +0.000 HD
ENDBRANCH  30  31
ENDBRANCH  29  30
ENDBRANCH  28  29
ENDBRANCH  26  28
ENDBRANCH  11  24
TORSDOF 7
ENDMDL
MODEL 4
REMARK VINA RESULT:      -7.8      3.142      5.320
REMARK  Name = 
REMARK  9 active torsions:
REMARK  status: ('A' for Active; 'I' for Inactive)
REMARK    1  A    between atoms: C_1  and  O_2
REMARK    2  A    between atoms: O_2  and  C_3
REMARK    3  A    between atoms: C_6  and  C_7
REMARK    4  A    between atoms: C_10  and  C_11
REMARK    5  A    between atoms: N_17  and  C_18
REMARK    6  A    between atoms: C_20  and  O_21
REMARK    7  A    between atoms: O_21  and  C_22
REMARK    8  A    between atoms: C_22  and  C_23
REMARK    9  A    between atoms: C_23  and  O_24
REMARK                            x       y       z     vdW  Elec       q    Type
REMARK                         _______ _______ _______ _____ _____    ______ ____
ROOT
ATOM      1  C   UNL     1       2.744   6.651  18.587  0.00  0.00    +0.000 A 
ATOM      2  C   UNL     1       3.367   6.453  17.395  0.00  0.00    +0.000 A 
ATOM      3  C   UNL     1       4.273   5.256  17.216  0.00  0.00    +0.000 A 
ATOM      4  C   UNL     1       5.283   5.316  16.285  0.00  0.00    +0.000 A 
ATOM      5  C   UNL     1       5.915   4.010  15.809  0.00  0.00    +0.000 C 
ATOM      6  N   UNL     1       6.230   6.223  16.525  0.00  0.00    +0.000 NA
ATOM      7  C   UNL     1       6.575   6.289  17.815  0.00  0.00    +0.000 A 
ATOM      8  N   UNL     1       7.633   7.152  18.067  0.00  0.00    +0.000 N 
ATOM      9  N   UNL     1       5.966   5.574  18.793  0.00  0.00    +0.000 NA
ATOM     10  C   UNL     1       4.808   4.957  18.449  0.00  0.00    +0.000 A 
ATOM     11  N   UNL     1       3.845   4.601  19.452  0.00  0.00    +0.000 N 
ATOM     12  C   UNL     1       2.738   5.469  19.522  0.00  0.00    +0.000 A 
ATOM     13  O   UNL     1       1.749   5.263  20.222  0.00  0.00    +0.000 OA
ATOM     14  H   UNL     1       8.413   6.752  17.545  0.00  0.00    +0.000 HD
ATOM     15  H   UNL     1       7.411   7.977  17.507  0.00  0.00    +0.000 HD
ENDROOT
BRANCH   1  19
ATOM     16  C   UNL     1       0.874  10.273  19.755  0.00  0.00    +0.000 A 
ATOM     17  C   UNL     1       1.252  10.134  18.432  0.00  0.00    +0.000 A 
ATOM     18  C   UNL     1       1.867   8.940  18.061  0.00  0.00    +0.000 A 
ATOM     19  C   UNL     1       2.102   7.918  19.001  0.00  0.00    +0.000 A 
ATOM     20  C   UNL     1       1.676   8.181  20.300  0.00  0.00    +0.000 A 
ATOM     21  N   UNL     1       1.066   9.320  20.703  0.00  0.00    +0.000 NA
BRANCH  16  23
ATOM     22  C   UNL     1      -0.839  11.795  19.266  0.00  0.00    +0.000 C 
ATOM     23  O   UNL     1       0.265  11.463  20.105  0.00  0.00    +0.000 OA
ENDBRANCH  16  23
ENDBRANCH   1  19
BRANCH  11  24
ATOM     24  C   UNL     1       3.437   3.130  19.475  0.00  0.00    +0.000 C 
ATOM     25  C   UNL     1       4.442   2.095  18.918  0.00  0.00    +0.000 C 
ATOM     26  C   UNL     1       4.974   1.908  20.362  0.00  0.00    +0.000 C 
ATOM     27  C   UNL     1       3.591   2.392  20.839  0.00  0.00    +0.000 C 
BRANCH  26  28
ATOM     28  O   UNL     1       5.333   0.569  20.770  0.00  0.00    +0.000 OA
BRANCH  28  29
ATOM     29  C   UNL     1       5.985   0.473  22.041  0.00  0.00    +0.000 C 
BRANCH  29  30
ATOM     30  C   UNL     1       6.707  -0.866  22.149  0.00  0.00    +0.000 C 
BRANCH  30  31
ATOM     31  O   UNL     1       6.262  -1.583  23.298  0.00  0.00    +0.000 OA
ATOM     32  H   UNL     1       5.681  -2.287  22.952  0.00  0.00    +0.000 HD
ENDBRANCH  30  31
ENDBRANCH  29  30
ENDBRANCH  28  29
ENDBRANCH  26  28
ENDBRANCH  11  24
TORSDOF 7
ENDMDL
MODEL 5
REMARK VINA RESULT:      -7.4      0.968      1.033
REMARK  Name = 
REMARK  9 active torsions:
REMARK  status: ('A' for Active; 'I' for Inactive)
REMARK    1  A    between atoms: C_1  and  O_2
REMARK    2  A    between atoms: O_2  and  C_3
REMARK    3  A    between atoms: C_6  and  C_7
REMARK    4  A    between atoms: C_10  and  C_11
REMARK    5  A    between atoms: N_17  and  C_18
REMARK    6  A    between atoms: C_20  and  O_21
REMARK    7  A    between atoms: O_21  and  C_22
REMARK    8  A    between atoms: C_22  and  C_23
REMARK    9  A    between atoms: C_23  and  O_24
REMARK                            x       y       z     vdW  Elec       q    Type
REMARK                         _______ _______ _______ _____ _____    ______ ____
ROOT
ATOM      1  C   UNL     1       2.770   6.836  19.282  0.00  0.00    +0.000 A 
ATOM      2  C   UNL     1       2.982   5.776  20.106  0.00  0.00    +0.000 A 
ATOM      3  C   UNL     1       3.673   4.542  19.571  0.00  0.00    +0.000 A 
ATOM      4  C   UNL     1       3.427   3.327  20.168  0.00  0.00    +0.000 A 
ATOM      5  C   UNL     1       4.407   2.182  19.922  0.00  0.00    +0.000 C 
ATOM      6  N   UNL     1       2.172   2.886  20.073  0.00  0.00    +0.000 NA
ATOM      7  C   UNL     1       1.632   3.103  18.869  0.00  0.00    +0.000 A 
ATOM      8  N   UNL     1       0.365   2.556  18.719  0.00  0.00    +0.000 N 
ATOM      9  N   UNL     1       2.259   3.780  17.875  0.00  0.00    +0.000 NA
ATOM     10  C   UNL     1       3.381   4.457  18.228  0.00  0.00    +0.000 A 
ATOM     11  N   UNL     1       3.843   5.563  17.441  0.00  0.00    +0.000 N 
ATOM     12  C   UNL     1       3.552   6.825  17.994  0.00  0.00    +0.000 A 
ATOM     13  O   UNL     1       3.975   7.887  17.539  0.00  0.00    +0.000 OA
ATOM     14  H   UNL     1       0.510   1.552  18.831  0.00  0.00    +0.000 HD
ATOM     15  H   UNL     1      -0.107   2.795  19.593  0.00  0.00    +0.000 HD
ENDROOT
BRANCH   1  19
ATOM     16  C   UNL     1       0.093  10.024  20.092  0.00  0.00    +0.000 A 
ATOM     17  C   UNL     1       0.551   9.873  18.796  0.00  0.00    +0.000 A 
ATOM     18  C   UNL     1       1.431   8.823  18.542  0.00  0.00    +0.000 A 
ATOM     19  C   UNL     1       1.845   7.954  19.570  0.00  0.00    +0.000 A 
ATOM     20  C   UNL     1       1.315   8.214  20.832  0.00  0.00    +0.000 A 
ATOM     21  N   UNL     1       0.451   9.215  21.121  0.00  0.00    +0.000 NA
BRANCH  16  23
ATOM     22  C   UNL     1      -0.822  11.469  21.693  0.00  0.00    +0.000 C 
ATOM     23  O   UNL     1      -0.779  11.071  20.324  0.00  0.00    +0.000 OA
ENDBRANCH  16  23
ENDBRANCH   1  19
BRANCH  11  24
ATOM     24  C   UNL     1       5.284   5.459  16.947  0.00  0.00    +0.000 C 
ATOM     25  C   UNL     1       5.885   4.045  16.769  0.00  0.00    +0.000 C 
ATOM     26  C   UNL     1       5.444   4.098  15.285  0.00  0.00    +0.000 C 
ATOM     27  C   UNL     1       5.503   5.632  15.414  0.00  0.00    +0.000 C 
BRANCH  26  28
ATOM     28  O   UNL     1       6.338   3.527  14.304  0.00  0.00    +0.000 OA
BRANCH  28  29
ATOM     29  C   UNL     1       6.684   4.391  13.216  0.00  0.00    +0.000 C 
BRANCH  29  30
ATOM     30  C   UNL     1       6.729   3.592  11.919  0.00  0.00    +0.000 C 
BRANCH  30  31
ATOM     31  O   UNL     1       6.132   2.310  12.100  0.00  0.00    +0.000 OA
ATOM     32  H   UNL     1       6.217   2.120  13.053  0.00  0.00    +0.000 HD
ENDBRANCH  30  31
ENDBRANCH  29  30
ENDBRANCH  28  29
ENDBRANCH  26  28
ENDBRANCH  11  24
TORSDOF 7
ENDMDL
MODEL 6
REMARK VINA RESULT:      -7.2      2.134      7.662
REMARK  Name = 
REMARK  9 active torsions:
REMARK  status: ('A' for Active; 'I' for Inactive)
REMARK    1  A    between atoms: C_1  and  O_2
REMARK    2  A    between atoms: O_2  and  C_3
REMARK    3  A    between atoms: C_6  and  C_7
REMARK    4  A    between atoms: C_10  and  C_11
REMARK    5  A    between atoms: N_17  and  C_18
REMARK    6  A    between atoms: C_20  and  O_21
REMARK    7  A    between atoms: O_21  and  C_22
REMARK    8  A    between atoms: C_22  and  C_23
REMARK    9  A    between atoms: C_23  and  O_24
REMARK                            x       y       z     vdW  Elec       q    Type
REMARK                         _______ _______ _______ _____ _____    ______ ____
ROOT
ATOM      1  C   UNL     1       4.131   4.914  16.909  0.00  0.00    +0.000 A 
ATOM      2  C   UNL     1       3.427   3.763  17.070  0.00  0.00    +0.000 A 
ATOM      3  C   UNL     1       2.437   3.647  18.206  0.00  0.00    +0.000 A 
ATOM      4  C   UNL     1       2.135   2.401  18.705  0.00  0.00    +0.000 A 
ATOM      5  C   UNL     1       0.864   2.236  19.535  0.00  0.00    +0.000 C 
ATOM      6  N   UNL     1       3.148   1.754  19.282  0.00  0.00    +0.000 NA
ATOM      7  C   UNL     1       3.915   2.551  20.034  0.00  0.00    +0.000 A 
ATOM      8  N   UNL     1       4.910   1.875  20.727  0.00  0.00    +0.000 N 
ATOM      9  N   UNL     1       3.737   3.891  20.131  0.00  0.00    +0.000 NA
ATOM     10  C   UNL     1       2.890   4.449  19.230  0.00  0.00    +0.000 A 
ATOM     11  N   UNL     1       2.984   5.843  18.905  0.00  0.00    +0.000 N 
ATOM     12  C   UNL     1       3.614   6.106  17.673  0.00  0.00    +0.000 A 
ATOM     13  O   UNL     1       3.675   7.221  17.158  0.00  0.00    +0.000 OA
ATOM     14  H   UNL     1       4.401   1.242  21.344  0.00  0.00    +0.000 HD
ATOM     15  H   UNL     1       5.290   1.228  20.034  0.00  0.00    +0.000 HD
ENDROOT
BRANCH   1  19
ATOM     16  C   UNL     1       7.565   5.331  14.455  0.00  0.00    +0.000 A 
ATOM     17  C   UNL     1       6.508   4.582  13.972  0.00  0.00    +0.000 A 
ATOM     18  C   UNL     1       5.386   4.451  14.788  0.00  0.00    +0.000 A 
ATOM     19  C   UNL     1       5.336   5.052  16.060  0.00  0.00    +0.000 A 
ATOM     20  C   UNL     1       6.465   5.778  16.432  0.00  0.00    +0.000 A 
ATOM     21  N   UNL     1       7.571   5.940  15.668  0.00  0.00    +0.000 NA
BRANCH  16  23
ATOM     22  C   UNL     1       8.346   5.929  12.329  0.00  0.00    +0.000 C 
ATOM     23  O   UNL     1       8.669   5.450  13.633  0.00  0.00    +0.000 OA
ENDBRANCH  16  23
ENDBRANCH   1  19
BRANCH  11  24
ATOM     24  C   UNL     1       1.699   6.647  19.088  0.00  0.00    +0.000 C 
ATOM     25  C   UNL     1       1.145   6.801  20.523  0.00  0.00    +0.000 C 
ATOM     26  C   UNL     1       1.924   8.136  20.629  0.00  0.00    +0.000 C 
ATOM     27  C   UNL     1       1.850   8.198  19.091  0.00  0.00    +0.000 C 
BRANCH  26  28
ATOM     28  O   UNL     1       1.281   9.230  21.321  0.00  0.00    +0.000 OA
BRANCH  28  29
ATOM     29  C   UNL     1       1.391   9.198  22.748  0.00  0.00    +0.000 C 
BRANCH  29  30
ATOM     30  C   UNL     1       0.037   9.509  23.376  0.00  0.00    +0.000 C 
BRANCH  30  31
ATOM     31  O   UNL     1      -0.322  10.869  23.142  0.00  0.00    +0.000 OA
ATOM     32  H   UNL     1      -1.024  10.836  22.464  0.00  0.00    +0.000 HD
ENDBRANCH  30  31
ENDBRANCH  29  30
ENDBRANCH  28  29
ENDBRANCH  26  28
ENDBRANCH  11  24
TORSDOF 7
ENDMDL
MODEL 7
REMARK VINA RESULT:      -7.2      1.524      1.833
REMARK  Name = 
REMARK  9 active torsions:
REMARK  status: ('A' for Active; 'I' for Inactive)
REMARK    1  A    between atoms: C_1  and  O_2
REMARK    2  A    between atoms: O_2  and  C_3
REMARK    3  A    between atoms: C_6  and  C_7
REMARK    4  A    between atoms: C_10  and  C_11
REMARK    5  A    between atoms: N_17  and  C_18
REMARK    6  A    between atoms: C_20  and  O_21
REMARK    7  A    between atoms: O_21  and  C_22
REMARK    8  A    between atoms: C_22  and  C_23
REMARK    9  A    between atoms: C_23  and  O_24
REMARK                            x       y       z     vdW  Elec       q    Type
REMARK                         _______ _______ _______ _____ _____    ______ ____
ROOT
ATOM      1  C   UNL     1       2.951   6.589  19.178  0.00  0.00    +0.000 A 
ATOM      2  C   UNL     1       2.922   5.623  20.133  0.00  0.00    +0.000 A 
ATOM      3  C   UNL     1       3.625   4.308  19.886  0.00  0.00    +0.000 A 
ATOM      4  C   UNL     1       3.185   3.181  20.540  0.00  0.00    +0.000 A 
ATOM      5  C   UNL     1       4.119   1.975  20.625  0.00  0.00    +0.000 C 
ATOM      6  N   UNL     1       1.950   2.784  20.231  0.00  0.00    +0.000 NA
ATOM      7  C   UNL     1       1.681   2.884  18.925  0.00  0.00    +0.000 A 
ATOM      8  N   UNL     1       0.439   2.377  18.571  0.00  0.00    +0.000 N 
ATOM      9  N   UNL     1       2.540   3.415  18.020  0.00  0.00    +0.000 NA
ATOM     10  C   UNL     1       3.608   4.081  18.528  0.00  0.00    +0.000 A 
ATOM     11  N   UNL     1       4.291   5.069  17.744  0.00  0.00    +0.000 N 
ATOM     12  C   UNL     1       3.976   6.397  18.090  0.00  0.00    +0.000 A 
ATOM     13  O   UNL     1       4.550   7.381  17.627  0.00  0.00    +0.000 OA
ATOM     14  H   UNL     1       0.492   1.387  18.814  0.00  0.00    +0.000 HD
ATOM     15  H   UNL     1      -0.185   2.735  19.297  0.00  0.00    +0.000 HD
ENDROOT
BRANCH   1  19
ATOM     16  C   UNL     1       0.425   9.994  19.109  0.00  0.00    +0.000 A 
ATOM     17  C   UNL     1       0.671   9.393  20.330  0.00  0.00    +0.000 A 
ATOM     18  C   UNL     1       1.502   8.274  20.339  0.00  0.00    +0.000 A 
ATOM     19  C   UNL     1       2.061   7.771  19.149  0.00  0.00    +0.000 A 
ATOM     20  C   UNL     1       1.734   8.464  17.986  0.00  0.00    +0.000 A 
ATOM     21  N   UNL     1       0.941   9.560  17.931  0.00  0.00    +0.000 NA
BRANCH  16  23
ATOM     22  C   UNL     1      -0.747  11.531  20.435  0.00  0.00    +0.000 C 
ATOM     23  O   UNL     1      -0.401  11.103  19.119  0.00  0.00    +0.000 OA
ENDBRANCH  16  23
ENDBRANCH   1  19
BRANCH  11  24
ATOM     24  C   UNL     1       5.793   4.849  17.577  0.00  0.00    +0.000 C 
ATOM     25  C   UNL     1       6.259   3.870  16.475  0.00  0.00    +0.000 C 
ATOM     26  C   UNL     1       6.392   5.083  15.521  0.00  0.00    +0.000 C 
ATOM     27  C   UNL     1       6.568   5.945  16.786  0.00  0.00    +0.000 C 
BRANCH  26  28
ATOM     28  O   UNL     1       7.512   5.093  14.608  0.00  0.00    +0.000 OA
BRANCH  28  29
ATOM     29  C   UNL     1       7.177   4.904  13.229  0.00  0.00    +0.000 C 
BRANCH  29  30
ATOM     30  C   UNL     1       8.165   5.664  12.351  0.00  0.00    +0.000 C 
BRANCH  30  31
ATOM     31  O   UNL     1       9.212   6.220  13.143  0.00  0.00    +0.000 OA
ATOM     32  H   UNL     1       8.775   6.553  13.950  0.00  0.00    +0.000 HD
ENDBRANCH  30  31
ENDBRANCH  29  30
ENDBRANCH  28  29
ENDBRANCH  26  28
ENDBRANCH  11  24
TORSDOF 7
ENDMDL
MODEL 8
REMARK VINA RESULT:      -7.1      2.310      3.487
REMARK  Name = 
REMARK  9 active torsions:
REMARK  status: ('A' for Active; 'I' for Inactive)
REMARK    1  A    between atoms: C_1  and  O_2
REMARK    2  A    between atoms: O_2  and  C_3
REMARK    3  A    between atoms: C_6  and  C_7
REMARK    4  A    between atoms: C_10  and  C_11
REMARK    5  A    between atoms: N_17  and  C_18
REMARK    6  A    between atoms: C_20  and  O_21
REMARK    7  A    between atoms: O_21  and  C_22
REMARK    8  A    between atoms: C_22  and  C_23
REMARK    9  A    between atoms: C_23  and  O_24
REMARK                            x       y       z     vdW  Elec       q    Type
REMARK                         _______ _______ _______ _____ _____    ______ ____
ROOT
ATOM      1  C   UNL     1       2.628   6.945  19.380  0.00  0.00    +0.000 A 
ATOM      2  C   UNL     1       3.103   5.877  20.074  0.00  0.00    +0.000 A 
ATOM      3  C   UNL     1       3.652   4.684  19.325  0.00  0.00    +0.000 A 
ATOM      4  C   UNL     1       3.630   3.448  19.928  0.00  0.00    +0.000 A 
ATOM      5  C   UNL     1       4.535   2.350  19.374  0.00  0.00    +0.000 C 
ATOM      6  N   UNL     1       2.416   2.957  20.183  0.00  0.00    +0.000 NA
ATOM      7  C   UNL     1       1.545   3.177  19.193  0.00  0.00    +0.000 A 
ATOM      8  N   UNL     1       0.308   2.581  19.395  0.00  0.00    +0.000 N 
ATOM      9  N   UNL     1       1.836   3.899  18.083  0.00  0.00    +0.000 NA
ATOM     10  C   UNL     1       2.988   4.615  18.120  0.00  0.00    +0.000 A 
ATOM     11  N   UNL     1       3.166   5.756  17.269  0.00  0.00    +0.000 N 
ATOM     12  C   UNL     1       3.005   6.993  17.922  0.00  0.00    +0.000 A 
ATOM     13  O   UNL     1       3.243   8.080  17.400  0.00  0.00    +0.000 OA
ATOM     14  H   UNL     1       0.512   1.582  19.429  0.00  0.00    +0.000 HD
ATOM     15  H   UNL     1       0.100   2.782  20.375  0.00  0.00    +0.000 HD
ENDROOT
BRANCH   1  19
ATOM     16  C   UNL     1       0.247  10.029  21.055  0.00  0.00    +0.000 A 
ATOM     17  C   UNL     1       0.589   8.961  21.863  0.00  0.00    +0.000 A 
ATOM     18  C   UNL     1       1.370   7.952  21.301  0.00  0.00    +0.000 A 
ATOM     19  C   UNL     1       1.788   8.017  19.958  0.00  0.00    +0.000 A 
ATOM     20  C   UNL     1       1.376   9.143  19.249  0.00  0.00    +0.000 A 
ATOM     21  N   UNL     1       0.627  10.150  19.757  0.00  0.00    +0.000 NA
BRANCH  16  23
ATOM     22  C   UNL     1      -0.906  10.725  22.972  0.00  0.00    +0.000 C 
ATOM     23  O   UNL     1      -0.528  11.019  21.629  0.00  0.00    +0.000 OA
ENDBRANCH  16  23
ENDBRANCH   1  19
BRANCH  11  24
ATOM     24  C   UNL     1       4.407   5.722  16.379  0.00  0.00    +0.000 C 
ATOM     25  C   UNL     1       5.656   6.498  16.856  0.00  0.00    +0.000 C 
ATOM     26  C   UNL     1       6.162   5.186  17.507  0.00  0.00    +0.000 C 
ATOM     27  C   UNL     1       5.291   4.443  16.476  0.00  0.00    +0.000 C 
BRANCH  26  28
ATOM     28  O   UNL     1       7.578   4.909  17.433  0.00  0.00    +0.000 OA
BRANCH  28  29
ATOM     29  C   UNL     1       8.225   4.689  18.691  0.00  0.00    +0.000 C 
BRANCH  29  30
ATOM     30  C   UNL     1       7.655   5.643  19.735  0.00  0.00    +0.000 C 
BRANCH  30  31
ATOM     31  O   UNL     1       8.195   5.355  21.023  0.00  0.00    +0.000 OA
ATOM     32  H   UNL     1       8.909   4.709  20.864  0.00  0.00    +0.000 HD
ENDBRANCH  30  31
ENDBRANCH  29  30
ENDBRANCH  28  29
ENDBRANCH  26  28
ENDBRANCH  11  24
TORSDOF 7
ENDMDL
MODEL 9
REMARK VINA RESULT:      -6.9      4.088     11.152
REMARK  Name = 
REMARK  9 active torsions:
REMARK  status: ('A' for Active; 'I' for Inactive)
REMARK    1  A    between atoms: C_1  and  O_2
REMARK    2  A    between atoms: O_2  and  C_3
REMARK    3  A    between atoms: C_6  and  C_7
REMARK    4  A    between atoms: C_10  and  C_11
REMARK    5  A    between atoms: N_17  and  C_18
REMARK    6  A    between atoms: C_20  and  O_21
REMARK    7  A    between atoms: O_21  and  C_22
REMARK    8  A    between atoms: C_22  and  C_23
REMARK    9  A    between atoms: C_23  and  O_24
REMARK                            x       y       z     vdW  Elec       q    Type
REMARK                         _______ _______ _______ _____ _____    ______ ____
ROOT
ATOM      1  C   UNL     1       0.750  10.151  20.333  0.00  0.00    +0.000 A 
ATOM      2  C   UNL     1       1.025  11.316  19.690  0.00  0.00    +0.000 A 
ATOM      3  C   UNL     1       0.129  12.515  19.903  0.00  0.00    +0.000 A 
ATOM      4  C   UNL     1       0.049  13.473  18.920  0.00  0.00    +0.000 A 
ATOM      5  C   UNL     1      -0.501  14.850  19.285  0.00  0.00    +0.000 C 
ATOM      6  N   UNL     1      -0.471  13.064  17.762  0.00  0.00    +0.000 NA
ATOM      7  C   UNL     1      -1.521  12.252  17.919  0.00  0.00    +0.000 A 
ATOM      8  N   UNL     1      -2.140  11.902  16.727  0.00  0.00    +0.000 N 
ATOM      9  N   UNL     1      -1.961  11.817  19.126  0.00  0.00    +0.000 NA
ATOM     10  C   UNL     1      -1.135  12.040  20.179  0.00  0.00    +0.000 A 
ATOM     11  N   UNL     1      -1.230  11.237  21.364  0.00  0.00    +0.000 N 
ATOM     12  C   UNL     1      -0.229  10.252  21.474  0.00  0.00    +0.000 A 
ATOM     13  O   UNL     1      -0.062   9.553  22.472  0.00  0.00    +0.000 OA
ATOM     14  H   UNL     1      -2.471  12.788  16.346  0.00  0.00    +0.000 HD
ATOM     15  H   UNL     1      -1.359  11.688  16.103  0.00  0.00    +0.000 HD
ENDROOT
BRANCH   1  19
ATOM     16  C   UNL     1       2.459   6.402  19.327  0.00  0.00    +0.000 A 
ATOM     17  C   UNL     1       2.466   7.398  18.368  0.00  0.00    +0.000 A 
ATOM     18  C   UNL     1       1.900   8.625  18.710  0.00  0.00    +0.000 A 
ATOM     19  C   UNL     1       1.335   8.838  19.982  0.00  0.00    +0.000 A 
ATOM     20  C   UNL     1       1.388   7.756  20.857  0.00  0.00    +0.000 A 
ATOM     21  N   UNL     1       1.937   6.551  20.571  0.00  0.00    +0.000 NA
BRANCH  16  23
ATOM     22  C   UNL     1       3.633   5.218  17.682  0.00  0.00    +0.000 C 
ATOM     23  O   UNL     1       3.024   5.192  18.971  0.00  0.00    +0.000 OA
ENDBRANCH  16  23
ENDBRANCH   1  19
BRANCH  11  24
ATOM     24  C   UNL     1      -1.435  12.010  22.664  0.00  0.00    +0.000 C 
ATOM     25  C   UNL     1      -2.123  13.393  22.580  0.00  0.00    +0.000 C 
ATOM     26  C   UNL     1      -3.472  12.684  22.859  0.00  0.00    +0.000 C 
ATOM     27  C   UNL     1      -2.647  11.576  23.542  0.00  0.00    +0.000 C 
BRANCH  26  28
ATOM     28  O   UNL     1      -4.417  13.364  23.714  0.00  0.00    +0.000 OA
BRANCH  28  29
ATOM     29  C   UNL     1      -5.753  13.447  23.204  0.00  0.00    +0.000 C 
BRANCH  29  30
ATOM     30  C   UNL     1      -6.737  12.946  24.255  0.00  0.00    +0.000 C 
BRANCH  30  31
ATOM     31  O   UNL     1      -7.262  11.674  23.882  0.00  0.00    +0.000 OA
ATOM     32  H   UNL     1      -6.664  11.019  24.289  0.00  0.00    +0.000 HD
ENDBRANCH  30  31
ENDBRANCH  29  30
ENDBRANCH  28  29
ENDBRANCH  26  28
ENDBRANCH  11  24
TORSDOF 7
ENDMDL
