MODEL 1
REMARK VINA RESULT:      -7.1      0.000      0.000
REMARK  Name = 
REMARK  9 active torsions:
REMARK  status: ('A' for Active; 'I' for Inactive)
REMARK    1  A    between atoms: C_1  and  C_2
REMARK    2  A    between atoms: C_7  and  C_8
REMARK    3  A    between atoms: C_8  and  O_9
REMARK    4  A    between atoms: C_8  and  C_15
REMARK    5  A    between atoms: O_9  and  C_10
REMARK    6  A    between atoms: C_10  and  C_11
REMARK    7  A    between atoms: C_11  and  N_12
REMARK    8  A    between atoms: N_12  and  C_13
REMARK    9  A    between atoms: N_12  and  C_14
REMARK                            x       y       z     vdW  Elec       q    Type
REMARK                         _______ _______ _______ _____ _____    ______ ____
ROOT
ATOM      1  C   UNL     1       3.306   5.849  18.908  0.00  0.00    +0.000 C 
ENDROOT
BRANCH   1   8
ATOM      2  C   UNL     1       1.328   4.128  17.451  0.00  0.00    +0.000 C 
ATOM      3  C   UNL     1       1.592   3.938  18.921  0.00  0.00    +0.000 A 
ATOM      4  C   UNL     1       0.875   2.974  19.652  0.00  0.00    +0.000 A 
ATOM      5  C   UNL     1       1.108   2.771  21.019  0.00  0.00    +0.000 A 
ATOM      6  C   UNL     1       2.047   3.535  21.682  0.00  0.00    +0.000 A 
ATOM      7  C   UNL     1       2.770   4.496  20.976  0.00  0.00    +0.000 A 
ATOM      8  C   UNL     1       2.560   4.707  19.594  0.00  0.00    +0.000 A 
ENDBRANCH   1   8
BRANCH   1   9
ATOM      9  C   UNL     1       2.600   7.203  18.994  0.00  0.00    +0.000 A 
ATOM     10  C   UNL     1       2.405   8.009  17.860  0.00  0.00    +0.000 A 
ATOM     11  C   UNL     1       1.619   9.162  17.926  0.00  0.00    +0.000 A 
ATOM     12  C   UNL     1       1.012   9.528  19.126  0.00  0.00    +0.000 A 
ATOM     13  C   UNL     1       1.225   8.764  20.270  0.00  0.00    +0.000 A 
ATOM     14  C   UNL     1       2.018   7.616  20.207  0.00  0.00    +0.000 A 
ENDBRANCH   1   9
BRANCH   1  15
ATOM     15  O   UNL     1       4.660   5.910  19.414  0.00  0.00    +0.000 OA
BRANCH  15  16
ATOM     16  C   UNL     1       5.532   5.052  18.675  0.00  0.00    +0.000 C 
BRANCH  16  17
ATOM     17  C   UNL     1       6.998   5.448  18.869  0.00  0.00    +0.000 C 
BRANCH  17  18
ATOM     18  N   UNL     1       7.609   5.953  17.620  0.00  0.00    +0.000 NA
ATOM     19  C   UNL     1       6.974   5.379  16.432  0.00  0.00    +0.000 C 
ATOM     20  C   UNL     1       7.539   7.412  17.575  0.00  0.00    +0.000 C 
ENDBRANCH  17  18
ENDBRANCH  16  17
ENDBRANCH  15  16
ENDBRANCH   1  15
TORSDOF 6
ENDMDL
MODEL 2
REMARK VINA RESULT:      -7.0      1.068      1.178
REMARK  Name = 
REMARK  9 active torsions:
REMARK  status: ('A' for Active; 'I' for Inactive)
REMARK    1  A    between atoms: C_1  and  C_2
REMARK    2  A    between atoms: C_7  and  C_8
REMARK    3  A    between atoms: C_8  and  O_9
REMARK    4  A    between atoms: C_8  and  C_15
REMARK    5  A    between atoms: O_9  and  C_10
REMARK    6  A    between atoms: C_10  and  C_11
REMARK    7  A    between atoms: C_11  and  N_12
REMARK    8  A    between atoms: N_12  and  C_13
REMARK    9  A    between atoms: N_12  and  C_14
REMARK                            x       y       z     vdW  Elec       q    Type
REMARK                         _______ _______ _______ _____ _____    ______ ____
ROOT
ATOM      1  C   UNL     1       3.407   5.675  18.884  0.00  0.00    +0.000 C 
ENDROOT
BRANCH   1   8
ATOM      2  C   UNL     1       1.288   4.076  17.488  0.00  0.00    +0.000 C 
ATOM      3  C   UNL     1       1.581   3.872  18.951  0.00  0.00    +0.000 A 
ATOM      4  C   UNL     1       0.828   2.954  19.704  0.00  0.00    +0.000 A 
ATOM      5  C   UNL     1       1.087   2.737  21.064  0.00  0.00    +0.000 A 
ATOM      6  C   UNL     1       2.089   3.443  21.699  0.00  0.00    +0.000 A 
ATOM      7  C   UNL     1       2.848   4.358  20.970  0.00  0.00    +0.000 A 
ATOM      8  C   UNL     1       2.612   4.581  19.594  0.00  0.00    +0.000 A 
ENDBRANCH   1   8
BRANCH   1   9
ATOM      9  C   UNL     1       2.751   7.056  18.927  0.00  0.00    +0.000 A 
ATOM     10  C   UNL     1       2.725   7.896  17.802  0.00  0.00    +0.000 A 
ATOM     11  C   UNL     1       1.984   9.082  17.808  0.00  0.00    +0.000 A 
ATOM     12  C   UNL     1       1.255   9.444  18.939  0.00  0.00    +0.000 A 
ATOM     13  C   UNL     1       1.300   8.644  20.078  0.00  0.00    +0.000 A 
ATOM     14  C   UNL     1       2.047   7.464  20.075  0.00  0.00    +0.000 A 
ENDBRANCH   1   9
BRANCH   1  15
ATOM     15  O   UNL     1       4.758   5.700  19.402  0.00  0.00    +0.000 OA
BRANCH  15  16
ATOM     16  C   UNL     1       5.588   4.744  18.737  0.00  0.00    +0.000 C 
BRANCH  16  17
ATOM     17  C   UNL     1       5.050   4.417  17.341  0.00  0.00    +0.000 C 
BRANCH  17  18
ATOM     18  N   UNL     1       5.910   4.962  16.270  0.00  0.00    +0.000 NA
ATOM     19  C   UNL     1       6.147   3.982  15.208  0.00  0.00    +0.000 C 
ATOM     20  C   UNL     1       5.318   6.177  15.713  0.00  0.00    +0.000 C 
ENDBRANCH  17  18
ENDBRANCH  16  17
ENDBRANCH  15  16
ENDBRANCH   1  15
TORSDOF 6
ENDMDL
MODEL 3
REMARK VINA RESULT:      -7.0      1.019      4.433
REMARK  Name = 
REMARK  9 active torsions:
REMARK  status: ('A' for Active; 'I' for Inactive)
REMARK    1  A    between atoms: C_1  and  C_2
REMARK    2  A    between atoms: C_7  and  C_8
REMARK    3  A    between atoms: C_8  and  O_9
REMARK    4  A    between atoms: C_8  and  C_15
REMARK    5  A    between atoms: O_9  and  C_10
REMARK    6  A    between atoms: C_10  and  C_11
REMARK    7  A    between atoms: C_11  and  N_12
REMARK    8  A    between atoms: N_12  and  C_13
REMARK    9  A    between atoms: N_12  and  C_14
REMARK                            x       y       z     vdW  Elec       q    Type
REMARK                         _______ _______ _______ _____ _____    ______ ____
ROOT
ATOM      1  C   UNL     1       2.902   6.380  19.638  0.00  0.00    +0.000 C 
ENDROOT
BRANCH   1   8
ATOM      2  C   UNL     1       1.371   7.990  21.653  0.00  0.00    +0.000 C 
ATOM      3  C   UNL     1       1.416   8.396  20.203  0.00  0.00    +0.000 A 
ATOM      4  C   UNL     1       0.697   9.519  19.757  0.00  0.00    +0.000 A 
ATOM      5  C   UNL     1       0.729   9.923  18.416  0.00  0.00    +0.000 A 
ATOM      6  C   UNL     1       1.467   9.206  17.495  0.00  0.00    +0.000 A 
ATOM      7  C   UNL     1       2.188   8.090  17.916  0.00  0.00    +0.000 A 
ATOM      8  C   UNL     1       2.179   7.673  19.268  0.00  0.00    +0.000 A 
ENDBRANCH   1   8
BRANCH   1   9
ATOM      9  C   UNL     1       2.045   5.120  19.502  0.00  0.00    +0.000 A 
ATOM     10  C   UNL     1       1.825   4.506  18.258  0.00  0.00    +0.000 A 
ATOM     11  C   UNL     1       1.178   3.271  18.172  0.00  0.00    +0.000 A 
ATOM     12  C   UNL     1       0.743   2.627  19.330  0.00  0.00    +0.000 A 
ATOM     13  C   UNL     1       0.917   3.237  20.569  0.00  0.00    +0.000 A 
ATOM     14  C   UNL     1       1.555   4.477  20.654  0.00  0.00    +0.000 A 
ENDBRANCH   1   9
BRANCH   1  15
ATOM     15  O   UNL     1       4.132   6.283  18.882  0.00  0.00    +0.000 OA
BRANCH  15  16
ATOM     16  C   UNL     1       5.038   5.351  19.478  0.00  0.00    +0.000 C 
BRANCH  16  17
ATOM     17  C   UNL     1       5.628   4.404  18.430  0.00  0.00    +0.000 C 
BRANCH  17  18
ATOM     18  N   UNL     1       7.098   4.526  18.333  0.00  0.00    +0.000 NA
ATOM     19  C   UNL     1       7.554   4.555  16.942  0.00  0.00    +0.000 C 
ATOM     20  C   UNL     1       7.556   5.722  19.039  0.00  0.00    +0.000 C 
ENDBRANCH  17  18
ENDBRANCH  16  17
ENDBRANCH  15  16
ENDBRANCH   1  15
TORSDOF 6
ENDMDL
MODEL 4
REMARK VINA RESULT:      -7.0      2.165      5.693
REMARK  Name = 
REMARK  9 active torsions:
REMARK  status: ('A' for Active; 'I' for Inactive)
REMARK    1  A    between atoms: C_1  and  C_2
REMARK    2  A    between atoms: C_7  and  C_8
REMARK    3  A    between atoms: C_8  and  O_9
REMARK    4  A    between atoms: C_8  and  C_15
REMARK    5  A    between atoms: O_9  and  C_10
REMARK    6  A    between atoms: C_10  and  C_11
REMARK    7  A    between atoms: C_11  and  N_12
REMARK    8  A    between atoms: N_12  and  C_13
REMARK    9  A    between atoms: N_12  and  C_14
REMARK                            x       y       z     vdW  Elec       q    Type
REMARK                         _______ _______ _______ _____ _____    ______ ____
ROOT
ATOM      1  C   UNL     1       3.253   5.976  17.822  0.00  0.00    +0.000 C 
ENDROOT
BRANCH   1   8
ATOM      2  C   UNL     1       5.101   6.587  15.540  0.00  0.00    +0.000 C 
ATOM      3  C   UNL     1       5.635   6.170  16.885  0.00  0.00    +0.000 A 
ATOM      4  C   UNL     1       7.018   6.013  17.083  0.00  0.00    +0.000 A 
ATOM      5  C   UNL     1       7.542   5.635  18.326  0.00  0.00    +0.000 A 
ATOM      6  C   UNL     1       6.694   5.393  19.389  0.00  0.00    +0.000 A 
ATOM      7  C   UNL     1       5.319   5.544  19.215  0.00  0.00    +0.000 A 
ATOM      8  C   UNL     1       4.772   5.937  17.972  0.00  0.00    +0.000 A 
ENDBRANCH   1   8
BRANCH   1   9
ATOM      9  C   UNL     1       2.557   4.645  18.116  0.00  0.00    +0.000 A 
ATOM     10  C   UNL     1       2.854   3.481  17.389  0.00  0.00    +0.000 A 
ATOM     11  C   UNL     1       2.332   2.243  17.775  0.00  0.00    +0.000 A 
ATOM     12  C   UNL     1       1.508   2.149  18.895  0.00  0.00    +0.000 A 
ATOM     13  C   UNL     1       1.171   3.298  19.605  0.00  0.00    +0.000 A 
ATOM     14  C   UNL     1       1.685   4.537  19.214  0.00  0.00    +0.000 A 
ENDBRANCH   1   9
BRANCH   1  15
ATOM     15  O   UNL     1       2.718   7.056  18.623  0.00  0.00    +0.000 OA
BRANCH  15  16
ATOM     16  C   UNL     1       2.722   8.291  17.902  0.00  0.00    +0.000 C 
BRANCH  16  17
ATOM     17  C   UNL     1       1.364   8.992  17.996  0.00  0.00    +0.000 C 
BRANCH  17  18
ATOM     18  N   UNL     1       1.315   9.966  19.107  0.00  0.00    +0.000 NA
ATOM     19  C   UNL     1       0.514  11.143  18.767  0.00  0.00    +0.000 C 
ATOM     20  C   UNL     1       0.791   9.331  20.316  0.00  0.00    +0.000 C 
ENDBRANCH  17  18
ENDBRANCH  16  17
ENDBRANCH  15  16
ENDBRANCH   1  15
TORSDOF 6
ENDMDL
MODEL 5
REMARK VINA RESULT:      -7.0      0.602      1.506
REMARK  Name = 
REMARK  9 active torsions:
REMARK  status: ('A' for Active; 'I' for Inactive)
REMARK    1  A    between atoms: C_1  and  C_2
REMARK    2  A    between atoms: C_7  and  C_8
REMARK    3  A    between atoms: C_8  and  O_9
REMARK    4  A    between atoms: C_8  and  C_15
REMARK    5  A    between atoms: O_9  and  C_10
REMARK    6  A    between atoms: C_10  and  C_11
REMARK    7  A    between atoms: C_11  and  N_12
REMARK    8  A    between atoms: N_12  and  C_13
REMARK    9  A    between atoms: N_12  and  C_14
REMARK                            x       y       z     vdW  Elec       q    Type
REMARK                         _______ _______ _______ _____ _____    ______ ____
ROOT
ATOM      1  C   UNL     1       3.259   5.861  18.984  0.00  0.00    +0.000 C 
ENDROOT
BRANCH   1   8
ATOM      2  C   UNL     1       1.366   4.103  17.460  0.00  0.00    +0.000 C 
ATOM      3  C   UNL     1       1.613   3.892  18.930  0.00  0.00    +0.000 A 
ATOM      4  C   UNL     1       0.920   2.888  19.629  0.00  0.00    +0.000 A 
ATOM      5  C   UNL     1       1.138   2.664  20.995  0.00  0.00    +0.000 A 
ATOM      6  C   UNL     1       2.039   3.447  21.689  0.00  0.00    +0.000 A 
ATOM      7  C   UNL     1       2.738   4.447  21.015  0.00  0.00    +0.000 A 
ATOM      8  C   UNL     1       2.542   4.680  19.634  0.00  0.00    +0.000 A 
ENDBRANCH   1   8
BRANCH   1   9
ATOM      9  C   UNL     1       2.457   7.164  18.992  0.00  0.00    +0.000 A 
ATOM     10  C   UNL     1       1.841   7.645  20.159  0.00  0.00    +0.000 A 
ATOM     11  C   UNL     1       1.252   8.912  20.189  0.00  0.00    +0.000 A 
ATOM     12  C   UNL     1       1.273   9.720  19.054  0.00  0.00    +0.000 A 
ATOM     13  C   UNL     1       1.844   9.246  17.876  0.00  0.00    +0.000 A 
ATOM     14  C   UNL     1       2.425   7.976  17.843  0.00  0.00    +0.000 A 
ENDBRANCH   1   9
BRANCH   1  15
ATOM     15  O   UNL     1       4.564   6.023  19.587  0.00  0.00    +0.000 OA
BRANCH  15  16
ATOM     16  C   UNL     1       5.578   5.373  18.818  0.00  0.00    +0.000 C 
BRANCH  16  17
ATOM     17  C   UNL     1       5.207   5.332  17.333  0.00  0.00    +0.000 C 
BRANCH  17  18
ATOM     18  N   UNL     1       6.310   5.806  16.470  0.00  0.00    +0.000 NA
ATOM     19  C   UNL     1       7.284   6.605  17.218  0.00  0.00    +0.000 C 
ATOM     20  C   UNL     1       6.974   4.674  15.826  0.00  0.00    +0.000 C 
ENDBRANCH  17  18
ENDBRANCH  16  17
ENDBRANCH  15  16
ENDBRANCH   1  15
TORSDOF 6
ENDMDL
MODEL 6
REMARK VINA RESULT:      -6.9      2.208      5.669
REMARK  Name = 
REMARK  9 active torsions:
REMARK  status: ('A' for Active; 'I' for Inactive)
REMARK    1  A    between atoms: C_1  and  C_2
REMARK    2  A    between atoms: C_7  and  C_8
REMARK    3  A    between atoms: C_8  and  O_9
REMARK    4  A    between atoms: C_8  and  C_15
REMARK    5  A    between atoms: O_9  and  C_10
REMARK    6  A    between atoms: C_10  and  C_11
REMARK    7  A    between atoms: C_11  and  N_12
REMARK    8  A    between atoms: N_12  and  C_13
REMARK    9  A    between atoms: N_12  and  C_14
REMARK                            x       y       z     vdW  Elec       q    Type
REMARK                         _______ _______ _______ _____ _____    ______ ____
ROOT
ATOM      1  C   UNL     1       3.248   6.181  18.005  0.00  0.00    +0.000 C 
ENDROOT
BRANCH   1   8
ATOM      2  C   UNL     1       4.982   6.678  15.610  0.00  0.00    +0.000 C 
ATOM      3  C   UNL     1       5.572   6.221  16.917  0.00  0.00    +0.000 A 
ATOM      4  C   UNL     1       6.952   5.972  17.026  0.00  0.00    +0.000 A 
ATOM      5  C   UNL     1       7.528   5.555  18.233  0.00  0.00    +0.000 A 
ATOM      6  C   UNL     1       6.736   5.365  19.348  0.00  0.00    +0.000 A 
ATOM      7  C   UNL     1       5.365   5.607  19.263  0.00  0.00    +0.000 A 
ATOM      8  C   UNL     1       4.767   6.041  18.057  0.00  0.00    +0.000 A 
ENDBRANCH   1   8
BRANCH   1   9
ATOM      9  C   UNL     1       2.487   5.010  18.630  0.00  0.00    +0.000 A 
ATOM     10  C   UNL     1       1.906   5.103  19.906  0.00  0.00    +0.000 A 
ATOM     11  C   UNL     1       1.080   4.087  20.394  0.00  0.00    +0.000 A 
ATOM     12  C   UNL     1       0.818   2.963  19.612  0.00  0.00    +0.000 A 
ATOM     13  C   UNL     1       1.416   2.834  18.362  0.00  0.00    +0.000 A 
ATOM     14  C   UNL     1       2.249   3.845  17.878  0.00  0.00    +0.000 A 
ENDBRANCH   1   9
BRANCH   1  15
ATOM     15  O   UNL     1       2.861   7.450  18.584  0.00  0.00    +0.000 OA
BRANCH  15  16
ATOM     16  C   UNL     1       2.362   8.346  17.589  0.00  0.00    +0.000 C 
BRANCH  16  17
ATOM     17  C   UNL     1       1.892   9.663  18.214  0.00  0.00    +0.000 C 
BRANCH  17  18
ATOM     18  N   UNL     1       0.650   9.496  18.998  0.00  0.00    +0.000 NA
ATOM     19  C   UNL     1       0.839   9.856  20.404  0.00  0.00    +0.000 C 
ATOM     20  C   UNL     1      -0.429  10.291  18.414  0.00  0.00    +0.000 C 
ENDBRANCH  17  18
ENDBRANCH  16  17
ENDBRANCH  15  16
ENDBRANCH   1  15
TORSDOF 6
ENDMDL
MODEL 7
REMARK VINA RESULT:      -6.9      0.768      1.567
REMARK  Name = 
REMARK  9 active torsions:
REMARK  status: ('A' for Active; 'I' for Inactive)
REMARK    1  A    between atoms: C_1  and  C_2
REMARK    2  A    between atoms: C_7  and  C_8
REMARK    3  A    between atoms: C_8  and  O_9
REMARK    4  A    between atoms: C_8  and  C_15
REMARK    5  A    between atoms: O_9  and  C_10
REMARK    6  A    between atoms: C_10  and  C_11
REMARK    7  A    between atoms: C_11  and  N_12
REMARK    8  A    between atoms: N_12  and  C_13
REMARK    9  A    between atoms: N_12  and  C_14
REMARK                            x       y       z     vdW  Elec       q    Type
REMARK                         _______ _______ _______ _____ _____    ______ ____
ROOT
ATOM      1  C   UNL     1       3.247   5.856  18.825  0.00  0.00    +0.000 C 
ENDROOT
BRANCH   1   8
ATOM      2  C   UNL     1       2.876   3.671  16.804  0.00  0.00    +0.000 C 
ATOM      3  C   UNL     1       2.238   3.590  18.166  0.00  0.00    +0.000 A 
ATOM      4  C   UNL     1       1.413   2.501  18.499  0.00  0.00    +0.000 A 
ATOM      5  C   UNL     1       0.815   2.396  19.762  0.00  0.00    +0.000 A 
ATOM      6  C   UNL     1       1.018   3.382  20.708  0.00  0.00    +0.000 A 
ATOM      7  C   UNL     1       1.834   4.469  20.398  0.00  0.00    +0.000 A 
ATOM      8  C   UNL     1       2.457   4.587  19.134  0.00  0.00    +0.000 A 
ENDBRANCH   1   8
BRANCH   1   9
ATOM      9  C   UNL     1       2.427   7.145  18.914  0.00  0.00    +0.000 A 
ATOM     10  C   UNL     1       1.900   7.603  20.132  0.00  0.00    +0.000 A 
ATOM     11  C   UNL     1       1.294   8.859  20.225  0.00  0.00    +0.000 A 
ATOM     12  C   UNL     1       1.209   9.679  19.101  0.00  0.00    +0.000 A 
ATOM     13  C   UNL     1       1.690   9.226  17.876  0.00  0.00    +0.000 A 
ATOM     14  C   UNL     1       2.287   7.967  17.780  0.00  0.00    +0.000 A 
ENDBRANCH   1   9
BRANCH   1  15
ATOM     15  O   UNL     1       4.426   5.905  19.663  0.00  0.00    +0.000 OA
BRANCH  15  16
ATOM     16  C   UNL     1       5.489   5.124  19.112  0.00  0.00    +0.000 C 
BRANCH  16  17
ATOM     17  C   UNL     1       5.990   5.721  17.794  0.00  0.00    +0.000 C 
BRANCH  17  18
ATOM     18  N   UNL     1       7.407   6.134  17.873  0.00  0.00    +0.000 NA
ATOM     19  C   UNL     1       7.579   7.557  17.569  0.00  0.00    +0.000 C 
ATOM     20  C   UNL     1       7.952   5.831  19.195  0.00  0.00    +0.000 C 
ENDBRANCH  17  18
ENDBRANCH  16  17
ENDBRANCH  15  16
ENDBRANCH   1  15
TORSDOF 6
ENDMDL
MODEL 8
REMARK VINA RESULT:      -6.8      2.269      5.042
REMARK  Name = 
REMARK  9 active torsions:
REMARK  status: ('A' for Active; 'I' for Inactive)
REMARK    1  A    between atoms: C_1  and  C_2
REMARK    2  A    between atoms: C_7  and  C_8
REMARK    3  A    between atoms: C_8  and  O_9
REMARK    4  A    between atoms: C_8  and  C_15
REMARK    5  A    between atoms: O_9  and  C_10
REMARK    6  A    between atoms: C_10  and  C_11
REMARK    7  A    between atoms: C_11  and  N_12
REMARK    8  A    between atoms: N_12  and  C_13
REMARK    9  A    between atoms: N_12  and  C_14
REMARK                            x       y       z     vdW  Elec       q    Type
REMARK                         _______ _______ _______ _____ _____    ______ ____
ROOT
ATOM      1  C   UNL     1       3.342   6.060  18.704  0.00  0.00    +0.000 C 
ENDROOT
BRANCH   1   8
ATOM      2  C   UNL     1       1.409   5.176  20.820  0.00  0.00    +0.000 C 
ATOM      3  C   UNL     1       1.766   4.277  19.665  0.00  0.00    +0.000 A 
ATOM      4  C   UNL     1       1.230   2.979  19.584  0.00  0.00    +0.000 A 
ATOM      5  C   UNL     1       1.538   2.127  18.516  0.00  0.00    +0.000 A 
ATOM      6  C   UNL     1       2.396   2.547  17.519  0.00  0.00    +0.000 A 
ATOM      7  C   UNL     1       2.938   3.831  17.580  0.00  0.00    +0.000 A 
ATOM      8  C   UNL     1       2.629   4.712  18.642  0.00  0.00    +0.000 A 
ENDBRANCH   1   8
BRANCH   1   9
ATOM      9  C   UNL     1       4.829   6.002  18.350  0.00  0.00    +0.000 A 
ATOM     10  C   UNL     1       5.348   6.664  17.225  0.00  0.00    +0.000 A 
ATOM     11  C   UNL     1       6.726   6.735  17.007  0.00  0.00    +0.000 A 
ATOM     12  C   UNL     1       7.609   6.148  17.912  0.00  0.00    +0.000 A 
ATOM     13  C   UNL     1       7.113   5.454  19.012  0.00  0.00    +0.000 A 
ATOM     14  C   UNL     1       5.735   5.374  19.225  0.00  0.00    +0.000 A 
ENDBRANCH   1   9
BRANCH   1  15
ATOM     15  O   UNL     1       2.628   7.019  17.888  0.00  0.00    +0.000 OA
BRANCH  15  16
ATOM     16  C   UNL     1       2.223   8.156  18.655  0.00  0.00    +0.000 C 
BRANCH  16  17
ATOM     17  C   UNL     1       1.504   9.187  17.781  0.00  0.00    +0.000 C 
BRANCH  17  18
ATOM     18  N   UNL     1       0.674  10.113  18.580  0.00  0.00    +0.000 NA
ATOM     19  C   UNL     1      -0.696  10.197  18.071  0.00  0.00    +0.000 C 
ATOM     20  C   UNL     1       0.666   9.705  19.984  0.00  0.00    +0.000 C 
ENDBRANCH  17  18
ENDBRANCH  16  17
ENDBRANCH  15  16
ENDBRANCH   1  15
TORSDOF 6
ENDMDL
MODEL 9
REMARK VINA RESULT:      -6.8      2.232      5.193
REMARK  Name = 
REMARK  9 active torsions:
REMARK  status: ('A' for Active; 'I' for Inactive)
REMARK    1  A    between atoms: C_1  and  C_2
REMARK    2  A    between atoms: C_7  and  C_8
REMARK    3  A    between atoms: C_8  and  O_9
REMARK    4  A    between atoms: C_8  and  C_15
REMARK    5  A    between atoms: O_9  and  C_10
REMARK    6  A    between atoms: C_10  and  C_11
REMARK    7  A    between atoms: C_11  and  N_12
REMARK    8  A    between atoms: N_12  and  C_13
REMARK    9  A    between atoms: N_12  and  C_14
REMARK                            x       y       z     vdW  Elec       q    Type
REMARK                         _______ _______ _______ _____ _____    ______ ____
ROOT
ATOM      1  C   UNL     1       3.326   5.976  18.520  0.00  0.00    +0.000 C 
ENDROOT
BRANCH   1   8
ATOM      2  C   UNL     1       1.567   5.578  20.917  0.00  0.00    +0.000 C 
ATOM      3  C   UNL     1       1.713   4.504  19.871  0.00  0.00    +0.000 A 
ATOM      4  C   UNL     1       1.060   3.269  20.025  0.00  0.00    +0.000 A 
ATOM      5  C   UNL     1       1.171   2.257  19.063  0.00  0.00    +0.000 A 
ATOM      6  C   UNL     1       1.949   2.454  17.939  0.00  0.00    +0.000 A 
ATOM      7  C   UNL     1       2.605   3.672  17.766  0.00  0.00    +0.000 A 
ATOM      8  C   UNL     1       2.494   4.711  18.719  0.00  0.00    +0.000 A 
ENDBRANCH   1   8
BRANCH   1   9
ATOM      9  C   UNL     1       4.692   5.735  17.876  0.00  0.00    +0.000 A 
ATOM     10  C   UNL     1       5.755   5.157  18.590  0.00  0.00    +0.000 A 
ATOM     11  C   UNL     1       6.940   4.796  17.944  0.00  0.00    +0.000 A 
ATOM     12  C   UNL     1       7.081   5.004  16.573  0.00  0.00    +0.000 A 
ATOM     13  C   UNL     1       6.055   5.611  15.855  0.00  0.00    +0.000 A 
ATOM     14  C   UNL     1       4.873   5.981  16.502  0.00  0.00    +0.000 A 
ENDBRANCH   1   9
BRANCH   1  15
ATOM     15  O   UNL     1       2.547   6.954  17.792  0.00  0.00    +0.000 OA
BRANCH  15  16
ATOM     16  C   UNL     1       2.371   8.151  18.553  0.00  0.00    +0.000 C 
BRANCH  16  17
ATOM     17  C   UNL     1       1.584   9.200  17.763  0.00  0.00    +0.000 C 
BRANCH  17  18
ATOM     18  N   UNL     1       0.792  10.084  18.645  0.00  0.00    +0.000 NA
ATOM     19  C   UNL     1      -0.597  10.202  18.196  0.00  0.00    +0.000 C 
ATOM     20  C   UNL     1       0.838   9.598  20.023  0.00  0.00    +0.000 C 
ENDBRANCH  17  18
ENDBRANCH  16  17
ENDBRANCH  15  16
ENDBRANCH   1  15
TORSDOF 6
ENDMDL
