MODEL 1
REMARK VINA RESULT:      -8.0      0.000      0.000
REMARK  Name = 
REMARK  5 active torsions:
REMARK  status: ('A' for Active; 'I' for Inactive)
REMARK    1  A    between atoms: C_1  and  N_2
REMARK    2  A    between atoms: C_3  and  N_4
REMARK    3  A    between atoms: C_8  and  C_10
REMARK    4  A    between atoms: C_10  and  C_11
REMARK    5  A    between atoms: N_22  and  C_23
REMARK                            x       y       z     vdW  Elec       q    Type
REMARK                         _______ _______ _______ _____ _____    ______ ____
ROOT
ATOM      1  N   UNL     1       1.835   7.455  19.925  0.00  0.00    +0.000 N 
ATOM      2  C   UNL     1       1.926   6.138  20.609  0.00  0.00    +0.000 C 
ATOM      3  C   UNL     1       1.796   5.016  19.565  0.00  0.00    +0.000 C 
ATOM      4  N   UNL     1       2.831   5.142  18.534  0.00  0.00    +0.000 N 
ATOM      5  C   UNL     1       3.622   4.049  18.242  0.00  0.00    +0.000 C 
ATOM      6  O   UNL     1       3.486   2.976  18.839  0.00  0.00    +0.000 OA
ATOM      7  C   UNL     1       2.880   6.475  17.897  0.00  0.00    +0.000 C 
ATOM      8  C   UNL     1       2.934   7.617  18.941  0.00  0.00    +0.000 C 
ENDROOT
BRANCH   1  11
ATOM      9  C   UNL     1       0.647   9.603  18.367  0.00  0.00    +0.000 C 
ATOM     10  N   UNL     1       0.590   9.553  19.819  0.00  0.00    +0.000 N 
ATOM     11  C   UNL     1       1.190   8.531  20.549  0.00  0.00    +0.000 A 
ATOM     12  C   UNL     1       1.127   8.598  21.888  0.00  0.00    +0.000 A 
ATOM     13  C   UNL     1       0.400   9.671  22.578  0.00  0.00    +0.000 A 
ATOM     14  O   UNL     1       0.326   9.636  23.806  0.00  0.00    +0.000 OA
ATOM     15  N   UNL     1      -0.164  10.633  21.782  0.00  0.00    +0.000 N 
ATOM     16  C   UNL     1      -0.925  11.707  22.389  0.00  0.00    +0.000 C 
ATOM     17  C   UNL     1      -0.076  10.632  20.402  0.00  0.00    +0.000 A 
ATOM     18  O   UNL     1      -0.572  11.535  19.722  0.00  0.00    +0.000 OA
ENDBRANCH   1  11
BRANCH   5  19
ATOM     19  C   UNL     1       4.702   4.179  17.181  0.00  0.00    +0.000 C 
BRANCH  19  20
ATOM     20  C   UNL     1       5.842   5.071  17.603  0.00  0.00    +0.000 A 
ATOM     21  C   UNL     1       6.318   6.068  16.736  0.00  0.00    +0.000 A 
ATOM     22  C   UNL     1       7.361   6.910  17.125  0.00  0.00    +0.000 A 
ATOM     23  C   UNL     1       7.942   6.766  18.384  0.00  0.00    +0.000 A 
ATOM     24  C   UNL     1       7.475   5.787  19.256  0.00  0.00    +0.000 A 
ATOM     25  C   UNL     1       6.429   4.946  18.871  0.00  0.00    +0.000 A 
ENDBRANCH  19  20
ENDBRANCH   5  19
TORSDOF 3
ENDMDL
MODEL 2
REMARK VINA RESULT:      -7.8      0.514      1.079
REMARK  Name = 
REMARK  5 active torsions:
REMARK  status: ('A' for Active; 'I' for Inactive)
REMARK    1  A    between atoms: C_1  and  N_2
REMARK    2  A    between atoms: C_3  and  N_4
REMARK    3  A    between atoms: C_8  and  C_10
REMARK    4  A    between atoms: C_10  and  C_11
REMARK    5  A    between atoms: N_22  and  C_23
REMARK                            x       y       z     vdW  Elec       q    Type
REMARK                         _______ _______ _______ _____ _____    ______ ____
ROOT
ATOM      1  N   UNL     1       1.790   7.334  19.997  0.00  0.00    +0.000 N 
ATOM      2  C   UNL     1       1.879   6.113  20.841  0.00  0.00    +0.000 C 
ATOM      3  C   UNL     1       1.629   4.874  19.966  0.00  0.00    +0.000 C 
ATOM      4  N   UNL     1       2.589   4.815  18.859  0.00  0.00    +0.000 N 
ATOM      5  C   UNL     1       3.314   3.656  18.661  0.00  0.00    +0.000 C 
ATOM      6  O   UNL     1       3.179   2.677  19.403  0.00  0.00    +0.000 OA
ATOM      7  C   UNL     1       2.644   6.051  18.050  0.00  0.00    +0.000 C 
ATOM      8  C   UNL     1       2.819   7.314  18.928  0.00  0.00    +0.000 C 
ENDROOT
BRANCH   1  11
ATOM      9  C   UNL     1       1.043   9.537  18.253  0.00  0.00    +0.000 C 
ATOM     10  N   UNL     1       0.844   9.565  19.693  0.00  0.00    +0.000 N 
ATOM     11  C   UNL     1       1.235   8.512  20.515  0.00  0.00    +0.000 A 
ATOM     12  C   UNL     1       1.057   8.650  21.838  0.00  0.00    +0.000 A 
ATOM     13  C   UNL     1       0.414   9.838  22.415  0.00  0.00    +0.000 A 
ATOM     14  O   UNL     1       0.222   9.872  23.630  0.00  0.00    +0.000 OA
ATOM     15  N   UNL     1       0.058  10.825  21.532  0.00  0.00    +0.000 N 
ATOM     16  C   UNL     1      -0.610  12.013  22.023  0.00  0.00    +0.000 C 
ATOM     17  C   UNL     1       0.273  10.746  20.169  0.00  0.00    +0.000 A 
ATOM     18  O   UNL     1      -0.036  11.670  19.411  0.00  0.00    +0.000 OA
ENDBRANCH   1  11
BRANCH   5  19
ATOM     19  C   UNL     1       4.317   3.596  17.522  0.00  0.00    +0.000 C 
BRANCH  19  20
ATOM     20  C   UNL     1       5.466   4.556  17.694  0.00  0.00    +0.000 A 
ATOM     21  C   UNL     1       6.024   4.771  18.964  0.00  0.00    +0.000 A 
ATOM     22  C   UNL     1       7.100   5.645  19.130  0.00  0.00    +0.000 A 
ATOM     23  C   UNL     1       7.629   6.317  18.029  0.00  0.00    +0.000 A 
ATOM     24  C   UNL     1       7.090   6.108  16.763  0.00  0.00    +0.000 A 
ATOM     25  C   UNL     1       6.017   5.231  16.594  0.00  0.00    +0.000 A 
ENDBRANCH  19  20
ENDBRANCH   5  19
TORSDOF 3
ENDMDL
MODEL 3
REMARK VINA RESULT:      -7.6      1.607      1.972
REMARK  Name = 
REMARK  5 active torsions:
REMARK  status: ('A' for Active; 'I' for Inactive)
REMARK    1  A    between atoms: C_1  and  N_2
REMARK    2  A    between atoms: C_3  and  N_4
REMARK    3  A    between atoms: C_8  and  C_10
REMARK    4  A    between atoms: C_10  and  C_11
REMARK    5  A    between atoms: N_22  and  C_23
REMARK                            x       y       z     vdW  Elec       q    Type
REMARK                         _______ _______ _______ _____ _____    ______ ____
ROOT
ATOM      1  N   UNL     1       1.265   9.059  19.488  0.00  0.00    +0.000 N 
ATOM      2  C   UNL     1       1.639   8.210  20.650  0.00  0.00    +0.000 C 
ATOM      3  C   UNL     1       1.546   6.730  20.246  0.00  0.00    +0.000 C 
ATOM      4  N   UNL     1       2.408   6.449  19.094  0.00  0.00    +0.000 N 
ATOM      5  C   UNL     1       3.311   5.406  19.171  0.00  0.00    +0.000 C 
ATOM      6  O   UNL     1       3.415   4.717  20.191  0.00  0.00    +0.000 OA
ATOM      7  C   UNL     1       2.176   7.344  17.941  0.00  0.00    +0.000 C 
ATOM      8  C   UNL     1       2.191   8.837  18.350  0.00  0.00    +0.000 C 
ENDROOT
BRANCH   1  11
ATOM      9  C   UNL     1      -0.941   9.794  17.741  0.00  0.00    +0.000 C 
ATOM     10  N   UNL     1      -0.526  10.603  18.876  0.00  0.00    +0.000 N 
ATOM     11  C   UNL     1       0.551  10.249  19.683  0.00  0.00    +0.000 A 
ATOM     12  C   UNL     1       0.890  11.086  20.677  0.00  0.00    +0.000 A 
ATOM     13  C   UNL     1       0.125  12.306  20.959  0.00  0.00    +0.000 A 
ATOM     14  O   UNL     1       0.450  12.995  21.926  0.00  0.00    +0.000 OA
ATOM     15  N   UNL     1      -0.922  12.576  20.116  0.00  0.00    +0.000 N 
ATOM     16  C   UNL     1      -1.744  13.746  20.351  0.00  0.00    +0.000 C 
ATOM     17  C   UNL     1      -1.272  11.770  19.049  0.00  0.00    +0.000 A 
ATOM     18  O   UNL     1      -2.203  12.064  18.294  0.00  0.00    +0.000 OA
ENDBRANCH   1  11
BRANCH   5  19
ATOM     19  C   UNL     1       4.214   5.119  17.984  0.00  0.00    +0.000 C 
BRANCH  19  20
ATOM     20  C   UNL     1       5.562   5.784  18.091  0.00  0.00    +0.000 A 
ATOM     21  C   UNL     1       5.880   6.875  17.268  0.00  0.00    +0.000 A 
ATOM     22  C   UNL     1       7.120   7.508  17.372  0.00  0.00    +0.000 A 
ATOM     23  C   UNL     1       8.058   7.057  18.299  0.00  0.00    +0.000 A 
ATOM     24  C   UNL     1       7.753   5.980  19.127  0.00  0.00    +0.000 A 
ATOM     25  C   UNL     1       6.512   5.348  19.027  0.00  0.00    +0.000 A 
ENDBRANCH  19  20
ENDBRANCH   5  19
TORSDOF 3
ENDMDL
MODEL 4
REMARK VINA RESULT:      -7.3      2.488      8.313
REMARK  Name = 
REMARK  5 active torsions:
REMARK  status: ('A' for Active; 'I' for Inactive)
REMARK    1  A    between atoms: C_1  and  N_2
REMARK    2  A    between atoms: C_3  and  N_4
REMARK    3  A    between atoms: C_8  and  C_10
REMARK    4  A    between atoms: C_10  and  C_11
REMARK    5  A    between atoms: N_22  and  C_23
REMARK                            x       y       z     vdW  Elec       q    Type
REMARK                         _______ _______ _______ _____ _____    ______ ____
ROOT
ATOM      1  N   UNL     1       2.616   7.597  18.429  0.00  0.00    +0.000 N 
ATOM      2  C   UNL     1       1.774   7.235  19.600  0.00  0.00    +0.000 C 
ATOM      3  C   UNL     1       1.667   8.446  20.540  0.00  0.00    +0.000 C 
ATOM      4  N   UNL     1       1.113   9.606  19.836  0.00  0.00    +0.000 N 
ATOM      5  C   UNL     1       0.029  10.267  20.381  0.00  0.00    +0.000 C 
ATOM      6  O   UNL     1      -0.487   9.894  21.439  0.00  0.00    +0.000 OA
ATOM      7  C   UNL     1       1.829   9.947  18.588  0.00  0.00    +0.000 C 
ATOM      8  C   UNL     1       2.009   8.716  17.666  0.00  0.00    +0.000 C 
ENDROOT
BRANCH   1  11
ATOM      9  C   UNL     1       1.876   4.789  18.277  0.00  0.00    +0.000 C 
ATOM     10  N   UNL     1       3.129   5.307  17.751  0.00  0.00    +0.000 N 
ATOM     11  C   UNL     1       3.478   6.650  17.860  0.00  0.00    +0.000 A 
ATOM     12  C   UNL     1       4.678   7.025  17.389  0.00  0.00    +0.000 A 
ATOM     13  C   UNL     1       5.580   6.078  16.721  0.00  0.00    +0.000 A 
ATOM     14  O   UNL     1       6.637   6.501  16.254  0.00  0.00    +0.000 OA
ATOM     15  N   UNL     1       5.154   4.776  16.656  0.00  0.00    +0.000 N 
ATOM     16  C   UNL     1       5.976   3.790  15.983  0.00  0.00    +0.000 C 
ATOM     17  C   UNL     1       3.951   4.338  17.176  0.00  0.00    +0.000 A 
ATOM     18  O   UNL     1       3.618   3.151  17.123  0.00  0.00    +0.000 OA
ENDBRANCH   1  11
BRANCH   5  19
ATOM     19  C   UNL     1      -0.555  11.462  19.648  0.00  0.00    +0.000 C 
BRANCH  19  20
ATOM     20  C   UNL     1      -1.820  11.136  18.897  0.00  0.00    +0.000 A 
ATOM     21  C   UNL     1      -2.976  11.909  19.089  0.00  0.00    +0.000 A 
ATOM     22  C   UNL     1      -4.148  11.625  18.385  0.00  0.00    +0.000 A 
ATOM     23  C   UNL     1      -4.179  10.564  17.482  0.00  0.00    +0.000 A 
ATOM     24  C   UNL     1      -3.038   9.793  17.276  0.00  0.00    +0.000 A 
ATOM     25  C   UNL     1      -1.864  10.078  17.976  0.00  0.00    +0.000 A 
ENDBRANCH  19  20
ENDBRANCH   5  19
TORSDOF 3
ENDMDL
MODEL 5
REMARK VINA RESULT:      -7.3      2.371      7.921
REMARK  Name = 
REMARK  5 active torsions:
REMARK  status: ('A' for Active; 'I' for Inactive)
REMARK    1  A    between atoms: C_1  and  N_2
REMARK    2  A    between atoms: C_3  and  N_4
REMARK    3  A    between atoms: C_8  and  C_10
REMARK    4  A    between atoms: C_10  and  C_11
REMARK    5  A    between atoms: N_22  and  C_23
REMARK                            x       y       z     vdW  Elec       q    Type
REMARK                         _______ _______ _______ _____ _____    ______ ____
ROOT
ATOM      1  N   UNL     1       2.009   6.918  19.952  0.00  0.00    +0.000 N 
ATOM      2  C   UNL     1       1.174   7.403  21.083  0.00  0.00    +0.000 C 
ATOM      3  C   UNL     1       1.400   8.912  21.266  0.00  0.00    +0.000 C 
ATOM      4  N   UNL     1       1.084   9.640  20.033  0.00  0.00    +0.000 N 
ATOM      5  C   UNL     1       0.212  10.710  20.091  0.00  0.00    +0.000 C 
ATOM      6  O   UNL     1      -0.315  11.055  21.153  0.00  0.00    +0.000 OA
ATOM      7  C   UNL     1       1.786   9.126  18.839  0.00  0.00    +0.000 C 
ATOM      8  C   UNL     1       1.629   7.593  18.686  0.00  0.00    +0.000 C 
ENDROOT
BRANCH   1  11
ATOM      9  C   UNL     1       4.239   6.224  18.220  0.00  0.00    +0.000 C 
ATOM     10  N   UNL     1       3.686   5.307  19.204  0.00  0.00    +0.000 N 
ATOM     11  C   UNL     1       2.599   5.648  20.004  0.00  0.00    +0.000 A 
ATOM     12  C   UNL     1       2.127   4.716  20.848  0.00  0.00    +0.000 A 
ATOM     13  C   UNL     1       2.761   3.399  20.984  0.00  0.00    +0.000 A 
ATOM     14  O   UNL     1       2.317   2.616  21.823  0.00  0.00    +0.000 OA
ATOM     15  N   UNL     1       3.828   3.150  20.160  0.00  0.00    +0.000 N 
ATOM     16  C   UNL     1       4.525   1.884  20.258  0.00  0.00    +0.000 C 
ATOM     17  C   UNL     1       4.312   4.060  19.239  0.00  0.00    +0.000 A 
ATOM     18  O   UNL     1       5.256   3.786  18.493  0.00  0.00    +0.000 OA
ENDBRANCH   1  11
BRANCH   5  19
ATOM     19  C   UNL     1      -0.126  11.459  18.813  0.00  0.00    +0.000 C 
BRANCH  19  20
ATOM     20  C   UNL     1      -1.488  11.113  18.267  0.00  0.00    +0.000 A 
ATOM     21  C   UNL     1      -2.609  11.877  18.627  0.00  0.00    +0.000 A 
ATOM     22  C   UNL     1      -3.871  11.575  18.113  0.00  0.00    +0.000 A 
ATOM     23  C   UNL     1      -4.029  10.506  17.233  0.00  0.00    +0.000 A 
ATOM     24  C   UNL     1      -2.924   9.744  16.861  0.00  0.00    +0.000 A 
ATOM     25  C   UNL     1      -1.660  10.047  17.371  0.00  0.00    +0.000 A 
ENDBRANCH  19  20
ENDBRANCH   5  19
TORSDOF 3
ENDMDL
MODEL 6
REMARK VINA RESULT:      -7.3      2.243      8.077
REMARK  Name = 
REMARK  5 active torsions:
REMARK  status: ('A' for Active; 'I' for Inactive)
REMARK    1  A    between atoms: C_1  and  N_2
REMARK    2  A    between atoms: C_3  and  N_4
REMARK    3  A    between atoms: C_8  and  C_10
REMARK    4  A    between atoms: C_10  and  C_11
REMARK    5  A    between atoms: N_22  and  C_23
REMARK                            x       y       z     vdW  Elec       q    Type
REMARK                         _______ _______ _______ _____ _____    ______ ____
ROOT
ATOM      1  N   UNL     1       1.997   6.404  19.272  0.00  0.00    +0.000 N 
ATOM      2  C   UNL     1       1.267   6.751  20.520  0.00  0.00    +0.000 C 
ATOM      3  C   UNL     1       1.619   8.191  20.928  0.00  0.00    +0.000 C 
ATOM      4  N   UNL     1       1.292   9.132  19.853  0.00  0.00    +0.000 N 
ATOM      5  C   UNL     1       0.510  10.234  20.141  0.00  0.00    +0.000 C 
ATOM      6  O   UNL     1       0.073  10.434  21.279  0.00  0.00    +0.000 OA
ATOM      7  C   UNL     1       1.884   8.776  18.546  0.00  0.00    +0.000 C 
ATOM      8  C   UNL     1       1.600   7.304  18.160  0.00  0.00    +0.000 C 
ENDROOT
BRANCH   1  11
ATOM      9  C   UNL     1       4.852   5.857  19.308  0.00  0.00    +0.000 C 
ATOM     10  N   UNL     1       3.850   4.820  19.122  0.00  0.00    +0.000 N 
ATOM     11  C   UNL     1       2.488   5.106  19.078  0.00  0.00    +0.000 A 
ATOM     12  C   UNL     1       1.642   4.089  18.851  0.00  0.00    +0.000 A 
ATOM     13  C   UNL     1       2.111   2.705  18.714  0.00  0.00    +0.000 A 
ATOM     14  O   UNL     1       1.276   1.812  18.573  0.00  0.00    +0.000 OA
ATOM     15  N   UNL     1       3.467   2.514  18.774  0.00  0.00    +0.000 N 
ATOM     16  C   UNL     1       4.004   1.171  18.679  0.00  0.00    +0.000 C 
ATOM     17  C   UNL     1       4.377   3.540  18.952  0.00  0.00    +0.000 A 
ATOM     18  O   UNL     1       5.593   3.329  18.969  0.00  0.00    +0.000 OA
ENDBRANCH   1  11
BRANCH   5  19
ATOM     19  C   UNL     1       0.160  11.205  19.027  0.00  0.00    +0.000 C 
BRANCH  19  20
ATOM     20  C   UNL     1      -1.213  10.973  18.449  0.00  0.00    +0.000 A 
ATOM     21  C   UNL     1      -2.304  11.737  18.891  0.00  0.00    +0.000 A 
ATOM     22  C   UNL     1      -3.576  11.541  18.350  0.00  0.00    +0.000 A 
ATOM     23  C   UNL     1      -3.773  10.579  17.360  0.00  0.00    +0.000 A 
ATOM     24  C   UNL     1      -2.697   9.819  16.907  0.00  0.00    +0.000 A 
ATOM     25  C   UNL     1      -1.424  10.016  17.445  0.00  0.00    +0.000 A 
ENDBRANCH  19  20
ENDBRANCH   5  19
TORSDOF 3
ENDMDL
MODEL 7
REMARK VINA RESULT:      -7.2      2.381      8.058
REMARK  Name = 
REMARK  5 active torsions:
REMARK  status: ('A' for Active; 'I' for Inactive)
REMARK    1  A    between atoms: C_1  and  N_2
REMARK    2  A    between atoms: C_3  and  N_4
REMARK    3  A    between atoms: C_8  and  C_10
REMARK    4  A    between atoms: C_10  and  C_11
REMARK    5  A    between atoms: N_22  and  C_23
REMARK                            x       y       z     vdW  Elec       q    Type
REMARK                         _______ _______ _______ _____ _____    ______ ____
ROOT
ATOM      1  N   UNL     1       2.207   6.833  19.691  0.00  0.00    +0.000 N 
ATOM      2  C   UNL     1       1.326   7.225  20.822  0.00  0.00    +0.000 C 
ATOM      3  C   UNL     1       1.484   8.731  21.089  0.00  0.00    +0.000 C 
ATOM      4  N   UNL     1       1.168   9.509  19.887  0.00  0.00    +0.000 N 
ATOM      5  C   UNL     1       0.252  10.538  19.976  0.00  0.00    +0.000 C 
ATOM      6  O   UNL     1      -0.315  10.806  21.040  0.00  0.00    +0.000 OA
ATOM      7  C   UNL     1       1.921   9.086  18.687  0.00  0.00    +0.000 C 
ATOM      8  C   UNL     1       1.831   7.559  18.452  0.00  0.00    +0.000 C 
ENDROOT
BRANCH   1  11
ATOM      9  C   UNL     1       0.752   4.396  20.317  0.00  0.00    +0.000 C 
ATOM     10  N   UNL     1       2.162   4.406  19.962  0.00  0.00    +0.000 N 
ATOM     11  C   UNL     1       2.848   5.587  19.694  0.00  0.00    +0.000 A 
ATOM     12  C   UNL     1       4.161   5.501  19.424  0.00  0.00    +0.000 A 
ATOM     13  C   UNL     1       4.854   4.209  19.347  0.00  0.00    +0.000 A 
ATOM     14  O   UNL     1       6.043   4.197  19.031  0.00  0.00    +0.000 OA
ATOM     15  N   UNL     1       4.100   3.097  19.622  0.00  0.00    +0.000 N 
ATOM     16  C   UNL     1       4.707   1.784  19.535  0.00  0.00    +0.000 C 
ATOM     17  C   UNL     1       2.760   3.146  19.957  0.00  0.00    +0.000 A 
ATOM     18  O   UNL     1       2.124   2.123  20.228  0.00  0.00    +0.000 OA
ENDBRANCH   1  11
BRANCH   5  19
ATOM     19  C   UNL     1      -0.086  11.339  18.730  0.00  0.00    +0.000 C 
BRANCH  19  20
ATOM     20  C   UNL     1      -1.478  11.075  18.216  0.00  0.00    +0.000 A 
ATOM     21  C   UNL     1      -1.705  10.049  17.285  0.00  0.00    +0.000 A 
ATOM     22  C   UNL     1      -2.993   9.786  16.816  0.00  0.00    +0.000 A 
ATOM     23  C   UNL     1      -4.070  10.546  17.270  0.00  0.00    +0.000 A 
ATOM     24  C   UNL     1      -3.860  11.562  18.199  0.00  0.00    +0.000 A 
ATOM     25  C   UNL     1      -2.573  11.824  18.672  0.00  0.00    +0.000 A 
ENDBRANCH  19  20
ENDBRANCH   5  19
TORSDOF 3
ENDMDL
MODEL 8
REMARK VINA RESULT:      -7.2      2.597      4.792
REMARK  Name = 
REMARK  5 active torsions:
REMARK  status: ('A' for Active; 'I' for Inactive)
REMARK    1  A    between atoms: C_1  and  N_2
REMARK    2  A    between atoms: C_3  and  N_4
REMARK    3  A    between atoms: C_8  and  C_10
REMARK    4  A    between atoms: C_10  and  C_11
REMARK    5  A    between atoms: N_22  and  C_23
REMARK                            x       y       z     vdW  Elec       q    Type
REMARK                         _______ _______ _______ _____ _____    ______ ____
ROOT
ATOM      1  N   UNL     1      -0.451  10.867  21.793  0.00  0.00    +0.000 N 
ATOM      2  C   UNL     1      -0.521  10.783  20.310  0.00  0.00    +0.000 C 
ATOM      3  C   UNL     1       0.864  10.406  19.758  0.00  0.00    +0.000 C 
ATOM      4  N   UNL     1       1.326   9.139  20.332  0.00  0.00    +0.000 N 
ATOM      5  C   UNL     1       1.747   8.133  19.484  0.00  0.00    +0.000 C 
ATOM      6  O   UNL     1       1.729   8.275  18.258  0.00  0.00    +0.000 OA
ATOM      7  C   UNL     1       1.302   9.108  21.810  0.00  0.00    +0.000 C 
ATOM      8  C   UNL     1      -0.066   9.559  22.379  0.00  0.00    +0.000 C 
ENDROOT
BRANCH   1  11
ATOM      9  C   UNL     1       0.375  13.654  21.829  0.00  0.00    +0.000 C 
ATOM     10  N   UNL     1      -0.832  13.178  22.485  0.00  0.00    +0.000 N 
ATOM     11  C   UNL     1      -1.195  11.834  22.481  0.00  0.00    +0.000 A 
ATOM     12  C   UNL     1      -2.300  11.482  23.157  0.00  0.00    +0.000 A 
ATOM     13  C   UNL     1      -3.146  12.474  23.832  0.00  0.00    +0.000 A 
ATOM     14  O   UNL     1      -4.181  12.092  24.378  0.00  0.00    +0.000 OA
ATOM     15  N   UNL     1      -2.715  13.775  23.782  0.00  0.00    +0.000 N 
ATOM     16  C   UNL     1      -3.515  14.815  24.398  0.00  0.00    +0.000 C 
ATOM     17  C   UNL     1      -1.556  14.172  23.144  0.00  0.00    +0.000 A 
ATOM     18  O   UNL     1      -1.187  15.350  23.149  0.00  0.00    +0.000 OA
ENDBRANCH   1  11
BRANCH   5  19
ATOM     19  C   UNL     1       2.217   6.815  20.076  0.00  0.00    +0.000 C 
BRANCH  19  20
ATOM     20  C   UNL     1       2.710   5.842  19.035  0.00  0.00    +0.000 A 
ATOM     21  C   UNL     1       1.865   4.828  18.559  0.00  0.00    +0.000 A 
ATOM     22  C   UNL     1       2.307   3.933  17.583  0.00  0.00    +0.000 A 
ATOM     23  C   UNL     1       3.599   4.040  17.072  0.00  0.00    +0.000 A 
ATOM     24  C   UNL     1       4.446   5.045  17.530  0.00  0.00    +0.000 A 
ATOM     25  C   UNL     1       4.004   5.944  18.504  0.00  0.00    +0.000 A 
ENDBRANCH  19  20
ENDBRANCH   5  19
TORSDOF 3
ENDMDL
MODEL 9
REMARK VINA RESULT:      -7.1      2.204      8.302
REMARK  Name = 
REMARK  5 active torsions:
REMARK  status: ('A' for Active; 'I' for Inactive)
REMARK    1  A    between atoms: C_1  and  N_2
REMARK    2  A    between atoms: C_3  and  N_4
REMARK    3  A    between atoms: C_8  and  C_10
REMARK    4  A    between atoms: C_10  and  C_11
REMARK    5  A    between atoms: N_22  and  C_23
REMARK                            x       y       z     vdW  Elec       q    Type
REMARK                         _______ _______ _______ _____ _____    ______ ____
ROOT
ATOM      1  N   UNL     1       2.158   6.930  19.120  0.00  0.00    +0.000 N 
ATOM      2  C   UNL     1       2.475   7.948  18.084  0.00  0.00    +0.000 C 
ATOM      3  C   UNL     1       1.357   9.003  18.055  0.00  0.00    +0.000 C 
ATOM      4  N   UNL     1       1.195   9.629  19.371  0.00  0.00    +0.000 N 
ATOM      5  C   UNL     1       1.216  11.007  19.465  0.00  0.00    +0.000 C 
ATOM      6  O   UNL     1       1.379  11.719  18.470  0.00  0.00    +0.000 OA
ATOM      7  C   UNL     1       1.003   8.662  20.472  0.00  0.00    +0.000 C 
ATOM      8  C   UNL     1       2.080   7.550  20.466  0.00  0.00    +0.000 C 
ENDROOT
BRANCH   1  11
ATOM      9  C   UNL     1       4.904   5.992  19.307  0.00  0.00    +0.000 C 
ATOM     10  N   UNL     1       3.784   5.109  19.021  0.00  0.00    +0.000 N 
ATOM     11  C   UNL     1       2.480   5.582  18.907  0.00  0.00    +0.000 A 
ATOM     12  C   UNL     1       1.519   4.699  18.591  0.00  0.00    +0.000 A 
ATOM     13  C   UNL     1       1.803   3.268  18.430  0.00  0.00    +0.000 A 
ATOM     14  O   UNL     1       0.865   2.504  18.205  0.00  0.00    +0.000 OA
ATOM     15  N   UNL     1       3.114   2.890  18.563  0.00  0.00    +0.000 N 
ATOM     16  C   UNL     1       3.468   1.489  18.449  0.00  0.00    +0.000 C 
ATOM     17  C   UNL     1       4.142   3.774  18.834  0.00  0.00    +0.000 A 
ATOM     18  O   UNL     1       5.314   3.397  18.916  0.00  0.00    +0.000 OA
ENDBRANCH   1  11
BRANCH   5  19
ATOM     19  C   UNL     1       1.059  11.657  20.829  0.00  0.00    +0.000 C 
BRANCH  19  20
ATOM     20  C   UNL     1      -0.377  11.944  21.187  0.00  0.00    +0.000 A 
ATOM     21  C   UNL     1      -0.841  11.711  22.491  0.00  0.00    +0.000 A 
ATOM     22  C   UNL     1      -2.164  11.990  22.836  0.00  0.00    +0.000 A 
ATOM     23  C   UNL     1      -3.040  12.504  21.882  0.00  0.00    +0.000 A 
ATOM     24  C   UNL     1      -2.592  12.748  20.587  0.00  0.00    +0.000 A 
ATOM     25  C   UNL     1      -1.267  12.473  20.241  0.00  0.00    +0.000 A 
ENDBRANCH  19  20
ENDBRANCH   5  19
TORSDOF 3
ENDMDL
