MODEL 1
REMARK VINA RESULT:      -7.8      0.000      0.000
REMARK  Name = 
REMARK  8 active torsions:
REMARK  status: ('A' for Active; 'I' for Inactive)
REMARK    1  A    between atoms: C_3  and  C_4
REMARK    2  A    between atoms: C_4  and  N_5
REMARK    3  A    between atoms: N_12  and  C_13
REMARK    4  A    between atoms: C_13  and  C_14
REMARK    5  A    between atoms: C_17  and  C_18
REMARK    6  A    between atoms: C_18  and  O_19
REMARK    7  A    between atoms: O_19  and  C_20
REMARK    8  A    between atoms: C_20  and  C_21
REMARK                            x       y       z     vdW  Elec       q    Type
REMARK                         _______ _______ _______ _____ _____    ______ ____
ROOT
ATOM      1  N   UNL     1       5.090   6.685  16.312  0.00  0.00    +0.000 NA
ATOM      2  C   UNL     1       3.651   7.294  17.374  0.00  0.00    +0.000 C 
ATOM      3  C   UNL     1       2.481   5.976  18.333  0.00  0.00    +0.000 C 
ATOM      4  C   UNL     1       2.865   4.132  17.872  0.00  0.00    +0.000 A 
ATOM      5  C   UNL     1       3.992   3.652  16.696  0.00  0.00    +0.000 A 
ATOM      6  N   UNL     1       4.266   2.351  16.899  0.00  0.00    +0.000 NA
ATOM      7  N   UNL     1       3.559   1.960  17.965  0.00  0.00    +0.000 NA
ATOM      8  N   UNL     1       3.110   3.019  18.712  0.00  0.00    +0.000 N 
ATOM      9  C   UNL     1       5.090   4.905  15.698  0.00  0.00    +0.000 C 
ENDROOT
BRANCH   1  10
ATOM     10  C   UNL     1       6.548   6.818  16.845  0.00  0.00    +0.000 C 
BRANCH  10  13
ATOM     11  C   UNL     1       8.134   5.739  20.030  0.00  0.00    +0.000 A 
ATOM     12  C   UNL     1       8.209   6.474  18.870  0.00  0.00    +0.000 A 
ATOM     13  C   UNL     1       7.041   6.142  18.082  0.00  0.00    +0.000 A 
ATOM     14  C   UNL     1       6.297   5.339  18.918  0.00  0.00    +0.000 A 
ATOM     15  O   UNL     1       6.962   5.059  20.067  0.00  0.00    +0.000 OA
ENDBRANCH  10  13
ENDBRANCH   1  10
BRANCH   8  16
ATOM     16  C   UNL     1       3.385   2.904  20.151  0.00  0.00    +0.000 C 
BRANCH  16  17
ATOM     17  C   UNL     1       2.426   3.462  21.180  0.00  0.00    +0.000 C 
ATOM     18  C   UNL     1       0.964   3.551  20.779  0.00  0.00    +0.000 C 
ATOM     19  C   UNL     1       1.384   2.583  21.840  0.00  0.00    +0.000 C 
ENDBRANCH  16  17
ENDBRANCH   8  16
BRANCH   9  20
ATOM     20  C   UNL     1       6.431   4.392  15.121  0.00  0.00    +0.000 C 
BRANCH  20  21
ATOM     21  O   UNL     1       6.783   5.167  13.969  0.00  0.00    +0.000 OA
BRANCH  21  22
ATOM     22  C   UNL     1       6.892   4.409  12.761  0.00  0.00    +0.000 C 
BRANCH  22  23
ATOM     23  C   UNL     1       5.896   3.293  12.740  0.00  0.00    +0.000 C 
ATOM     24  C   UNL     1       4.733   3.360  11.782  0.00  0.00    +0.000 C 
ATOM     25  C   UNL     1       5.814   2.341  11.573  0.00  0.00    +0.000 C 
ENDBRANCH  22  23
ENDBRANCH  21  22
ENDBRANCH  20  21
ENDBRANCH   9  20
TORSDOF 8
ENDMDL
MODEL 2
REMARK VINA RESULT:      -7.4      1.387      1.684
REMARK  Name = 
REMARK  8 active torsions:
REMARK  status: ('A' for Active; 'I' for Inactive)
REMARK    1  A    between atoms: C_3  and  C_4
REMARK    2  A    between atoms: C_4  and  N_5
REMARK    3  A    between atoms: N_12  and  C_13
REMARK    4  A    between atoms: C_13  and  C_14
REMARK    5  A    between atoms: C_17  and  C_18
REMARK    6  A    between atoms: C_18  and  O_19
REMARK    7  A    between atoms: O_19  and  C_20
REMARK    8  A    between atoms: C_20  and  C_21
REMARK                            x       y       z     vdW  Elec       q    Type
REMARK                         _______ _______ _______ _____ _____    ______ ____
ROOT
ATOM      1  N   UNL     1       5.562   6.625  16.715  0.00  0.00    +0.000 NA
ATOM      2  C   UNL     1       4.233   7.244  17.907  0.00  0.00    +0.000 C 
ATOM      3  C   UNL     1       2.965   5.944  18.760  0.00  0.00    +0.000 C 
ATOM      4  C   UNL     1       3.135   4.140  18.070  0.00  0.00    +0.000 A 
ATOM      5  C   UNL     1       4.163   3.694  16.795  0.00  0.00    +0.000 A 
ATOM      6  N   UNL     1       4.305   2.357  16.832  0.00  0.00    +0.000 NA
ATOM      7  N   UNL     1       3.599   1.914  17.877  0.00  0.00    +0.000 NA
ATOM      8  N   UNL     1       3.291   2.914  18.763  0.00  0.00    +0.000 N 
ATOM      9  C   UNL     1       5.352   4.941  15.898  0.00  0.00    +0.000 C 
ENDROOT
BRANCH   1  10
ATOM     10  C   UNL     1       7.043   6.545  17.190  0.00  0.00    +0.000 C 
BRANCH  10  13
ATOM     11  C   UNL     1       8.403   9.844  18.233  0.00  0.00    +0.000 A 
ATOM     12  C   UNL     1       7.634   9.114  17.357  0.00  0.00    +0.000 A 
ATOM     13  C   UNL     1       7.814   7.719  17.697  0.00  0.00    +0.000 A 
ATOM     14  C   UNL     1       8.571   7.755  18.848  0.00  0.00    +0.000 A 
ATOM     15  O   UNL     1       8.962   9.018  19.151  0.00  0.00    +0.000 OA
ENDBRANCH  10  13
ENDBRANCH   1  10
BRANCH   8  16
ATOM     16  C   UNL     1       3.602   2.600  20.164  0.00  0.00    +0.000 C 
BRANCH  16  17
ATOM     17  C   UNL     1       2.523   2.592  21.225  0.00  0.00    +0.000 C 
ATOM     18  C   UNL     1       1.991   3.942  21.674  0.00  0.00    +0.000 C 
ATOM     19  C   UNL     1       1.104   3.014  20.905  0.00  0.00    +0.000 C 
ENDBRANCH  16  17
ENDBRANCH   8  16
BRANCH   9  20
ATOM     20  C   UNL     1       6.611   4.369  15.203  0.00  0.00    +0.000 C 
BRANCH  20  21
ATOM     21  O   UNL     1       6.876   5.113  14.008  0.00  0.00    +0.000 OA
BRANCH  21  22
ATOM     22  C   UNL     1       6.941   4.317  12.822  0.00  0.00    +0.000 C 
BRANCH  22  23
ATOM     23  C   UNL     1       5.818   3.329  12.780  0.00  0.00    +0.000 C 
ATOM     24  C   UNL     1       4.728   3.494  11.751  0.00  0.00    +0.000 C 
ATOM     25  C   UNL     1       5.686   2.343  11.647  0.00  0.00    +0.000 C 
ENDBRANCH  22  23
ENDBRANCH  21  22
ENDBRANCH  20  21
ENDBRANCH   9  20
TORSDOF 8
ENDMDL
MODEL 3
REMARK VINA RESULT:      -7.3      2.947      6.844
REMARK  Name = 
REMARK  8 active torsions:
REMARK  status: ('A' for Active; 'I' for Inactive)
REMARK    1  A    between atoms: C_3  and  C_4
REMARK    2  A    between atoms: C_4  and  N_5
REMARK    3  A    between atoms: N_12  and  C_13
REMARK    4  A    between atoms: C_13  and  C_14
REMARK    5  A    between atoms: C_17  and  C_18
REMARK    6  A    between atoms: C_18  and  O_19
REMARK    7  A    between atoms: O_19  and  C_20
REMARK    8  A    between atoms: C_20  and  C_21
REMARK                            x       y       z     vdW  Elec       q    Type
REMARK                         _______ _______ _______ _____ _____    ______ ____
ROOT
ATOM      1  N   UNL     1       2.030   5.324  18.088  0.00  0.00    +0.000 NA
ATOM      2  C   UNL     1       2.484   3.642  17.357  0.00  0.00    +0.000 C 
ATOM      3  C   UNL     1       4.218   3.407  16.375  0.00  0.00    +0.000 C 
ATOM      4  C   UNL     1       5.178   5.070  16.106  0.00  0.00    +0.000 A 
ATOM      5  C   UNL     1       4.588   6.600  16.543  0.00  0.00    +0.000 A 
ATOM      6  N   UNL     1       5.629   7.451  16.561  0.00  0.00    +0.000 NA
ATOM      7  N   UNL     1       6.721   6.745  16.250  0.00  0.00    +0.000 NA
ATOM      8  N   UNL     1       6.528   5.394  16.388  0.00  0.00    +0.000 N 
ATOM      9  C   UNL     1       2.881   6.870  17.431  0.00  0.00    +0.000 C 
ENDROOT
BRANCH   1  10
ATOM     10  C   UNL     1       2.142   5.550  19.625  0.00  0.00    +0.000 C 
BRANCH  10  13
ATOM     11  C   UNL     1       1.261   2.536  21.614  0.00  0.00    +0.000 A 
ATOM     12  C   UNL     1       0.946   3.404  20.595  0.00  0.00    +0.000 A 
ATOM     13  C   UNL     1       1.918   4.476  20.637  0.00  0.00    +0.000 A 
ATOM     14  C   UNL     1       2.818   4.068  21.598  0.00  0.00    +0.000 A 
ATOM     15  O   UNL     1       2.410   2.932  22.215  0.00  0.00    +0.000 OA
ENDBRANCH  10  13
ENDBRANCH   1  10
BRANCH   8  16
ATOM     16  C   UNL     1       7.571   4.709  17.162  0.00  0.00    +0.000 C 
BRANCH  16  17
ATOM     17  C   UNL     1       7.478   4.586  18.668  0.00  0.00    +0.000 C 
ATOM     18  C   UNL     1       7.904   5.795  19.483  0.00  0.00    +0.000 C 
ATOM     19  C   UNL     1       6.464   5.386  19.460  0.00  0.00    +0.000 C 
ENDBRANCH  16  17
ENDBRANCH   8  16
BRANCH   9  20
ATOM     20  C   UNL     1       2.704   8.150  18.284  0.00  0.00    +0.000 C 
BRANCH  20  21
ATOM     21  O   UNL     1       1.737   9.006  17.664  0.00  0.00    +0.000 OA
BRANCH  21  22
ATOM     22  C   UNL     1       0.872   9.679  18.584  0.00  0.00    +0.000 C 
BRANCH  22  23
ATOM     23  C   UNL     1       1.125   9.223  19.986  0.00  0.00    +0.000 C 
ATOM     24  C   UNL     1       0.869  10.174  21.128  0.00  0.00    +0.000 C 
ATOM     25  C   UNL     1      -0.013   8.973  20.943  0.00  0.00    +0.000 C 
ENDBRANCH  22  23
ENDBRANCH  21  22
ENDBRANCH  20  21
ENDBRANCH   9  20
TORSDOF 8
ENDMDL
MODEL 4
REMARK VINA RESULT:      -7.2      4.013      6.325
REMARK  Name = 
REMARK  8 active torsions:
REMARK  status: ('A' for Active; 'I' for Inactive)
REMARK    1  A    between atoms: C_3  and  C_4
REMARK    2  A    between atoms: C_4  and  N_5
REMARK    3  A    between atoms: N_12  and  C_13
REMARK    4  A    between atoms: C_13  and  C_14
REMARK    5  A    between atoms: C_17  and  C_18
REMARK    6  A    between atoms: C_18  and  O_19
REMARK    7  A    between atoms: O_19  and  C_20
REMARK    8  A    between atoms: C_20  and  C_21
REMARK                            x       y       z     vdW  Elec       q    Type
REMARK                         _______ _______ _______ _____ _____    ______ ____
ROOT
ATOM      1  N   UNL     1       2.452   6.130  19.523  0.00  0.00    +0.000 NA
ATOM      2  C   UNL     1       1.393   6.507  21.042  0.00  0.00    +0.000 C 
ATOM      3  C   UNL     1       0.474   8.283  21.210  0.00  0.00    +0.000 C 
ATOM      4  C   UNL     1       0.970   9.539  19.820  0.00  0.00    +0.000 A 
ATOM      5  C   UNL     1       2.144   9.238  18.630  0.00  0.00    +0.000 A 
ATOM      6  N   UNL     1       1.966  10.135  17.644  0.00  0.00    +0.000 NA
ATOM      7  N   UNL     1       0.917  10.891  17.982  0.00  0.00    +0.000 NA
ATOM      8  N   UNL     1       0.151  10.315  18.964  0.00  0.00    +0.000 N 
ATOM      9  C   UNL     1       3.104   7.556  18.481  0.00  0.00    +0.000 C 
ENDROOT
BRANCH   1  10
ATOM     10  C   UNL     1       1.901   5.179  18.419  0.00  0.00    +0.000 C 
BRANCH  10  13
ATOM     11  C   UNL     1       3.215   1.752  17.830  0.00  0.00    +0.000 A 
ATOM     12  C   UNL     1       3.011   3.029  17.361  0.00  0.00    +0.000 A 
ATOM     13  C   UNL     1       2.214   3.721  18.351  0.00  0.00    +0.000 A 
ATOM     14  C   UNL     1       2.136   2.826  19.396  0.00  0.00    +0.000 A 
ATOM     15  O   UNL     1       2.694   1.632  19.076  0.00  0.00    +0.000 OA
ENDBRANCH  10  13
ENDBRANCH   1  10
BRANCH   8  16
ATOM     16  C   UNL     1      -1.287  10.280  18.668  0.00  0.00    +0.000 C 
BRANCH  16  17
ATOM     17  C   UNL     1      -1.796   9.972  17.276  0.00  0.00    +0.000 C 
ATOM     18  C   UNL     1      -3.299   9.839  17.109  0.00  0.00    +0.000 C 
ATOM     19  C   UNL     1      -2.582  10.995  16.484  0.00  0.00    +0.000 C 
ENDBRANCH  16  17
ENDBRANCH   8  16
BRANCH   9  20
ATOM     20  C   UNL     1       3.677   7.170  17.096  0.00  0.00    +0.000 C 
BRANCH  20  21
ATOM     21  O   UNL     1       5.097   7.002  17.197  0.00  0.00    +0.000 OA
BRANCH  21  22
ATOM     22  C   UNL     1       5.552   5.673  16.925  0.00  0.00    +0.000 C 
BRANCH  22  23
ATOM     23  C   UNL     1       5.655   5.435  15.452  0.00  0.00    +0.000 C 
ATOM     24  C   UNL     1       6.961   4.953  14.873  0.00  0.00    +0.000 C 
ATOM     25  C   UNL     1       5.770   4.040  14.893  0.00  0.00    +0.000 C 
ENDBRANCH  22  23
ENDBRANCH  21  22
ENDBRANCH  20  21
ENDBRANCH   9  20
TORSDOF 8
ENDMDL
MODEL 5
REMARK VINA RESULT:      -7.1      4.029      6.622
REMARK  Name = 
REMARK  8 active torsions:
REMARK  status: ('A' for Active; 'I' for Inactive)
REMARK    1  A    between atoms: C_3  and  C_4
REMARK    2  A    between atoms: C_4  and  N_5
REMARK    3  A    between atoms: N_12  and  C_13
REMARK    4  A    between atoms: C_13  and  C_14
REMARK    5  A    between atoms: C_17  and  C_18
REMARK    6  A    between atoms: C_18  and  O_19
REMARK    7  A    between atoms: O_19  and  C_20
REMARK    8  A    between atoms: C_20  and  C_21
REMARK                            x       y       z     vdW  Elec       q    Type
REMARK                         _______ _______ _______ _____ _____    ______ ____
ROOT
ATOM      1  N   UNL     1       2.452   6.116  19.522  0.00  0.00    +0.000 NA
ATOM      2  C   UNL     1       1.378   6.472  21.035  0.00  0.00    +0.000 C 
ATOM      3  C   UNL     1       0.450   8.241  21.215  0.00  0.00    +0.000 C 
ATOM      4  C   UNL     1       0.953   9.515  19.844  0.00  0.00    +0.000 A 
ATOM      5  C   UNL     1       2.139   9.233  18.662  0.00  0.00    +0.000 A 
ATOM      6  N   UNL     1       1.966  10.141  17.684  0.00  0.00    +0.000 NA
ATOM      7  N   UNL     1       0.911  10.889  18.021  0.00  0.00    +0.000 NA
ATOM      8  N   UNL     1       0.139  10.298  18.989  0.00  0.00    +0.000 N 
ATOM      9  C   UNL     1       3.108   7.558  18.502  0.00  0.00    +0.000 C 
ENDROOT
BRANCH   1  10
ATOM     10  C   UNL     1       1.916   5.176  18.402  0.00  0.00    +0.000 C 
BRANCH  10  13
ATOM     11  C   UNL     1       3.328   1.781  17.858  0.00  0.00    +0.000 A 
ATOM     12  C   UNL     1       3.190   3.079  17.425  0.00  0.00    +0.000 A 
ATOM     13  C   UNL     1       2.246   3.723  18.313  0.00  0.00    +0.000 A 
ATOM     14  C   UNL     1       2.015   2.779  19.291  0.00  0.00    +0.000 A 
ATOM     15  O   UNL     1       2.625   1.602  19.003  0.00  0.00    +0.000 OA
ENDBRANCH  10  13
ENDBRANCH   1  10
BRANCH   8  16
ATOM     16  C   UNL     1      -1.297  10.260  18.680  0.00  0.00    +0.000 C 
BRANCH  16  17
ATOM     17  C   UNL     1      -1.791   9.962  17.281  0.00  0.00    +0.000 C 
ATOM     18  C   UNL     1      -3.290   9.785  17.106  0.00  0.00    +0.000 C 
ATOM     19  C   UNL     1      -2.608  10.975  16.504  0.00  0.00    +0.000 C 
ENDBRANCH  16  17
ENDBRANCH   8  16
BRANCH   9  20
ATOM     20  C   UNL     1       3.695   7.190  17.118  0.00  0.00    +0.000 C 
BRANCH  20  21
ATOM     21  O   UNL     1       5.123   7.111  17.211  0.00  0.00    +0.000 OA
BRANCH  21  22
ATOM     22  C   UNL     1       5.667   5.840  16.844  0.00  0.00    +0.000 C 
BRANCH  22  23
ATOM     23  C   UNL     1       6.369   5.205  18.002  0.00  0.00    +0.000 C 
ATOM     24  C   UNL     1       7.725   4.581  17.789  0.00  0.00    +0.000 C 
ATOM     25  C   UNL     1       7.600   5.832  18.608  0.00  0.00    +0.000 C 
ENDBRANCH  22  23
ENDBRANCH  21  22
ENDBRANCH  20  21
ENDBRANCH   9  20
TORSDOF 8
ENDMDL
MODEL 6
REMARK VINA RESULT:      -7.1      0.754      1.106
REMARK  Name = 
REMARK  8 active torsions:
REMARK  status: ('A' for Active; 'I' for Inactive)
REMARK    1  A    between atoms: C_3  and  C_4
REMARK    2  A    between atoms: C_4  and  N_5
REMARK    3  A    between atoms: N_12  and  C_13
REMARK    4  A    between atoms: C_13  and  C_14
REMARK    5  A    between atoms: C_17  and  C_18
REMARK    6  A    between atoms: C_18  and  O_19
REMARK    7  A    between atoms: O_19  and  C_20
REMARK    8  A    between atoms: C_20  and  C_21
REMARK                            x       y       z     vdW  Elec       q    Type
REMARK                         _______ _______ _______ _____ _____    ______ ____
ROOT
ATOM      1  N   UNL     1       4.677   6.737  16.497  0.00  0.00    +0.000 NA
ATOM      2  C   UNL     1       3.399   7.228  17.800  0.00  0.00    +0.000 C 
ATOM      3  C   UNL     1       2.446   5.814  18.856  0.00  0.00    +0.000 C 
ATOM      4  C   UNL     1       2.822   4.014  18.243  0.00  0.00    +0.000 A 
ATOM      5  C   UNL     1       3.769   3.642  16.883  0.00  0.00    +0.000 A 
ATOM      6  N   UNL     1       4.121   2.347  16.972  0.00  0.00    +0.000 NA
ATOM      7  N   UNL     1       3.605   1.874  18.111  0.00  0.00    +0.000 NA
ATOM      8  N   UNL     1       3.239   2.875  18.975  0.00  0.00    +0.000 N 
ATOM      9  C   UNL     1       4.648   4.990  15.796  0.00  0.00    +0.000 C 
ENDROOT
BRANCH   1  10
ATOM     10  C   UNL     1       6.194   6.911  16.804  0.00  0.00    +0.000 C 
BRANCH  10  13
ATOM     11  C   UNL     1       7.493   5.269  19.876  0.00  0.00    +0.000 A 
ATOM     12  C   UNL     1       6.505   5.366  18.924  0.00  0.00    +0.000 A 
ATOM     13  C   UNL     1       6.829   6.507  18.094  0.00  0.00    +0.000 A 
ATOM     14  C   UNL     1       8.069   6.903  18.546  0.00  0.00    +0.000 A 
ATOM     15  O   UNL     1       8.453   6.195  19.637  0.00  0.00    +0.000 OA
ENDBRANCH  10  13
ENDBRANCH   1  10
BRANCH   8  16
ATOM     16  C   UNL     1       3.740   2.705  20.345  0.00  0.00    +0.000 C 
BRANCH  16  17
ATOM     17  C   UNL     1       2.793   2.613  21.522  0.00  0.00    +0.000 C 
ATOM     18  C   UNL     1       2.066   3.886  21.920  0.00  0.00    +0.000 C 
ATOM     19  C   UNL     1       1.295   2.743  21.336  0.00  0.00    +0.000 C 
ENDBRANCH  16  17
ENDBRANCH   8  16
BRANCH   9  20
ATOM     20  C   UNL     1       5.901   4.566  14.992  0.00  0.00    +0.000 C 
BRANCH  20  21
ATOM     21  O   UNL     1       5.501   4.078  13.706  0.00  0.00    +0.000 OA
BRANCH  21  22
ATOM     22  C   UNL     1       6.588   3.716  12.850  0.00  0.00    +0.000 C 
BRANCH  22  23
ATOM     23  C   UNL     1       6.086   3.225  11.529  0.00  0.00    +0.000 C 
ATOM     24  C   UNL     1       5.665   1.783  11.390  0.00  0.00    +0.000 C 
ATOM     25  C   UNL     1       4.634   2.872  11.327  0.00  0.00    +0.000 C 
ENDBRANCH  22  23
ENDBRANCH  21  22
ENDBRANCH  20  21
ENDBRANCH   9  20
TORSDOF 8
ENDMDL
MODEL 7
REMARK VINA RESULT:      -7.1      1.434      1.896
REMARK  Name = 
REMARK  8 active torsions:
REMARK  status: ('A' for Active; 'I' for Inactive)
REMARK    1  A    between atoms: C_3  and  C_4
REMARK    2  A    between atoms: C_4  and  N_5
REMARK    3  A    between atoms: N_12  and  C_13
REMARK    4  A    between atoms: C_13  and  C_14
REMARK    5  A    between atoms: C_17  and  C_18
REMARK    6  A    between atoms: C_18  and  O_19
REMARK    7  A    between atoms: O_19  and  C_20
REMARK    8  A    between atoms: C_20  and  C_21
REMARK                            x       y       z     vdW  Elec       q    Type
REMARK                         _______ _______ _______ _____ _____    ______ ____
ROOT
ATOM      1  N   UNL     1       4.981   6.236  16.768  0.00  0.00    +0.000 NA
ATOM      2  C   UNL     1       3.609   7.419  17.306  0.00  0.00    +0.000 C 
ATOM      3  C   UNL     1       1.837   6.695  17.908  0.00  0.00    +0.000 C 
ATOM      4  C   UNL     1       1.666   4.780  17.662  0.00  0.00    +0.000 A 
ATOM      5  C   UNL     1       2.835   3.802  16.913  0.00  0.00    +0.000 A 
ATOM      6  N   UNL     1       2.571   2.525  17.243  0.00  0.00    +0.000 NA
ATOM      7  N   UNL     1       1.506   2.537  18.051  0.00  0.00    +0.000 NA
ATOM      8  N   UNL     1       1.266   3.779  18.581  0.00  0.00    +0.000 N 
ATOM      9  C   UNL     1       4.531   4.481  16.255  0.00  0.00    +0.000 C 
ENDROOT
BRANCH   1  10
ATOM     10  C   UNL     1       6.184   5.970  17.720  0.00  0.00    +0.000 C 
BRANCH  10  13
ATOM     11  C   UNL     1       8.428   8.902  18.159  0.00  0.00    +0.000 A 
ATOM     12  C   UNL     1       7.355   8.329  17.517  0.00  0.00    +0.000 A 
ATOM     13  C   UNL     1       7.284   6.953  17.957  0.00  0.00    +0.000 A 
ATOM     14  C   UNL     1       8.246   6.870  18.941  0.00  0.00    +0.000 A 
ATOM     15  O   UNL     1       8.962   8.018  19.038  0.00  0.00    +0.000 OA
ENDBRANCH  10  13
ENDBRANCH   1  10
BRANCH   8  16
ATOM     16  C   UNL     1       1.073   3.791  20.037  0.00  0.00    +0.000 C 
BRANCH  16  17
ATOM     17  C   UNL     1       2.251   3.734  20.985  0.00  0.00    +0.000 C 
ATOM     18  C   UNL     1       2.369   2.498  21.861  0.00  0.00    +0.000 C 
ATOM     19  C   UNL     1       3.376   2.740  20.781  0.00  0.00    +0.000 C 
ENDBRANCH  16  17
ENDBRANCH   8  16
BRANCH   9  20
ATOM     20  C   UNL     1       5.713   3.489  16.143  0.00  0.00    +0.000 C 
BRANCH  20  21
ATOM     21  O   UNL     1       6.146   3.414  14.779  0.00  0.00    +0.000 OA
BRANCH  21  22
ATOM     22  C   UNL     1       5.280   4.072  13.850  0.00  0.00    +0.000 C 
BRANCH  22  23
ATOM     23  C   UNL     1       5.663   3.748  12.441  0.00  0.00    +0.000 C 
ATOM     24  C   UNL     1       5.589   2.318  11.967  0.00  0.00    +0.000 C 
ATOM     25  C   UNL     1       4.628   3.335  11.425  0.00  0.00    +0.000 C 
ENDBRANCH  22  23
ENDBRANCH  21  22
ENDBRANCH  20  21
ENDBRANCH   9  20
TORSDOF 8
ENDMDL
MODEL 8
REMARK VINA RESULT:      -6.9      5.896      9.422
REMARK  Name = 
REMARK  8 active torsions:
REMARK  status: ('A' for Active; 'I' for Inactive)
REMARK    1  A    between atoms: C_3  and  C_4
REMARK    2  A    between atoms: C_4  and  N_5
REMARK    3  A    between atoms: N_12  and  C_13
REMARK    4  A    between atoms: C_13  and  C_14
REMARK    5  A    between atoms: C_17  and  C_18
REMARK    6  A    between atoms: C_18  and  O_19
REMARK    7  A    between atoms: O_19  and  C_20
REMARK    8  A    between atoms: C_20  and  C_21
REMARK                            x       y       z     vdW  Elec       q    Type
REMARK                         _______ _______ _______ _____ _____    ______ ____
ROOT
ATOM      1  N   UNL     1       0.675   9.957  19.442  0.00  0.00    +0.000 NA
ATOM      2  C   UNL     1       1.693   9.767  17.861  0.00  0.00    +0.000 C 
ATOM      3  C   UNL     1       2.696   8.065  17.510  0.00  0.00    +0.000 C 
ATOM      4  C   UNL     1       2.662   6.831  19.004  0.00  0.00    +0.000 A 
ATOM      5  C   UNL     1       1.960   7.171  20.513  0.00  0.00    +0.000 A 
ATOM      6  N   UNL     1       1.788   6.003  21.156  0.00  0.00    +0.000 NA
ATOM      7  N   UNL     1       2.217   5.035  20.340  0.00  0.00    +0.000 NA
ATOM      8  N   UNL     1       2.322   5.457  19.039  0.00  0.00    +0.000 N 
ATOM      9  C   UNL     1       1.043   8.837  20.910  0.00  0.00    +0.000 C 
ENDROOT
BRANCH   1  10
ATOM     10  C   UNL     1      -0.878   9.860  19.373  0.00  0.00    +0.000 C 
BRANCH  10  13
ATOM     11  C   UNL     1      -3.359  10.499  16.679  0.00  0.00    +0.000 A 
ATOM     12  C   UNL     1      -2.784   9.614  17.561  0.00  0.00    +0.000 A 
ATOM     13  C   UNL     1      -1.683  10.305  18.197  0.00  0.00    +0.000 A 
ATOM     14  C   UNL     1      -1.793  11.599  17.734  0.00  0.00    +0.000 A 
ATOM     15  O   UNL     1      -2.765  11.713  16.795  0.00  0.00    +0.000 OA
ENDBRANCH  10  13
ENDBRANCH   1  10
BRANCH   8  16
ATOM     16  C   UNL     1       1.680   4.570  18.060  0.00  0.00    +0.000 C 
BRANCH  16  17
ATOM     17  C   UNL     1       2.484   3.564  17.265  0.00  0.00    +0.000 C 
ATOM     18  C   UNL     1       3.673   2.929  17.965  0.00  0.00    +0.000 C 
ATOM     19  C   UNL     1       2.479   2.093  17.626  0.00  0.00    +0.000 C 
ENDBRANCH  16  17
ENDBRANCH   8  16
BRANCH   9  20
ATOM     20  C   UNL     1      -0.024   8.825  22.032  0.00  0.00    +0.000 C 
BRANCH  20  21
ATOM     21  O   UNL     1       0.121  10.000  22.840  0.00  0.00    +0.000 OA
BRANCH  21  22
ATOM     22  C   UNL     1      -1.114  10.638  23.175  0.00  0.00    +0.000 C 
BRANCH  22  23
ATOM     23  C   UNL     1      -1.106  12.072  22.750  0.00  0.00    +0.000 C 
ATOM     24  C   UNL     1      -1.950  12.498  21.574  0.00  0.00    +0.000 C 
ATOM     25  C   UNL     1      -2.311  12.956  22.957  0.00  0.00    +0.000 C 
ENDBRANCH  22  23
ENDBRANCH  21  22
ENDBRANCH  20  21
ENDBRANCH   9  20
TORSDOF 8
ENDMDL
MODEL 9
REMARK VINA RESULT:      -6.7      5.845      9.307
REMARK  Name = 
REMARK  8 active torsions:
REMARK  status: ('A' for Active; 'I' for Inactive)
REMARK    1  A    between atoms: C_3  and  C_4
REMARK    2  A    between atoms: C_4  and  N_5
REMARK    3  A    between atoms: N_12  and  C_13
REMARK    4  A    between atoms: C_13  and  C_14
REMARK    5  A    between atoms: C_17  and  C_18
REMARK    6  A    between atoms: C_18  and  O_19
REMARK    7  A    between atoms: O_19  and  C_20
REMARK    8  A    between atoms: C_20  and  C_21
REMARK                            x       y       z     vdW  Elec       q    Type
REMARK                         _______ _______ _______ _____ _____    ______ ____
ROOT
ATOM      1  N   UNL     1       1.226   9.845  19.094  0.00  0.00    +0.000 NA
ATOM      2  C   UNL     1       2.484   9.498  17.727  0.00  0.00    +0.000 C 
ATOM      3  C   UNL     1       3.298   7.673  17.550  0.00  0.00    +0.000 C 
ATOM      4  C   UNL     1       2.824   6.478  19.001  0.00  0.00    +0.000 A 
ATOM      5  C   UNL     1       1.907   6.931  20.356  0.00  0.00    +0.000 A 
ATOM      6  N   UNL     1       1.465   5.806  20.946  0.00  0.00    +0.000 NA
ATOM      7  N   UNL     1       1.904   4.777  20.213  0.00  0.00    +0.000 NA
ATOM      8  N   UNL     1       2.304   5.161  18.958  0.00  0.00    +0.000 N 
ATOM      9  C   UNL     1       1.164   8.709  20.594  0.00  0.00    +0.000 C 
ENDROOT
BRANCH   1  10
ATOM     10  C   UNL     1      -0.286   9.955  18.737  0.00  0.00    +0.000 C 
BRANCH  10  13
ATOM     11  C   UNL     1      -2.760  12.664  19.341  0.00  0.00    +0.000 A 
ATOM     12  C   UNL     1      -2.511  11.348  19.026  0.00  0.00    +0.000 A 
ATOM     13  C   UNL     1      -1.079  11.213  18.871  0.00  0.00    +0.000 A 
ATOM     14  C   UNL     1      -0.588  12.443  19.253  0.00  0.00    +0.000 A 
ATOM     15  O   UNL     1      -1.587  13.328  19.494  0.00  0.00    +0.000 OA
ENDBRANCH  10  13
ENDBRANCH   1  10
BRANCH   8  16
ATOM     16  C   UNL     1       1.740   4.352  17.869  0.00  0.00    +0.000 C 
BRANCH  16  17
ATOM     17  C   UNL     1       2.522   3.212  17.253  0.00  0.00    +0.000 C 
ATOM     18  C   UNL     1       3.953   3.505  16.839  0.00  0.00    +0.000 C 
ATOM     19  C   UNL     1       3.687   2.575  17.981  0.00  0.00    +0.000 C 
ENDBRANCH  16  17
ENDBRANCH   8  16
BRANCH   9  20
ATOM     20  C   UNL     1      -0.084   8.857  21.498  0.00  0.00    +0.000 C 
BRANCH  20  21
ATOM     21  O   UNL     1       0.268   9.582  22.683  0.00  0.00    +0.000 OA
BRANCH  21  22
ATOM     22  C   UNL     1      -0.841  10.188  23.353  0.00  0.00    +0.000 C 
BRANCH  22  23
ATOM     23  C   UNL     1      -1.376  11.341  22.565  0.00  0.00    +0.000 C 
ATOM     24  C   UNL     1      -2.576  12.093  23.082  0.00  0.00    +0.000 C 
ATOM     25  C   UNL     1      -1.232  12.758  23.058  0.00  0.00    +0.000 C 
ENDBRANCH  22  23
ENDBRANCH  21  22
ENDBRANCH  20  21
ENDBRANCH   9  20
TORSDOF 8
ENDMDL
