MODEL 1
REMARK VINA RESULT:      -8.7      0.000      0.000
REMARK  Name = 
REMARK  7 active torsions:
REMARK  status: ('A' for Active; 'I' for Inactive)
REMARK    1  A    between atoms: C_1  and  O_2
REMARK    2  A    between atoms: O_2  and  C_3
REMARK    3  A    between atoms: C_8  and  O_9
REMARK    4  A    between atoms: O_9  and  C_10
REMARK    5  A    between atoms: C_14  and  C_15
REMARK    6  A    between atoms: C_18  and  N_19
REMARK    7  A    between atoms: N_22  and  C_23
REMARK                            x       y       z     vdW  Elec       q    Type
REMARK                         _______ _______ _______ _____ _____    ______ ____
ROOT
ATOM      1  C   UNL     1       0.788  10.280  18.748  0.00  0.00    +0.000 A 
ATOM      2  C   UNL     1      -0.547  10.199  18.369  0.00  0.00    +0.000 A 
ATOM      3  C   UNL     1      -1.510  10.976  19.024  0.00  0.00    +0.000 A 
ATOM      4  C   UNL     1      -1.181  11.852  20.074  0.00  0.00    +0.000 A 
ATOM      5  C   UNL     1       0.181  11.953  20.397  0.00  0.00    +0.000 A 
ATOM      6  C   UNL     1       1.155  11.179  19.746  0.00  0.00    +0.000 A 
ENDROOT
BRANCH   1  16
ATOM      7  C   UNL     1       2.801   3.962  20.359  0.00  0.00    +0.000 A 
ATOM      8  C   UNL     1       2.164   5.178  20.638  0.00  0.00    +0.000 A 
ATOM      9  C   UNL     1       2.341   6.233  19.772  0.00  0.00    +0.000 A 
ATOM     10  C   UNL     1       3.181   6.107  18.675  0.00  0.00    +0.000 A 
ATOM     11  C   UNL     1       3.873   4.940  18.393  0.00  0.00    +0.000 A 
ATOM     12  C   UNL     1       3.683   3.843  19.249  0.00  0.00    +0.000 A 
ATOM     13  C   UNL     1       3.146   7.360  17.914  0.00  0.00    +0.000 C 
ATOM     14  O   UNL     1       3.767   7.600  16.902  0.00  0.00    +0.000 OA
ATOM     15  C   UNL     1       2.168   8.259  18.609  0.00  0.00    +0.000 C 
ATOM     16  C   UNL     1       1.792   9.437  18.103  0.00  0.00    +0.000 C 
ATOM     17  C   UNL     1       1.681   7.569  19.850  0.00  0.00    +0.000 C 
BRANCH   7  19
ATOM     18  C   UNL     1       1.294   2.789  21.742  0.00  0.00    +0.000 C 
ATOM     19  O   UNL     1       2.598   2.857  21.158  0.00  0.00    +0.000 OA
ENDBRANCH   7  19
BRANCH  12  20
ATOM     20  O   UNL     1       4.290   2.623  19.072  0.00  0.00    +0.000 OA
ATOM     21  C   UNL     1       3.645   1.687  18.209  0.00  0.00    +0.000 C 
ENDBRANCH  12  20
ENDBRANCH   1  16
BRANCH   4  22
ATOM     22  N   UNL     1      -2.151  12.559  20.746  0.00  0.00    +0.000 N 
ATOM     23  C   UNL     1      -3.404  12.970  20.080  0.00  0.00    +0.000 C 
ATOM     24  C   UNL     1      -4.639  12.414  20.826  0.00  0.00    +0.000 C 
ATOM     25  N   UNL     1      -4.585  12.767  22.256  0.00  0.00    +0.000 N 
ATOM     26  C   UNL     1      -3.341  12.362  22.936  0.00  0.00    +0.000 C 
ATOM     27  C   UNL     1      -2.096  12.885  22.184  0.00  0.00    +0.000 C 
BRANCH  25  28
ATOM     28  C   UNL     1      -5.612  13.449  22.873  0.00  0.00    +0.000 A 
ATOM     29  C   UNL     1      -6.550  12.788  23.683  0.00  0.00    +0.000 A 
ATOM     30  C   UNL     1      -7.620  13.460  24.284  0.00  0.00    +0.000 A 
ATOM     31  C   UNL     1      -7.772  14.828  24.096  0.00  0.00    +0.000 A 
ATOM     32  C   UNL     1      -6.855  15.515  23.311  0.00  0.00    +0.000 A 
ATOM     33  C   UNL     1      -5.789  14.831  22.713  0.00  0.00    +0.000 A 
ENDBRANCH  25  28
ENDBRANCH   4  22
TORSDOF 5
ENDMDL
MODEL 2
REMARK VINA RESULT:      -8.3      1.225      1.590
REMARK  Name = 
REMARK  7 active torsions:
REMARK  status: ('A' for Active; 'I' for Inactive)
REMARK    1  A    between atoms: C_1  and  O_2
REMARK    2  A    between atoms: O_2  and  C_3
REMARK    3  A    between atoms: C_8  and  O_9
REMARK    4  A    between atoms: O_9  and  C_10
REMARK    5  A    between atoms: C_14  and  C_15
REMARK    6  A    between atoms: C_18  and  N_19
REMARK    7  A    between atoms: N_22  and  C_23
REMARK                            x       y       z     vdW  Elec       q    Type
REMARK                         _______ _______ _______ _____ _____    ______ ____
ROOT
ATOM      1  C   UNL     1       1.361  10.128  18.234  0.00  0.00    +0.000 A 
ATOM      2  C   UNL     1       0.005   9.831  18.327  0.00  0.00    +0.000 A 
ATOM      3  C   UNL     1      -0.877  10.756  18.897  0.00  0.00    +0.000 A 
ATOM      4  C   UNL     1      -0.446  11.999  19.394  0.00  0.00    +0.000 A 
ATOM      5  C   UNL     1       0.918  12.293  19.237  0.00  0.00    +0.000 A 
ATOM      6  C   UNL     1       1.812  11.373  18.667  0.00  0.00    +0.000 A 
ENDROOT
BRANCH   1  16
ATOM      7  C   UNL     1       2.914   3.889  20.523  0.00  0.00    +0.000 A 
ATOM      8  C   UNL     1       2.369   5.172  20.667  0.00  0.00    +0.000 A 
ATOM      9  C   UNL     1       2.618   6.111  19.693  0.00  0.00    +0.000 A 
ATOM     10  C   UNL     1       3.440   5.807  18.617  0.00  0.00    +0.000 A 
ATOM     11  C   UNL     1       4.043   4.568  18.465  0.00  0.00    +0.000 A 
ATOM     12  C   UNL     1       3.779   3.587  19.434  0.00  0.00    +0.000 A 
ATOM     13  C   UNL     1       3.493   6.969  17.726  0.00  0.00    +0.000 C 
ATOM     14  O   UNL     1       4.124   7.053  16.696  0.00  0.00    +0.000 OA
ATOM     15  C   UNL     1       2.588   8.008  18.317  0.00  0.00    +0.000 C 
ATOM     16  C   UNL     1       2.296   9.148  17.687  0.00  0.00    +0.000 C 
ATOM     17  C   UNL     1       2.059   7.493  19.624  0.00  0.00    +0.000 C 
BRANCH   7  19
ATOM     18  C   UNL     1       1.240   2.705  21.685  0.00  0.00    +0.000 C 
ATOM     19  O   UNL     1       2.635   2.894  21.435  0.00  0.00    +0.000 OA
ENDBRANCH   7  19
BRANCH  12  20
ATOM     20  O   UNL     1       4.294   2.314  19.390  0.00  0.00    +0.000 OA
ATOM     21  C   UNL     1       3.711   1.400  18.462  0.00  0.00    +0.000 C 
ENDBRANCH  12  20
ENDBRANCH   1  16
BRANCH   4  22
ATOM     22  N   UNL     1      -1.320  12.867  20.006  0.00  0.00    +0.000 N 
ATOM     23  C   UNL     1      -2.745  12.522  20.191  0.00  0.00    +0.000 C 
ATOM     24  C   UNL     1      -3.140  12.573  21.685  0.00  0.00    +0.000 C 
ATOM     25  N   UNL     1      -2.763  13.868  22.278  0.00  0.00    +0.000 N 
ATOM     26  C   UNL     1      -1.344  14.226  22.104  0.00  0.00    +0.000 C 
ATOM     27  C   UNL     1      -0.924  14.150  20.619  0.00  0.00    +0.000 C 
BRANCH  25  28
ATOM     28  C   UNL     1      -3.688  14.673  22.908  0.00  0.00    +0.000 A 
ATOM     29  C   UNL     1      -3.320  15.536  23.954  0.00  0.00    +0.000 A 
ATOM     30  C   UNL     1      -4.252  16.330  24.629  0.00  0.00    +0.000 A 
ATOM     31  C   UNL     1      -5.592  16.287  24.262  0.00  0.00    +0.000 A 
ATOM     32  C   UNL     1      -5.989  15.455  23.223  0.00  0.00    +0.000 A 
ATOM     33  C   UNL     1      -5.046  14.664  22.556  0.00  0.00    +0.000 A 
ENDBRANCH  25  28
ENDBRANCH   4  22
TORSDOF 5
ENDMDL
MODEL 3
REMARK VINA RESULT:      -8.2      0.970      1.473
REMARK  Name = 
REMARK  7 active torsions:
REMARK  status: ('A' for Active; 'I' for Inactive)
REMARK    1  A    between atoms: C_1  and  O_2
REMARK    2  A    between atoms: O_2  and  C_3
REMARK    3  A    between atoms: C_8  and  O_9
REMARK    4  A    between atoms: O_9  and  C_10
REMARK    5  A    between atoms: C_14  and  C_15
REMARK    6  A    between atoms: C_18  and  N_19
REMARK    7  A    between atoms: N_22  and  C_23
REMARK                            x       y       z     vdW  Elec       q    Type
REMARK                         _______ _______ _______ _____ _____    ______ ____
ROOT
ATOM      1  C   UNL     1       0.996  10.221  18.484  0.00  0.00    +0.000 A 
ATOM      2  C   UNL     1       1.413  11.312  19.237  0.00  0.00    +0.000 A 
ATOM      3  C   UNL     1       0.469  12.186  19.789  0.00  0.00    +0.000 A 
ATOM      4  C   UNL     1      -0.915  12.008  19.609  0.00  0.00    +0.000 A 
ATOM      5  C   UNL     1      -1.307  10.868  18.890  0.00  0.00    +0.000 A 
ATOM      6  C   UNL     1      -0.369   9.985  18.333  0.00  0.00    +0.000 A 
ENDROOT
BRANCH   1  16
ATOM      7  C   UNL     1       2.981   3.975  20.386  0.00  0.00    +0.000 A 
ATOM      8  C   UNL     1       2.362   5.211  20.613  0.00  0.00    +0.000 A 
ATOM      9  C   UNL     1       2.530   6.216  19.689  0.00  0.00    +0.000 A 
ATOM     10  C   UNL     1       3.344   6.023  18.581  0.00  0.00    +0.000 A 
ATOM     11  C   UNL     1       4.018   4.834  18.347  0.00  0.00    +0.000 A 
ATOM     12  C   UNL     1       3.837   3.787  19.264  0.00  0.00    +0.000 A 
ATOM     13  C   UNL     1       3.304   7.234  17.756  0.00  0.00    +0.000 C 
ATOM     14  O   UNL     1       3.905   7.413  16.719  0.00  0.00    +0.000 OA
ATOM     15  C   UNL     1       2.352   8.180  18.422  0.00  0.00    +0.000 C 
ATOM     16  C   UNL     1       1.976   9.333  17.863  0.00  0.00    +0.000 C 
ATOM     17  C   UNL     1       1.886   7.562  19.709  0.00  0.00    +0.000 C 
BRANCH   7  19
ATOM     18  C   UNL     1       1.411   2.641  21.531  0.00  0.00    +0.000 C 
ATOM     19  O   UNL     1       2.785   2.916  21.246  0.00  0.00    +0.000 OA
ENDBRANCH   7  19
BRANCH  12  20
ATOM     20  O   UNL     1       4.427   2.553  19.139  0.00  0.00    +0.000 OA
ATOM     21  C   UNL     1       3.787   1.601  18.290  0.00  0.00    +0.000 C 
ENDBRANCH  12  20
ENDBRANCH   1  16
BRANCH   4  22
ATOM     22  N   UNL     1      -1.823  12.913  20.106  0.00  0.00    +0.000 N 
ATOM     23  C   UNL     1      -3.278  12.707  19.955  0.00  0.00    +0.000 C 
ATOM     24  C   UNL     1      -3.983  12.685  21.331  0.00  0.00    +0.000 C 
ATOM     25  N   UNL     1      -3.634  13.884  22.113  0.00  0.00    +0.000 N 
ATOM     26  C   UNL     1      -2.185  14.104  22.275  0.00  0.00    +0.000 C 
ATOM     27  C   UNL     1      -1.461  14.097  20.909  0.00  0.00    +0.000 C 
BRANCH  25  28
ATOM     28  C   UNL     1      -4.600  14.731  22.611  0.00  0.00    +0.000 A 
ATOM     29  C   UNL     1      -4.320  15.636  23.649  0.00  0.00    +0.000 A 
ATOM     30  C   UNL     1      -5.299  16.474  24.192  0.00  0.00    +0.000 A 
ATOM     31  C   UNL     1      -6.597  16.435  23.696  0.00  0.00    +0.000 A 
ATOM     32  C   UNL     1      -6.905  15.561  22.661  0.00  0.00    +0.000 A 
ATOM     33  C   UNL     1      -5.917  14.725  22.127  0.00  0.00    +0.000 A 
ENDBRANCH  25  28
ENDBRANCH   4  22
TORSDOF 5
ENDMDL
MODEL 4
REMARK VINA RESULT:      -8.1      1.375      1.846
REMARK  Name = 
REMARK  7 active torsions:
REMARK  status: ('A' for Active; 'I' for Inactive)
REMARK    1  A    between atoms: C_1  and  O_2
REMARK    2  A    between atoms: O_2  and  C_3
REMARK    3  A    between atoms: C_8  and  O_9
REMARK    4  A    between atoms: O_9  and  C_10
REMARK    5  A    between atoms: C_14  and  C_15
REMARK    6  A    between atoms: C_18  and  N_19
REMARK    7  A    between atoms: N_22  and  C_23
REMARK                            x       y       z     vdW  Elec       q    Type
REMARK                         _______ _______ _______ _____ _____    ______ ____
ROOT
ATOM      1  C   UNL     1       0.960  10.144  18.802  0.00  0.00    +0.000 A 
ATOM      2  C   UNL     1      -0.386  10.129  18.456  0.00  0.00    +0.000 A 
ATOM      3  C   UNL     1      -1.293  10.954  19.130  0.00  0.00    +0.000 A 
ATOM      4  C   UNL     1      -0.895  11.816  20.169  0.00  0.00    +0.000 A 
ATOM      5  C   UNL     1       0.478  11.849  20.459  0.00  0.00    +0.000 A 
ATOM      6  C   UNL     1       1.395  11.025  19.789  0.00  0.00    +0.000 A 
ENDROOT
BRANCH   1  16
ATOM      7  C   UNL     1       2.861   3.819  20.521  0.00  0.00    +0.000 A 
ATOM      8  C   UNL     1       2.275   5.062  20.790  0.00  0.00    +0.000 A 
ATOM      9  C   UNL     1       2.440   6.083  19.882  0.00  0.00    +0.000 A 
ATOM     10  C   UNL     1       3.220   5.897  18.750  0.00  0.00    +0.000 A 
ATOM     11  C   UNL     1       3.862   4.700  18.473  0.00  0.00    +0.000 A 
ATOM     12  C   UNL     1       3.683   3.637  19.373  0.00  0.00    +0.000 A 
ATOM     13  C   UNL     1       3.185   7.125  17.951  0.00  0.00    +0.000 C 
ATOM     14  O   UNL     1       3.762   7.313  16.903  0.00  0.00    +0.000 OA
ATOM     15  C   UNL     1       2.271   8.077  18.662  0.00  0.00    +0.000 C 
ATOM     16  C   UNL     1       1.905   9.249  18.138  0.00  0.00    +0.000 C 
ATOM     17  C   UNL     1       1.826   7.442  19.948  0.00  0.00    +0.000 C 
BRANCH   7  19
ATOM     18  C   UNL     1       1.313   2.585  21.800  0.00  0.00    +0.000 C 
ATOM     19  O   UNL     1       2.665   2.746  21.364  0.00  0.00    +0.000 OA
ENDBRANCH   7  19
BRANCH  12  20
ATOM     20  O   UNL     1       4.243   2.394  19.206  0.00  0.00    +0.000 OA
ATOM     21  C   UNL     1       3.568   1.478  18.345  0.00  0.00    +0.000 C 
ENDBRANCH  12  20
ENDBRANCH   1  16
BRANCH   4  22
ATOM     22  N   UNL     1      -1.813  12.572  20.860  0.00  0.00    +0.000 N 
ATOM     23  C   UNL     1      -2.114  12.308  22.282  0.00  0.00    +0.000 C 
ATOM     24  C   UNL     1      -1.850  13.561  23.149  0.00  0.00    +0.000 C 
ATOM     25  N   UNL     1      -2.560  14.731  22.602  0.00  0.00    +0.000 N 
ATOM     26  C   UNL     1      -2.269  15.009  21.183  0.00  0.00    +0.000 C 
ATOM     27  C   UNL     1      -2.498  13.757  20.307  0.00  0.00    +0.000 C 
BRANCH  25  28
ATOM     28  C   UNL     1      -3.442  15.465  23.364  0.00  0.00    +0.000 A 
ATOM     29  C   UNL     1      -4.813  15.160  23.400  0.00  0.00    +0.000 A 
ATOM     30  C   UNL     1      -5.727  15.919  24.137  0.00  0.00    +0.000 A 
ATOM     31  C   UNL     1      -5.284  17.009  24.876  0.00  0.00    +0.000 A 
ATOM     32  C   UNL     1      -3.933  17.331  24.875  0.00  0.00    +0.000 A 
ATOM     33  C   UNL     1      -3.028  16.565  24.131  0.00  0.00    +0.000 A 
ENDBRANCH  25  28
ENDBRANCH   4  22
TORSDOF 5
ENDMDL
MODEL 5
REMARK VINA RESULT:      -7.9      1.563      2.210
REMARK  Name = 
REMARK  7 active torsions:
REMARK  status: ('A' for Active; 'I' for Inactive)
REMARK    1  A    between atoms: C_1  and  O_2
REMARK    2  A    between atoms: O_2  and  C_3
REMARK    3  A    between atoms: C_8  and  O_9
REMARK    4  A    between atoms: O_9  and  C_10
REMARK    5  A    between atoms: C_14  and  C_15
REMARK    6  A    between atoms: C_18  and  N_19
REMARK    7  A    between atoms: N_22  and  C_23
REMARK                            x       y       z     vdW  Elec       q    Type
REMARK                         _______ _______ _______ _____ _____    ______ ____
ROOT
ATOM      1  C   UNL     1       0.861  10.220  18.971  0.00  0.00    +0.000 A 
ATOM      2  C   UNL     1       1.188  10.777  20.203  0.00  0.00    +0.000 A 
ATOM      3  C   UNL     1       0.301  11.658  20.831  0.00  0.00    +0.000 A 
ATOM      4  C   UNL     1      -0.933  12.017  20.259  0.00  0.00    +0.000 A 
ATOM      5  C   UNL     1      -1.259  11.398  19.042  0.00  0.00    +0.000 A 
ATOM      6  C   UNL     1      -0.376  10.512  18.404  0.00  0.00    +0.000 A 
ENDROOT
BRANCH   1  16
ATOM      7  C   UNL     1       2.819   3.888  20.597  0.00  0.00    +0.000 A 
ATOM      8  C   UNL     1       2.229   5.125  20.887  0.00  0.00    +0.000 A 
ATOM      9  C   UNL     1       2.377   6.157  19.989  0.00  0.00    +0.000 A 
ATOM     10  C   UNL     1       3.145   5.988  18.845  0.00  0.00    +0.000 A 
ATOM     11  C   UNL     1       3.790   4.798  18.548  0.00  0.00    +0.000 A 
ATOM     12  C   UNL     1       3.628   3.724  19.438  0.00  0.00    +0.000 A 
ATOM     13  C   UNL     1       3.093   7.224  18.061  0.00  0.00    +0.000 C 
ATOM     14  O   UNL     1       3.657   7.428  17.008  0.00  0.00    +0.000 OA
ATOM     15  C   UNL     1       2.182   8.163  18.793  0.00  0.00    +0.000 C 
ATOM     16  C   UNL     1       1.803   9.338  18.286  0.00  0.00    +0.000 C 
ATOM     17  C   UNL     1       1.756   7.511  20.077  0.00  0.00    +0.000 C 
BRANCH   7  19
ATOM     18  C   UNL     1       1.280   2.586  21.820  0.00  0.00    +0.000 C 
ATOM     19  O   UNL     1       2.639   2.805  21.430  0.00  0.00    +0.000 OA
ENDBRANCH   7  19
BRANCH  12  20
ATOM     20  O   UNL     1       4.194   2.486  19.251  0.00  0.00    +0.000 OA
ATOM     21  C   UNL     1       3.551   1.600  18.335  0.00  0.00    +0.000 C 
ENDBRANCH  12  20
ENDBRANCH   1  16
BRANCH   4  22
ATOM     22  N   UNL     1      -1.762  12.934  20.864  0.00  0.00    +0.000 N 
ATOM     23  C   UNL     1      -2.725  12.529  21.908  0.00  0.00    +0.000 C 
ATOM     24  C   UNL     1      -2.481  13.308  23.221  0.00  0.00    +0.000 C 
ATOM     25  N   UNL     1      -2.457  14.760  22.968  0.00  0.00    +0.000 N 
ATOM     26  C   UNL     1      -1.500  15.180  21.929  0.00  0.00    +0.000 C 
ATOM     27  C   UNL     1      -1.711  14.388  20.619  0.00  0.00    +0.000 C 
BRANCH  25  28
ATOM     28  C   UNL     1      -3.295  15.626  23.637  0.00  0.00    +0.000 A 
ATOM     29  C   UNL     1      -2.802  16.762  24.298  0.00  0.00    +0.000 A 
ATOM     30  C   UNL     1      -3.634  17.629  25.014  0.00  0.00    +0.000 A 
ATOM     31  C   UNL     1      -5.000  17.382  25.077  0.00  0.00    +0.000 A 
ATOM     32  C   UNL     1      -5.525  16.274  24.423  0.00  0.00    +0.000 A 
ATOM     33  C   UNL     1      -4.680  15.413  23.712  0.00  0.00    +0.000 A 
ENDBRANCH  25  28
ENDBRANCH   4  22
TORSDOF 5
ENDMDL
MODEL 6
REMARK VINA RESULT:      -7.6      1.268      1.777
REMARK  Name = 
REMARK  7 active torsions:
REMARK  status: ('A' for Active; 'I' for Inactive)
REMARK    1  A    between atoms: C_1  and  O_2
REMARK    2  A    between atoms: O_2  and  C_3
REMARK    3  A    between atoms: C_8  and  O_9
REMARK    4  A    between atoms: O_9  and  C_10
REMARK    5  A    between atoms: C_14  and  C_15
REMARK    6  A    between atoms: C_18  and  N_19
REMARK    7  A    between atoms: N_22  and  C_23
REMARK                            x       y       z     vdW  Elec       q    Type
REMARK                         _______ _______ _______ _____ _____    ______ ____
ROOT
ATOM      1  C   UNL     1       0.822  10.353  18.790  0.00  0.00    +0.000 A 
ATOM      2  C   UNL     1      -0.532  10.320  18.476  0.00  0.00    +0.000 A 
ATOM      3  C   UNL     1      -1.438  11.109  19.193  0.00  0.00    +0.000 A 
ATOM      4  C   UNL     1      -1.032  11.951  20.245  0.00  0.00    +0.000 A 
ATOM      5  C   UNL     1       0.346  12.004  20.503  0.00  0.00    +0.000 A 
ATOM      6  C   UNL     1       1.263  11.217  19.789  0.00  0.00    +0.000 A 
ENDROOT
BRANCH   1  16
ATOM      7  C   UNL     1       2.888   4.025  20.290  0.00  0.00    +0.000 A 
ATOM      8  C   UNL     1       2.284   5.249  20.607  0.00  0.00    +0.000 A 
ATOM      9  C   UNL     1       2.407   6.296  19.724  0.00  0.00    +0.000 A 
ATOM     10  C   UNL     1       3.163   6.156  18.569  0.00  0.00    +0.000 A 
ATOM     11  C   UNL     1       3.821   4.980  18.244  0.00  0.00    +0.000 A 
ATOM     12  C   UNL     1       3.685   3.891  19.119  0.00  0.00    +0.000 A 
ATOM     13  C   UNL     1       3.084   7.404  17.804  0.00  0.00    +0.000 C 
ATOM     14  O   UNL     1       3.631   7.632  16.748  0.00  0.00    +0.000 OA
ATOM     15  C   UNL     1       2.169   8.318  18.563  0.00  0.00    +0.000 C 
ATOM     16  C   UNL     1       1.767   9.496  18.079  0.00  0.00    +0.000 C 
ATOM     17  C   UNL     1       1.768   7.640  19.841  0.00  0.00    +0.000 C 
BRANCH   7  19
ATOM     18  C   UNL     1       1.414   2.773  21.639  0.00  0.00    +0.000 C 
ATOM     19  O   UNL     1       2.733   2.926  21.109  0.00  0.00    +0.000 OA
ENDBRANCH   7  19
BRANCH  12  20
ATOM     20  O   UNL     1       4.265   2.664  18.905  0.00  0.00    +0.000 OA
ATOM     21  C   UNL     1       3.535   1.717  18.125  0.00  0.00    +0.000 C 
ENDBRANCH  12  20
ENDBRANCH   1  16
BRANCH   4  22
ATOM     22  N   UNL     1      -1.947  12.670  20.979  0.00  0.00    +0.000 N 
ATOM     23  C   UNL     1      -1.531  13.800  21.834  0.00  0.00    +0.000 C 
ATOM     24  C   UNL     1      -2.259  15.102  21.429  0.00  0.00    +0.000 C 
ATOM     25  N   UNL     1      -3.717  14.893  21.394  0.00  0.00    +0.000 N 
ATOM     26  C   UNL     1      -4.150  13.770  20.542  0.00  0.00    +0.000 C 
ATOM     27  C   UNL     1      -3.407  12.466  20.915  0.00  0.00    +0.000 C 
BRANCH  25  28
ATOM     28  C   UNL     1      -4.579  15.675  22.131  0.00  0.00    +0.000 A 
ATOM     29  C   UNL     1      -5.270  16.753  21.553  0.00  0.00    +0.000 A 
ATOM     30  C   UNL     1      -6.119  17.580  22.296  0.00  0.00    +0.000 A 
ATOM     31  C   UNL     1      -6.307  17.339  23.651  0.00  0.00    +0.000 A 
ATOM     32  C   UNL     1      -5.650  16.273  24.253  0.00  0.00    +0.000 A 
ATOM     33  C   UNL     1      -4.802  15.454  23.498  0.00  0.00    +0.000 A 
ENDBRANCH  25  28
ENDBRANCH   4  22
TORSDOF 5
ENDMDL
MODEL 7
REMARK VINA RESULT:      -7.5      1.316      1.886
REMARK  Name = 
REMARK  7 active torsions:
REMARK  status: ('A' for Active; 'I' for Inactive)
REMARK    1  A    between atoms: C_1  and  O_2
REMARK    2  A    between atoms: O_2  and  C_3
REMARK    3  A    between atoms: C_8  and  O_9
REMARK    4  A    between atoms: O_9  and  C_10
REMARK    5  A    between atoms: C_14  and  C_15
REMARK    6  A    between atoms: C_18  and  N_19
REMARK    7  A    between atoms: N_22  and  C_23
REMARK                            x       y       z     vdW  Elec       q    Type
REMARK                         _______ _______ _______ _____ _____    ______ ____
ROOT
ATOM      1  C   UNL     1       0.702  10.485  19.174  0.00  0.00    +0.000 A 
ATOM      2  C   UNL     1       1.212  11.316  20.165  0.00  0.00    +0.000 A 
ATOM      3  C   UNL     1       0.351  12.140  20.900  0.00  0.00    +0.000 A 
ATOM      4  C   UNL     1      -1.037  12.169  20.673  0.00  0.00    +0.000 A 
ATOM      5  C   UNL     1      -1.528  11.280  19.704  0.00  0.00    +0.000 A 
ATOM      6  C   UNL     1      -0.674  10.449  18.963  0.00  0.00    +0.000 A 
ENDROOT
BRANCH   1  16
ATOM      7  C   UNL     1       2.836   4.096  20.269  0.00  0.00    +0.000 A 
ATOM      8  C   UNL     1       2.257   5.305  20.675  0.00  0.00    +0.000 A 
ATOM      9  C   UNL     1       2.328   6.390  19.832  0.00  0.00    +0.000 A 
ATOM     10  C   UNL     1       3.011   6.299  18.627  0.00  0.00    +0.000 A 
ATOM     11  C   UNL     1       3.644   5.138  18.212  0.00  0.00    +0.000 A 
ATOM     12  C   UNL     1       3.558   4.012  19.046  0.00  0.00    +0.000 A 
ATOM     13  C   UNL     1       2.889   7.580  17.924  0.00  0.00    +0.000 C 
ATOM     14  O   UNL     1       3.371   7.853  16.847  0.00  0.00    +0.000 OA
ATOM     15  C   UNL     1       2.025   8.460  18.776  0.00  0.00    +0.000 C 
ATOM     16  C   UNL     1       1.599   9.658  18.370  0.00  0.00    +0.000 C 
ATOM     17  C   UNL     1       1.702   7.728  20.046  0.00  0.00    +0.000 C 
BRANCH   7  19
ATOM     18  C   UNL     1       1.428   2.757  21.605  0.00  0.00    +0.000 C 
ATOM     19  O   UNL     1       2.728   2.963  21.047  0.00  0.00    +0.000 OA
ENDBRANCH   7  19
BRANCH  12  20
ATOM     20  O   UNL     1       4.120   2.795  18.744  0.00  0.00    +0.000 OA
ATOM     21  C   UNL     1       3.345   1.889  17.960  0.00  0.00    +0.000 C 
ENDBRANCH  12  20
ENDBRANCH   1  16
BRANCH   4  22
ATOM     22  N   UNL     1      -1.856  13.032  21.363  0.00  0.00    +0.000 N 
ATOM     23  C   UNL     1      -1.515  14.462  21.515  0.00  0.00    +0.000 C 
ATOM     24  C   UNL     1      -2.636  15.364  20.948  0.00  0.00    +0.000 C 
ATOM     25  N   UNL     1      -3.940  15.001  21.531  0.00  0.00    +0.000 N 
ATOM     26  C   UNL     1      -4.296  13.577  21.387  0.00  0.00    +0.000 C 
ATOM     27  C   UNL     1      -3.171  12.662  21.921  0.00  0.00    +0.000 C 
BRANCH  25  28
ATOM     28  C   UNL     1      -4.726  15.928  22.181  0.00  0.00    +0.000 A 
ATOM     29  C   UNL     1      -5.057  15.787  23.539  0.00  0.00    +0.000 A 
ATOM     30  C   UNL     1      -5.886  16.698  24.202  0.00  0.00    +0.000 A 
ATOM     31  C   UNL     1      -6.400  17.792  23.518  0.00  0.00    +0.000 A 
ATOM     32  C   UNL     1      -6.081  17.970  22.177  0.00  0.00    +0.000 A 
ATOM     33  C   UNL     1      -5.253  17.050  21.523  0.00  0.00    +0.000 A 
ENDBRANCH  25  28
ENDBRANCH   4  22
TORSDOF 5
ENDMDL
MODEL 8
REMARK VINA RESULT:      -7.2      1.827      2.454
REMARK  Name = 
REMARK  7 active torsions:
REMARK  status: ('A' for Active; 'I' for Inactive)
REMARK    1  A    between atoms: C_1  and  O_2
REMARK    2  A    between atoms: O_2  and  C_3
REMARK    3  A    between atoms: C_8  and  O_9
REMARK    4  A    between atoms: O_9  and  C_10
REMARK    5  A    between atoms: C_14  and  C_15
REMARK    6  A    between atoms: C_18  and  N_19
REMARK    7  A    between atoms: N_22  and  C_23
REMARK                            x       y       z     vdW  Elec       q    Type
REMARK                         _______ _______ _______ _____ _____    ______ ____
ROOT
ATOM      1  C   UNL     1       0.713  10.644  19.657  0.00  0.00    +0.000 A 
ATOM      2  C   UNL     1       0.997  11.998  19.800  0.00  0.00    +0.000 A 
ATOM      3  C   UNL     1       0.228  12.788  20.662  0.00  0.00    +0.000 A 
ATOM      4  C   UNL     1      -0.846  12.264  21.404  0.00  0.00    +0.000 A 
ATOM      5  C   UNL     1      -1.074  10.884  21.280  0.00  0.00    +0.000 A 
ATOM      6  C   UNL     1      -0.308  10.083  20.419  0.00  0.00    +0.000 A 
ENDROOT
BRANCH   1  16
ATOM      7  C   UNL     1       2.708   4.144  20.248  0.00  0.00    +0.000 A 
ATOM      8  C   UNL     1       2.227   5.354  20.766  0.00  0.00    +0.000 A 
ATOM      9  C   UNL     1       2.244   6.472  19.963  0.00  0.00    +0.000 A 
ATOM     10  C   UNL     1       2.780   6.410  18.684  0.00  0.00    +0.000 A 
ATOM     11  C   UNL     1       3.316   5.247  18.154  0.00  0.00    +0.000 A 
ATOM     12  C   UNL     1       3.283   4.089  18.948  0.00  0.00    +0.000 A 
ATOM     13  C   UNL     1       2.629   7.723  18.050  0.00  0.00    +0.000 C 
ATOM     14  O   UNL     1       2.995   8.025  16.936  0.00  0.00    +0.000 OA
ATOM     15  C   UNL     1       1.903   8.594  19.030  0.00  0.00    +0.000 C 
ATOM     16  C   UNL     1       1.480   9.823  18.723  0.00  0.00    +0.000 C 
ATOM     17  C   UNL     1       1.699   7.819  20.300  0.00  0.00    +0.000 C 
BRANCH   7  19
ATOM     18  C   UNL     1       1.416   2.805  21.694  0.00  0.00    +0.000 C 
ATOM     19  O   UNL     1       2.646   2.983  20.989  0.00  0.00    +0.000 OA
ENDBRANCH   7  19
BRANCH  12  20
ATOM     20  O   UNL     1       3.759   2.868  18.535  0.00  0.00    +0.000 OA
ATOM     21  C   UNL     1       2.890   2.055  17.747  0.00  0.00    +0.000 C 
ENDBRANCH  12  20
ENDBRANCH   1  16
BRANCH   4  22
ATOM     22  N   UNL     1      -1.628  13.071  22.197  0.00  0.00    +0.000 N 
ATOM     23  C   UNL     1      -1.031  14.077  23.099  0.00  0.00    +0.000 C 
ATOM     24  C   UNL     1      -1.560  15.494  22.780  0.00  0.00    +0.000 C 
ATOM     25  N   UNL     1      -3.034  15.509  22.771  0.00  0.00    +0.000 N 
ATOM     26  C   UNL     1      -3.646  14.512  21.874  0.00  0.00    +0.000 C 
ATOM     27  C   UNL     1      -3.103  13.093  22.160  0.00  0.00    +0.000 C 
BRANCH  25  28
ATOM     28  C   UNL     1      -3.754  16.370  23.569  0.00  0.00    +0.000 A 
ATOM     29  C   UNL     1      -3.127  17.178  24.532  0.00  0.00    +0.000 A 
ATOM     30  C   UNL     1      -3.849  18.028  25.377  0.00  0.00    +0.000 A 
ATOM     31  C   UNL     1      -5.232  18.100  25.269  0.00  0.00    +0.000 A 
ATOM     32  C   UNL     1      -5.884  17.325  24.318  0.00  0.00    +0.000 A 
ATOM     33  C   UNL     1      -5.151  16.476  23.480  0.00  0.00    +0.000 A 
ENDBRANCH  25  28
ENDBRANCH   4  22
TORSDOF 5
ENDMDL
MODEL 9
REMARK VINA RESULT:      -7.1      4.686     11.788
REMARK  Name = 
REMARK  7 active torsions:
REMARK  status: ('A' for Active; 'I' for Inactive)
REMARK    1  A    between atoms: C_1  and  O_2
REMARK    2  A    between atoms: O_2  and  C_3
REMARK    3  A    between atoms: C_8  and  O_9
REMARK    4  A    between atoms: O_9  and  C_10
REMARK    5  A    between atoms: C_14  and  C_15
REMARK    6  A    between atoms: C_18  and  N_19
REMARK    7  A    between atoms: N_22  and  C_23
REMARK                            x       y       z     vdW  Elec       q    Type
REMARK                         _______ _______ _______ _____ _____    ______ ____
ROOT
ATOM      1  C   UNL     1      -0.069  10.634  21.730  0.00  0.00    +0.000 A 
ATOM      2  C   UNL     1       0.294   9.386  22.226  0.00  0.00    +0.000 A 
ATOM      3  C   UNL     1       0.939   8.463  21.395  0.00  0.00    +0.000 A 
ATOM      4  C   UNL     1       1.239   8.743  20.050  0.00  0.00    +0.000 A 
ATOM      5  C   UNL     1       0.909  10.029  19.593  0.00  0.00    +0.000 A 
ATOM      6  C   UNL     1       0.263  10.963  20.418  0.00  0.00    +0.000 A 
ENDROOT
BRANCH   1  16
ATOM      7  C   UNL     1      -5.942  13.899  20.540  0.00  0.00    +0.000 A 
ATOM      8  C   UNL     1      -4.821  13.161  20.138  0.00  0.00    +0.000 A 
ATOM      9  C   UNL     1      -3.793  12.977  21.035  0.00  0.00    +0.000 A 
ATOM     10  C   UNL     1      -3.846  13.560  22.293  0.00  0.00    +0.000 A 
ATOM     11  C   UNL     1      -4.912  14.342  22.711  0.00  0.00    +0.000 A 
ATOM     12  C   UNL     1      -5.982  14.519  21.820  0.00  0.00    +0.000 A 
ATOM     13  C   UNL     1      -2.649  13.164  23.042  0.00  0.00    +0.000 C 
ATOM     14  O   UNL     1      -2.369  13.500  24.171  0.00  0.00    +0.000 OA
ATOM     15  C   UNL     1      -1.871  12.241  22.154  0.00  0.00    +0.000 C 
ATOM     16  C   UNL     1      -0.786  11.585  22.575  0.00  0.00    +0.000 C 
ATOM     17  C   UNL     1      -2.565  12.155  20.826  0.00  0.00    +0.000 C 
BRANCH   7  19
ATOM     18  C   UNL     1      -7.544  12.822  19.187  0.00  0.00    +0.000 C 
ATOM     19  O   UNL     1      -7.026  14.051  19.702  0.00  0.00    +0.000 OA
ENDBRANCH   7  19
BRANCH  12  20
ATOM     20  O   UNL     1      -7.107  15.250  22.116  0.00  0.00    +0.000 OA
ATOM     21  C   UNL     1      -7.526  15.291  23.480  0.00  0.00    +0.000 C 
ENDBRANCH  12  20
ENDBRANCH   1  16
BRANCH   4  22
ATOM     22  N   UNL     1       1.816   7.798  19.234  0.00  0.00    +0.000 N 
ATOM     23  C   UNL     1       2.065   8.064  17.802  0.00  0.00    +0.000 C 
ATOM     24  C   UNL     1       3.563   7.895  17.457  0.00  0.00    +0.000 C 
ATOM     25  N   UNL     1       4.055   6.582  17.909  0.00  0.00    +0.000 N 
ATOM     26  C   UNL     1       3.816   6.301  19.336  0.00  0.00    +0.000 C 
ATOM     27  C   UNL     1       2.328   6.496  19.704  0.00  0.00    +0.000 C 
BRANCH  25  28
ATOM     28  C   UNL     1       4.656   5.696  17.040  0.00  0.00    +0.000 A 
ATOM     29  C   UNL     1       5.452   6.140  15.971  0.00  0.00    +0.000 A 
ATOM     30  C   UNL     1       6.035   5.254  15.059  0.00  0.00    +0.000 A 
ATOM     31  C   UNL     1       5.843   3.886  15.202  0.00  0.00    +0.000 A 
ATOM     32  C   UNL     1       5.072   3.412  16.256  0.00  0.00    +0.000 A 
ATOM     33  C   UNL     1       4.492   4.308  17.162  0.00  0.00    +0.000 A 
ENDBRANCH  25  28
ENDBRANCH   4  22
TORSDOF 5
ENDMDL
