MODEL 1
REMARK VINA RESULT:      -6.7      0.000      0.000
REMARK  Name = 
REMARK  2 active torsions:
REMARK  status: ('A' for Active; 'I' for Inactive)
REMARK    1  A    between atoms: C_4  and  C_5
REMARK    2  A    between atoms: C_15  and  C_16
REMARK                            x       y       z     vdW  Elec       q    Type
REMARK                         _______ _______ _______ _____ _____    ______ ____
ROOT
ATOM      1  O   UNL     1       1.985   9.881  17.325  0.00  0.00    +0.000 OA
ATOM      2  C   UNL     1       2.117   8.932  18.068  0.00  0.00    +0.000 C 
ATOM      3  O   UNL     1       2.854   7.809  17.816  0.00  0.00    +0.000 OA
ATOM      4  C   UNL     1       2.733   7.014  18.904  0.00  0.00    +0.000 C 
ATOM      5  N   UNL     1       2.015   7.450  19.886  0.00  0.00    +0.000 NA
ATOM      6  C   UNL     1       1.557   8.660  19.425  0.00  0.00    +0.000 C 
ATOM      7  C   UNL     1       0.700   9.419  20.120  0.00  0.00    +0.000 C 
ENDROOT
BRANCH   4   8
ATOM      8  C   UNL     1       3.449   5.732  18.809  0.00  0.00    +0.000 A 
ATOM      9  C   UNL     1       4.782   5.688  19.260  0.00  0.00    +0.000 A 
ATOM     10  C   UNL     1       5.502   4.496  19.224  0.00  0.00    +0.000 A 
ATOM     11  C   UNL     1       4.897   3.338  18.745  0.00  0.00    +0.000 A 
ATOM     12  C   UNL     1       3.575   3.370  18.286  0.00  0.00    +0.000 A 
ATOM     13 CL   UNL     1       2.916   1.880  17.700  0.00  0.00    +0.000 Cl
ATOM     14  C   UNL     1       2.840   4.568  18.307  0.00  0.00    +0.000 A 
ATOM     15 CL   UNL     1       1.232   4.590  17.652  0.00  0.00    +0.000 Cl
ENDBRANCH   4   8
BRANCH   7  16
ATOM     16  C   UNL     1       0.178  10.643  19.637  0.00  0.00    +0.000 A 
ATOM     17  C   UNL     1      -0.972  10.863  18.902  0.00  0.00    +0.000 A 
ATOM     18  C   UNL     1      -1.171  12.239  18.589  0.00  0.00    +0.000 A 
ATOM     19  C   UNL     1      -0.176  13.032  19.114  0.00  0.00    +0.000 A 
ATOM     20  S   UNL     1       0.973  12.124  19.996  0.00  0.00    +0.000 S 
ENDBRANCH   7  16
TORSDOF 2
ENDMDL
MODEL 2
REMARK VINA RESULT:      -6.7      1.761      1.890
REMARK  Name = 
REMARK  2 active torsions:
REMARK  status: ('A' for Active; 'I' for Inactive)
REMARK    1  A    between atoms: C_4  and  C_5
REMARK    2  A    between atoms: C_15  and  C_16
REMARK                            x       y       z     vdW  Elec       q    Type
REMARK                         _______ _______ _______ _____ _____    ______ ____
ROOT
ATOM      1  O   UNL     1       1.201   8.652  21.153  0.00  0.00    +0.000 OA
ATOM      2  C   UNL     1       1.617   8.381  20.048  0.00  0.00    +0.000 C 
ATOM      3  O   UNL     1       2.341   7.273  19.711  0.00  0.00    +0.000 OA
ATOM      4  C   UNL     1       2.592   7.362  18.384  0.00  0.00    +0.000 C 
ATOM      5  N   UNL     1       2.120   8.388  17.755  0.00  0.00    +0.000 NA
ATOM      6  C   UNL     1       1.506   9.110  18.749  0.00  0.00    +0.000 C 
ATOM      7  C   UNL     1       0.944  10.305  18.531  0.00  0.00    +0.000 C 
ENDROOT
BRANCH   4   8
ATOM      8  C   UNL     1       3.390   6.255  17.834  0.00  0.00    +0.000 A 
ATOM      9  C   UNL     1       4.545   6.580  17.098  0.00  0.00    +0.000 A 
ATOM     10  C   UNL     1       5.358   5.575  16.577  0.00  0.00    +0.000 A 
ATOM     11  C   UNL     1       5.028   4.240  16.792  0.00  0.00    +0.000 A 
ATOM     12  C   UNL     1       3.878   3.904  17.515  0.00  0.00    +0.000 A 
ATOM     13 CL   UNL     1       3.549   2.217  17.718  0.00  0.00    +0.000 Cl
ATOM     14  C   UNL     1       3.044   4.908  18.037  0.00  0.00    +0.000 A 
ATOM     15 CL   UNL     1       1.580   4.456  18.856  0.00  0.00    +0.000 Cl
ENDBRANCH   4   8
BRANCH   7  16
ATOM     16  C   UNL     1       0.353  11.085  19.554  0.00  0.00    +0.000 A 
ATOM     17  C   UNL     1      -0.956  11.077  20.001  0.00  0.00    +0.000 A 
ATOM     18  C   UNL     1      -1.185  12.012  21.050  0.00  0.00    +0.000 A 
ATOM     19  C   UNL     1      -0.038  12.693  21.389  0.00  0.00    +0.000 A 
ATOM     20  S   UNL     1       1.307  12.189  20.462  0.00  0.00    +0.000 S 
ENDBRANCH   7  16
TORSDOF 2
ENDMDL
MODEL 3
REMARK VINA RESULT:      -6.6      1.114      1.116
REMARK  Name = 
REMARK  2 active torsions:
REMARK  status: ('A' for Active; 'I' for Inactive)
REMARK    1  A    between atoms: C_4  and  C_5
REMARK    2  A    between atoms: C_15  and  C_16
REMARK                            x       y       z     vdW  Elec       q    Type
REMARK                         _______ _______ _______ _____ _____    ______ ____
ROOT
ATOM      1  O   UNL     1       1.696  10.225  17.478  0.00  0.00    +0.000 OA
ATOM      2  C   UNL     1       1.990   9.158  17.971  0.00  0.00    +0.000 C 
ATOM      3  O   UNL     1       2.708   8.164  17.370  0.00  0.00    +0.000 OA
ATOM      4  C   UNL     1       2.810   7.160  18.271  0.00  0.00    +0.000 C 
ATOM      5  N   UNL     1       2.264   7.338  19.428  0.00  0.00    +0.000 NA
ATOM      6  C   UNL     1       1.689   8.580  19.315  0.00  0.00    +0.000 C 
ATOM      7  C   UNL     1       0.945   9.122  20.287  0.00  0.00    +0.000 C 
ENDROOT
BRANCH   4   8
ATOM      8  C   UNL     1       3.541   5.976  17.791  0.00  0.00    +0.000 A 
ATOM      9  C   UNL     1       4.752   6.185  17.105  0.00  0.00    +0.000 A 
ATOM     10  C   UNL     1       5.505   5.103  16.653  0.00  0.00    +0.000 A 
ATOM     11  C   UNL     1       5.058   3.805  16.886  0.00  0.00    +0.000 A 
ATOM     12  C   UNL     1       3.851   3.585  17.560  0.00  0.00    +0.000 A 
ATOM     13 CL   UNL     1       3.377   1.936  17.791  0.00  0.00    +0.000 Cl
ATOM     14  C   UNL     1       3.077   4.668  18.012  0.00  0.00    +0.000 A 
ATOM     15 CL   UNL     1       1.544   4.359  18.769  0.00  0.00    +0.000 Cl
ENDBRANCH   4   8
BRANCH   7  16
ATOM     16  C   UNL     1       0.304  10.379  20.167  0.00  0.00    +0.000 A 
ATOM     17  C   UNL     1      -0.965  10.661  19.696  0.00  0.00    +0.000 A 
ATOM     18  C   UNL     1      -1.263  12.053  19.718  0.00  0.00    +0.000 A 
ATOM     19  C   UNL     1      -0.219  12.793  20.225  0.00  0.00    +0.000 A 
ATOM     20  S   UNL     1       1.098  11.809  20.692  0.00  0.00    +0.000 S 
ENDBRANCH   7  16
TORSDOF 2
ENDMDL
MODEL 4
REMARK VINA RESULT:      -6.5      2.301      2.662
REMARK  Name = 
REMARK  2 active torsions:
REMARK  status: ('A' for Active; 'I' for Inactive)
REMARK    1  A    between atoms: C_4  and  C_5
REMARK    2  A    between atoms: C_15  and  C_16
REMARK                            x       y       z     vdW  Elec       q    Type
REMARK                         _______ _______ _______ _____ _____    ______ ____
ROOT
ATOM      1  O   UNL     1       1.295   8.648  21.108  0.00  0.00    +0.000 OA
ATOM      2  C   UNL     1       1.668   8.255  20.024  0.00  0.00    +0.000 C 
ATOM      3  O   UNL     1       2.211   7.031  19.754  0.00  0.00    +0.000 OA
ATOM      4  C   UNL     1       2.476   7.008  18.428  0.00  0.00    +0.000 C 
ATOM      5  N   UNL     1       2.172   8.059  17.740  0.00  0.00    +0.000 NA
ATOM      6  C   UNL     1       1.676   8.920  18.686  0.00  0.00    +0.000 C 
ATOM      7  C   UNL     1       1.308  10.175  18.399  0.00  0.00    +0.000 C 
ENDROOT
BRANCH   4   8
ATOM      8  C   UNL     1       3.093   5.762  17.946  0.00  0.00    +0.000 A 
ATOM      9  C   UNL     1       2.335   4.579  18.025  0.00  0.00    +0.000 A 
ATOM     10  C   UNL     1       2.853   3.373  17.558  0.00  0.00    +0.000 A 
ATOM     11  C   UNL     1       4.129   3.339  17.003  0.00  0.00    +0.000 A 
ATOM     12  C   UNL     1       4.897   4.507  16.927  0.00  0.00    +0.000 A 
ATOM     13 CL   UNL     1       6.475   4.359  16.230  0.00  0.00    +0.000 Cl
ATOM     14  C   UNL     1       4.390   5.728  17.404  0.00  0.00    +0.000 A 
ATOM     15 CL   UNL     1       5.402   7.140  17.371  0.00  0.00    +0.000 Cl
ENDBRANCH   4   8
BRANCH   7  16
ATOM     16  C   UNL     1       0.843  11.092  19.372  0.00  0.00    +0.000 A 
ATOM     17  C   UNL     1       1.557  12.045  20.074  0.00  0.00    +0.000 A 
ATOM     18  C   UNL     1       0.745  12.784  20.981  0.00  0.00    +0.000 A 
ATOM     19  C   UNL     1      -0.572  12.387  20.930  0.00  0.00    +0.000 A 
ATOM     20  S   UNL     1      -0.826  11.149  19.779  0.00  0.00    +0.000 S 
ENDBRANCH   7  16
TORSDOF 2
ENDMDL
MODEL 5
REMARK VINA RESULT:      -6.5      1.917      2.247
REMARK  Name = 
REMARK  2 active torsions:
REMARK  status: ('A' for Active; 'I' for Inactive)
REMARK    1  A    between atoms: C_4  and  C_5
REMARK    2  A    between atoms: C_15  and  C_16
REMARK                            x       y       z     vdW  Elec       q    Type
REMARK                         _______ _______ _______ _____ _____    ______ ____
ROOT
ATOM      1  O   UNL     1       1.875  10.247  17.503  0.00  0.00    +0.000 OA
ATOM      2  C   UNL     1       2.028   9.161  18.019  0.00  0.00    +0.000 C 
ATOM      3  O   UNL     1       2.600   8.067  17.435  0.00  0.00    +0.000 OA
ATOM      4  C   UNL     1       2.576   7.077  18.358  0.00  0.00    +0.000 C 
ATOM      5  N   UNL     1       2.071   7.353  19.515  0.00  0.00    +0.000 NA
ATOM      6  C   UNL     1       1.668   8.658  19.378  0.00  0.00    +0.000 C 
ATOM      7  C   UNL     1       1.014   9.317  20.343  0.00  0.00    +0.000 C 
ENDROOT
BRANCH   4   8
ATOM      8  C   UNL     1       3.136   5.796  17.900  0.00  0.00    +0.000 A 
ATOM      9  C   UNL     1       2.311   4.658  17.963  0.00  0.00    +0.000 A 
ATOM     10  C   UNL     1       2.774   3.422  17.516  0.00  0.00    +0.000 A 
ATOM     11  C   UNL     1       4.061   3.314  16.997  0.00  0.00    +0.000 A 
ATOM     12  C   UNL     1       4.894   4.437  16.936  0.00  0.00    +0.000 A 
ATOM     13 CL   UNL     1       6.479   4.198  16.283  0.00  0.00    +0.000 Cl
ATOM     14  C   UNL     1       4.443   5.688  17.393  0.00  0.00    +0.000 A 
ATOM     15 CL   UNL     1       5.531   7.041  17.380  0.00  0.00    +0.000 Cl
ENDBRANCH   4   8
BRANCH   7  16
ATOM     16  C   UNL     1       0.546  10.645  20.199  0.00  0.00    +0.000 A 
ATOM     17  C   UNL     1       1.187  11.827  20.522  0.00  0.00    +0.000 A 
ATOM     18  C   UNL     1       0.394  12.977  20.240  0.00  0.00    +0.000 A 
ATOM     19  C   UNL     1      -0.821  12.639  19.689  0.00  0.00    +0.000 A 
ATOM     20  S   UNL     1      -0.991  10.950  19.495  0.00  0.00    +0.000 S 
ENDBRANCH   7  16
TORSDOF 2
ENDMDL
MODEL 6
REMARK VINA RESULT:      -6.4      3.417      7.104
REMARK  Name = 
REMARK  2 active torsions:
REMARK  status: ('A' for Active; 'I' for Inactive)
REMARK    1  A    between atoms: C_4  and  C_5
REMARK    2  A    between atoms: C_15  and  C_16
REMARK                            x       y       z     vdW  Elec       q    Type
REMARK                         _______ _______ _______ _____ _____    ______ ____
ROOT
ATOM      1  O   UNL     1       3.295   7.698  17.547  0.00  0.00    +0.000 OA
ATOM      2  C   UNL     1       2.667   7.646  18.582  0.00  0.00    +0.000 C 
ATOM      3  O   UNL     1       1.918   8.654  19.120  0.00  0.00    +0.000 OA
ATOM      4  C   UNL     1       1.386   8.171  20.268  0.00  0.00    +0.000 C 
ATOM      5  N   UNL     1       1.661   6.949  20.586  0.00  0.00    +0.000 NA
ATOM      6  C   UNL     1       2.501   6.545  19.577  0.00  0.00    +0.000 C 
ATOM      7  C   UNL     1       3.087   5.341  19.566  0.00  0.00    +0.000 C 
ENDROOT
BRANCH   4   8
ATOM      8  C   UNL     1       0.554   9.132  21.010  0.00  0.00    +0.000 A 
ATOM      9  C   UNL     1       0.576   9.071  22.416  0.00  0.00    +0.000 A 
ATOM     10  C   UNL     1      -0.167   9.973  23.175  0.00  0.00    +0.000 A 
ATOM     11  C   UNL     1      -0.932  10.946  22.537  0.00  0.00    +0.000 A 
ATOM     12  C   UNL     1      -0.968  11.011  21.140  0.00  0.00    +0.000 A 
ATOM     13 CL   UNL     1      -1.957  12.250  20.443  0.00  0.00    +0.000 Cl
ATOM     14  C   UNL     1      -0.231  10.101  20.362  0.00  0.00    +0.000 A 
ATOM     15 CL   UNL     1      -0.366  10.158  18.632  0.00  0.00    +0.000 Cl
ENDBRANCH   4   8
BRANCH   7  16
ATOM     16  C   UNL     1       3.994   4.927  18.561  0.00  0.00    +0.000 A 
ATOM     17  C   UNL     1       3.723   4.335  17.341  0.00  0.00    +0.000 A 
ATOM     18  C   UNL     1       4.902   4.052  16.593  0.00  0.00    +0.000 A 
ATOM     19  C   UNL     1       6.038   4.456  17.256  0.00  0.00    +0.000 A 
ATOM     20  S   UNL     1       5.681   5.191  18.757  0.00  0.00    +0.000 S 
ENDBRANCH   7  16
TORSDOF 2
ENDMDL
MODEL 7
REMARK VINA RESULT:      -6.4      3.357      7.029
REMARK  Name = 
REMARK  2 active torsions:
REMARK  status: ('A' for Active; 'I' for Inactive)
REMARK    1  A    between atoms: C_4  and  C_5
REMARK    2  A    between atoms: C_15  and  C_16
REMARK                            x       y       z     vdW  Elec       q    Type
REMARK                         _______ _______ _______ _____ _____    ______ ____
ROOT
ATOM      1  O   UNL     1       4.062   7.430  16.878  0.00  0.00    +0.000 OA
ATOM      2  C   UNL     1       3.407   7.317  17.892  0.00  0.00    +0.000 C 
ATOM      3  O   UNL     1       2.631   8.287  18.461  0.00  0.00    +0.000 OA
ATOM      4  C   UNL     1       2.076   7.740  19.567  0.00  0.00    +0.000 C 
ATOM      5  N   UNL     1       2.359   6.506  19.829  0.00  0.00    +0.000 NA
ATOM      6  C   UNL     1       3.230   6.164  18.825  0.00  0.00    +0.000 C 
ATOM      7  C   UNL     1       3.832   4.970  18.768  0.00  0.00    +0.000 C 
ENDROOT
BRANCH   4   8
ATOM      8  C   UNL     1       1.213   8.651  20.335  0.00  0.00    +0.000 A 
ATOM      9  C   UNL     1       1.236   8.551  21.739  0.00  0.00    +0.000 A 
ATOM     10  C   UNL     1       0.463   9.406  22.522  0.00  0.00    +0.000 A 
ATOM     11  C   UNL     1      -0.334  10.370  21.911  0.00  0.00    +0.000 A 
ATOM     12  C   UNL     1      -0.372  10.474  20.516  0.00  0.00    +0.000 A 
ATOM     13 CL   UNL     1      -1.401  11.697  19.852  0.00  0.00    +0.000 Cl
ATOM     14  C   UNL     1       0.395   9.611  19.714  0.00  0.00    +0.000 A 
ATOM     15 CL   UNL     1       0.259   9.712  17.985  0.00  0.00    +0.000 Cl
ENDBRANCH   4   8
BRANCH   7  16
ATOM     16  C   UNL     1       4.771   4.619  17.768  0.00  0.00    +0.000 A 
ATOM     17  C   UNL     1       4.545   4.025  16.539  0.00  0.00    +0.000 A 
ATOM     18  C   UNL     1       5.745   3.818  15.800  0.00  0.00    +0.000 A 
ATOM     19  C   UNL     1       6.850   4.279  16.477  0.00  0.00    +0.000 A 
ATOM     20  S   UNL     1       6.438   4.977  17.982  0.00  0.00    +0.000 S 
ENDBRANCH   7  16
TORSDOF 2
ENDMDL
MODEL 8
REMARK VINA RESULT:      -6.3      3.713      7.466
REMARK  Name = 
REMARK  2 active torsions:
REMARK  status: ('A' for Active; 'I' for Inactive)
REMARK    1  A    between atoms: C_4  and  C_5
REMARK    2  A    between atoms: C_15  and  C_16
REMARK                            x       y       z     vdW  Elec       q    Type
REMARK                         _______ _______ _______ _____ _____    ______ ____
ROOT
ATOM      1  O   UNL     1       1.496   4.446  20.910  0.00  0.00    +0.000 OA
ATOM      2  C   UNL     1       1.608   5.603  20.567  0.00  0.00    +0.000 C 
ATOM      3  O   UNL     1       0.996   6.677  21.149  0.00  0.00    +0.000 OA
ATOM      4  C   UNL     1       1.398   7.771  20.463  0.00  0.00    +0.000 C 
ATOM      5  N   UNL     1       2.225   7.593  19.486  0.00  0.00    +0.000 NA
ATOM      6  C   UNL     1       2.391   6.230  19.461  0.00  0.00    +0.000 C 
ATOM      7  C   UNL     1       3.127   5.609  18.531  0.00  0.00    +0.000 C 
ENDROOT
BRANCH   4   8
ATOM      8  C   UNL     1       0.819   9.039  20.935  0.00  0.00    +0.000 A 
ATOM      9  C   UNL     1       0.346   9.093  22.259  0.00  0.00    +0.000 A 
ATOM     10  C   UNL     1      -0.185  10.274  22.774  0.00  0.00    +0.000 A 
ATOM     11  C   UNL     1      -0.243  11.411  21.972  0.00  0.00    +0.000 A 
ATOM     12  C   UNL     1       0.217  11.368  20.651  0.00  0.00    +0.000 A 
ATOM     13 CL   UNL     1       0.092  12.830  19.733  0.00  0.00    +0.000 Cl
ATOM     14  C   UNL     1       0.745  10.180  20.117  0.00  0.00    +0.000 A 
ATOM     15 CL   UNL     1       1.228  10.139  18.449  0.00  0.00    +0.000 Cl
ENDBRANCH   4   8
BRANCH   7  16
ATOM     16  C   UNL     1       3.268   4.202  18.461  0.00  0.00    +0.000 A 
ATOM     17  C   UNL     1       2.548   3.298  17.701  0.00  0.00    +0.000 A 
ATOM     18  C   UNL     1       2.972   1.953  17.900  0.00  0.00    +0.000 A 
ATOM     19  C   UNL     1       4.018   1.872  18.790  0.00  0.00    +0.000 A 
ATOM     20  S   UNL     1       4.497   3.409  19.362  0.00  0.00    +0.000 S 
ENDBRANCH   7  16
TORSDOF 2
ENDMDL
MODEL 9
REMARK VINA RESULT:      -6.3      4.733      7.258
REMARK  Name = 
REMARK  2 active torsions:
REMARK  status: ('A' for Active; 'I' for Inactive)
REMARK    1  A    between atoms: C_4  and  C_5
REMARK    2  A    between atoms: C_15  and  C_16
REMARK                            x       y       z     vdW  Elec       q    Type
REMARK                         _______ _______ _______ _____ _____    ______ ____
ROOT
ATOM      1  O   UNL     1       5.302   6.677  15.129  0.00  0.00    +0.000 OA
ATOM      2  C   UNL     1       4.917   5.840  15.916  0.00  0.00    +0.000 C 
ATOM      3  O   UNL     1       4.164   6.071  17.032  0.00  0.00    +0.000 OA
ATOM      4  C   UNL     1       3.955   4.868  17.615  0.00  0.00    +0.000 C 
ATOM      5  N   UNL     1       4.458   3.829  17.035  0.00  0.00    +0.000 NA
ATOM      6  C   UNL     1       5.117   4.361  15.954  0.00  0.00    +0.000 C 
ATOM      7  C   UNL     1       5.849   3.615  15.117  0.00  0.00    +0.000 C 
ENDROOT
BRANCH   4   8
ATOM      8  C   UNL     1       3.172   4.917  18.860  0.00  0.00    +0.000 A 
ATOM      9  C   UNL     1       2.667   6.165  19.271  0.00  0.00    +0.000 A 
ATOM     10  C   UNL     1       1.893   6.270  20.425  0.00  0.00    +0.000 A 
ATOM     11  C   UNL     1       1.611   5.130  21.173  0.00  0.00    +0.000 A 
ATOM     12  C   UNL     1       2.114   3.885  20.779  0.00  0.00    +0.000 A 
ATOM     13 CL   UNL     1       1.717   2.531  21.782  0.00  0.00    +0.000 Cl
ATOM     14  C   UNL     1       2.905   3.767  19.623  0.00  0.00    +0.000 A 
ATOM     15 CL   UNL     1       3.582   2.221  19.211  0.00  0.00    +0.000 Cl
ENDBRANCH   4   8
BRANCH   7  16
ATOM     16  C   UNL     1       6.576   4.155  14.028  0.00  0.00    +0.000 A 
ATOM     17  C   UNL     1       7.618   5.063  14.050  0.00  0.00    +0.000 A 
ATOM     18  C   UNL     1       8.098   5.380  12.746  0.00  0.00    +0.000 A 
ATOM     19  C   UNL     1       7.421   4.687  11.769  0.00  0.00    +0.000 A 
ATOM     20  S   UNL     1       6.233   3.648  12.423  0.00  0.00    +0.000 S 
ENDBRANCH   7  16
TORSDOF 2
ENDMDL
