MODEL 1
REMARK VINA RESULT:      -7.5      0.000      0.000
REMARK  Name = 
REMARK  1 active torsions:
REMARK  status: ('A' for Active; 'I' for Inactive)
REMARK    1  A    between atoms: C_9  and  C_10
REMARK                            x       y       z     vdW  Elec       q    Type
REMARK                         _______ _______ _______ _____ _____    ______ ____
ROOT
ATOM      1  O   UNL     1       6.707   4.853  15.101  0.00  0.00    +0.000 OA
ATOM      2  C   UNL     1       6.758   5.452  16.171  0.00  0.00    +0.000 C 
ATOM      3  N   UNL     1       7.607   6.521  16.313  0.00  0.00    +0.000 N 
ATOM      4  C   UNL     1       7.577   7.481  17.393  0.00  0.00    +0.000 C 
ATOM      5  C   UNL     1       8.180   6.922  18.673  0.00  0.00    +0.000 C 
ATOM      6  C   UNL     1       7.404   5.797  19.362  0.00  0.00    +0.000 C 
ATOM      7  C   UNL     1       6.190   5.294  18.656  0.00  0.00    +0.000 A 
ATOM      8  N   UNL     1       5.104   4.836  19.367  0.00  0.00    +0.000 N 
ATOM      9  C   UNL     1       4.136   4.339  18.522  0.00  0.00    +0.000 A 
ATOM     10  C   UNL     1       4.640   4.473  17.241  0.00  0.00    +0.000 A 
ATOM     11  C   UNL     1       5.914   5.108  17.308  0.00  0.00    +0.000 A 
ATOM     12  H   UNL     1       8.104   6.749  15.462  0.00  0.00    +0.000 HD
ATOM     13  H   UNL     1       5.042   4.822  20.375  0.00  0.00    +0.000 HD
ENDROOT
BRANCH   9  14
ATOM     14  C   UNL     1       2.879   3.759  18.997  0.00  0.00    +0.000 A 
ATOM     15  C   UNL     1       2.096   2.946  18.174  0.00  0.00    +0.000 A 
ATOM     16  C   UNL     1       0.909   2.437  18.679  0.00  0.00    +0.000 A 
ATOM     17  N   UNL     1       0.457   2.679  19.927  0.00  0.00    +0.000 NA
ATOM     18  C   UNL     1       1.234   3.456  20.709  0.00  0.00    +0.000 A 
ATOM     19  C   UNL     1       2.437   4.008  20.298  0.00  0.00    +0.000 A 
ENDBRANCH   9  14
TORSDOF 1
ENDMDL
MODEL 2
REMARK VINA RESULT:      -7.4      0.267      1.150
REMARK  Name = 
REMARK  1 active torsions:
REMARK  status: ('A' for Active; 'I' for Inactive)
REMARK    1  A    between atoms: C_9  and  C_10
REMARK                            x       y       z     vdW  Elec       q    Type
REMARK                         _______ _______ _______ _____ _____    ______ ____
ROOT
ATOM      1  O   UNL     1       6.775   4.495  15.121  0.00  0.00    +0.000 OA
ATOM      2  C   UNL     1       6.788   5.179  16.141  0.00  0.00    +0.000 C 
ATOM      3  N   UNL     1       7.597   6.285  16.208  0.00  0.00    +0.000 N 
ATOM      4  C   UNL     1       7.516   7.327  17.206  0.00  0.00    +0.000 C 
ATOM      5  C   UNL     1       8.116   6.894  18.535  0.00  0.00    +0.000 C 
ATOM      6  C   UNL     1       7.368   5.801  19.302  0.00  0.00    +0.000 C 
ATOM      7  C   UNL     1       6.184   5.200  18.621  0.00  0.00    +0.000 A 
ATOM      8  N   UNL     1       5.102   4.762  19.352  0.00  0.00    +0.000 N 
ATOM      9  C   UNL     1       4.167   4.165  18.536  0.00  0.00    +0.000 A 
ATOM     10  C   UNL     1       4.687   4.213  17.256  0.00  0.00    +0.000 A 
ATOM     11  C   UNL     1       5.937   4.897  17.289  0.00  0.00    +0.000 A 
ATOM     12  H   UNL     1       8.100   6.462  15.348  0.00  0.00    +0.000 HD
ATOM     13  H   UNL     1       5.024   4.827  20.357  0.00  0.00    +0.000 HD
ENDROOT
BRANCH   9  14
ATOM     14  C   UNL     1       2.922   3.581  19.039  0.00  0.00    +0.000 A 
ATOM     15  C   UNL     1       2.632   3.552  20.405  0.00  0.00    +0.000 A 
ATOM     16  C   UNL     1       1.442   2.974  20.819  0.00  0.00    +0.000 A 
ATOM     17  N   UNL     1       0.536   2.433  19.979  0.00  0.00    +0.000 NA
ATOM     18  C   UNL     1       0.829   2.482  18.663  0.00  0.00    +0.000 A 
ATOM     19  C   UNL     1       1.990   3.040  18.151  0.00  0.00    +0.000 A 
ENDBRANCH   9  14
TORSDOF 1
ENDMDL
MODEL 3
REMARK VINA RESULT:      -7.2      3.786      5.257
REMARK  Name = 
REMARK  1 active torsions:
REMARK  status: ('A' for Active; 'I' for Inactive)
REMARK    1  A    between atoms: C_9  and  C_10
REMARK                            x       y       z     vdW  Elec       q    Type
REMARK                         _______ _______ _______ _____ _____    ______ ____
ROOT
ATOM      1  O   UNL     1       6.342   4.458  19.300  0.00  0.00    +0.000 OA
ATOM      2  C   UNL     1       5.219   4.002  19.101  0.00  0.00    +0.000 C 
ATOM      3  N   UNL     1       5.009   2.649  19.183  0.00  0.00    +0.000 N 
ATOM      4  C   UNL     1       3.720   2.001  19.252  0.00  0.00    +0.000 C 
ATOM      5  C   UNL     1       3.029   1.955  17.898  0.00  0.00    +0.000 C 
ATOM      6  C   UNL     1       2.567   3.293  17.318  0.00  0.00    +0.000 C 
ATOM      7  C   UNL     1       2.931   4.517  18.091  0.00  0.00    +0.000 A 
ATOM      8  N   UNL     1       2.100   5.614  18.100  0.00  0.00    +0.000 N 
ATOM      9  C   UNL     1       2.669   6.656  18.799  0.00  0.00    +0.000 A 
ATOM     10  C   UNL     1       3.904   6.203  19.225  0.00  0.00    +0.000 A 
ATOM     11  C   UNL     1       4.065   4.846  18.821  0.00  0.00    +0.000 A 
ATOM     12  H   UNL     1       5.836   2.135  19.456  0.00  0.00    +0.000 HD
ATOM     13  H   UNL     1       1.213   5.667  17.620  0.00  0.00    +0.000 HD
ENDROOT
BRANCH   9  14
ATOM     14  C   UNL     1       2.025   7.962  18.955  0.00  0.00    +0.000 A 
ATOM     15  C   UNL     1       1.933   8.860  17.888  0.00  0.00    +0.000 A 
ATOM     16  C   UNL     1       1.323  10.086  18.103  0.00  0.00    +0.000 A 
ATOM     17  N   UNL     1       0.805  10.471  19.287  0.00  0.00    +0.000 NA
ATOM     18  C   UNL     1       0.893   9.585  20.301  0.00  0.00    +0.000 A 
ATOM     19  C   UNL     1       1.481   8.336  20.185  0.00  0.00    +0.000 A 
ENDBRANCH   9  14
TORSDOF 1
ENDMDL
MODEL 4
REMARK VINA RESULT:      -7.1      3.788      5.360
REMARK  Name = 
REMARK  1 active torsions:
REMARK  status: ('A' for Active; 'I' for Inactive)
REMARK    1  A    between atoms: C_9  and  C_10
REMARK                            x       y       z     vdW  Elec       q    Type
REMARK                         _______ _______ _______ _____ _____    ______ ____
ROOT
ATOM      1  O   UNL     1       6.337   4.432  19.269  0.00  0.00    +0.000 OA
ATOM      2  C   UNL     1       5.208   3.990  19.075  0.00  0.00    +0.000 C 
ATOM      3  N   UNL     1       4.983   2.639  19.155  0.00  0.00    +0.000 N 
ATOM      4  C   UNL     1       3.685   2.006  19.229  0.00  0.00    +0.000 C 
ATOM      5  C   UNL     1       2.988   1.971  17.877  0.00  0.00    +0.000 C 
ATOM      6  C   UNL     1       2.540   3.316  17.302  0.00  0.00    +0.000 C 
ATOM      7  C   UNL     1       2.922   4.534  18.076  0.00  0.00    +0.000 A 
ATOM      8  N   UNL     1       2.105   5.641  18.091  0.00  0.00    +0.000 N 
ATOM      9  C   UNL     1       2.689   6.675  18.788  0.00  0.00    +0.000 A 
ATOM     10  C   UNL     1       3.920   6.207  19.209  0.00  0.00    +0.000 A 
ATOM     11  C   UNL     1       4.064   4.848  18.801  0.00  0.00    +0.000 A 
ATOM     12  H   UNL     1       5.805   2.114  19.423  0.00  0.00    +0.000 HD
ATOM     13  H   UNL     1       1.216   5.706  17.614  0.00  0.00    +0.000 HD
ENDROOT
BRANCH   9  14
ATOM     14  C   UNL     1       2.062   7.988  18.950  0.00  0.00    +0.000 A 
ATOM     15  C   UNL     1       1.451   8.360  20.150  0.00  0.00    +0.000 A 
ATOM     16  C   UNL     1       0.864   9.613  20.236  0.00  0.00    +0.000 A 
ATOM     17  N   UNL     1       0.845  10.506  19.224  0.00  0.00    +0.000 NA
ATOM     18  C   UNL     1       1.451  10.132  18.078  0.00  0.00    +0.000 A 
ATOM     19  C   UNL     1       2.067   8.904  17.896  0.00  0.00    +0.000 A 
ENDBRANCH   9  14
TORSDOF 1
ENDMDL
MODEL 5
REMARK VINA RESULT:      -7.1      1.879      2.560
REMARK  Name = 
REMARK  1 active torsions:
REMARK  status: ('A' for Active; 'I' for Inactive)
REMARK    1  A    between atoms: C_9  and  C_10
REMARK                            x       y       z     vdW  Elec       q    Type
REMARK                         _______ _______ _______ _____ _____    ______ ____
ROOT
ATOM      1  O   UNL     1       8.288   4.390  18.116  0.00  0.00    +0.000 OA
ATOM      2  C   UNL     1       7.398   4.528  17.281  0.00  0.00    +0.000 C 
ATOM      3  N   UNL     1       7.722   4.632  15.952  0.00  0.00    +0.000 N 
ATOM      4  C   UNL     1       6.795   4.518  14.849  0.00  0.00    +0.000 C 
ATOM      5  C   UNL     1       5.959   5.776  14.672  0.00  0.00    +0.000 C 
ATOM      6  C   UNL     1       4.945   6.087  15.775  0.00  0.00    +0.000 C 
ATOM      7  C   UNL     1       4.950   5.180  16.961  0.00  0.00    +0.000 A 
ATOM      8  N   UNL     1       3.785   4.908  17.641  0.00  0.00    +0.000 N 
ATOM      9  C   UNL     1       4.033   4.126  18.747  0.00  0.00    +0.000 A 
ATOM     10  C   UNL     1       5.399   3.917  18.772  0.00  0.00    +0.000 A 
ATOM     11  C   UNL     1       5.984   4.542  17.632  0.00  0.00    +0.000 A 
ATOM     12  H   UNL     1       8.714   4.538  15.776  0.00  0.00    +0.000 HD
ATOM     13  H   UNL     1       2.876   5.271  17.391  0.00  0.00    +0.000 HD
ENDROOT
BRANCH   9  14
ATOM     14  C   UNL     1       2.985   3.699  19.677  0.00  0.00    +0.000 A 
ATOM     15  C   UNL     1       3.277   2.895  20.782  0.00  0.00    +0.000 A 
ATOM     16  C   UNL     1       2.239   2.514  21.618  0.00  0.00    +0.000 A 
ATOM     17  N   UNL     1       0.952   2.874  21.432  0.00  0.00    +0.000 NA
ATOM     18  C   UNL     1       0.694   3.661  20.367  0.00  0.00    +0.000 A 
ATOM     19  C   UNL     1       1.662   4.096  19.476  0.00  0.00    +0.000 A 
ENDBRANCH   9  14
TORSDOF 1
ENDMDL
MODEL 6
REMARK VINA RESULT:      -7.1      1.888      2.501
REMARK  Name = 
REMARK  1 active torsions:
REMARK  status: ('A' for Active; 'I' for Inactive)
REMARK    1  A    between atoms: C_9  and  C_10
REMARK                            x       y       z     vdW  Elec       q    Type
REMARK                         _______ _______ _______ _____ _____    ______ ____
ROOT
ATOM      1  O   UNL     1       8.257   4.464  18.215  0.00  0.00    +0.000 OA
ATOM      2  C   UNL     1       7.385   4.543  17.354  0.00  0.00    +0.000 C 
ATOM      3  N   UNL     1       7.739   4.604  16.030  0.00  0.00    +0.000 N 
ATOM      4  C   UNL     1       6.844   4.420  14.911  0.00  0.00    +0.000 C 
ATOM      5  C   UNL     1       5.978   5.646  14.663  0.00  0.00    +0.000 C 
ATOM      6  C   UNL     1       4.929   5.971  15.728  0.00  0.00    +0.000 C 
ATOM      7  C   UNL     1       4.930   5.114  16.950  0.00  0.00    +0.000 A 
ATOM      8  N   UNL     1       3.756   4.835  17.613  0.00  0.00    +0.000 N 
ATOM      9  C   UNL     1       3.997   4.106  18.756  0.00  0.00    +0.000 A 
ATOM     10  C   UNL     1       5.368   3.937  18.821  0.00  0.00    +0.000 A 
ATOM     11  C   UNL     1       5.964   4.532  17.671  0.00  0.00    +0.000 A 
ATOM     12  H   UNL     1       8.737   4.530  15.882  0.00  0.00    +0.000 HD
ATOM     13  H   UNL     1       2.843   5.162  17.327  0.00  0.00    +0.000 HD
ENDROOT
BRANCH   9  14
ATOM     14  C   UNL     1       2.939   3.687  19.677  0.00  0.00    +0.000 A 
ATOM     15  C   UNL     1       1.625   4.142  19.532  0.00  0.00    +0.000 A 
ATOM     16  C   UNL     1       0.671   3.718  20.444  0.00  0.00    +0.000 A 
ATOM     17  N   UNL     1       0.932   2.884  21.472  0.00  0.00    +0.000 NA
ATOM     18  C   UNL     1       2.203   2.447  21.587  0.00  0.00    +0.000 A 
ATOM     19  C   UNL     1       3.225   2.811  20.725  0.00  0.00    +0.000 A 
ENDBRANCH   9  14
TORSDOF 1
ENDMDL
MODEL 7
REMARK VINA RESULT:      -7.0      2.432      6.039
REMARK  Name = 
REMARK  1 active torsions:
REMARK  status: ('A' for Active; 'I' for Inactive)
REMARK    1  A    between atoms: C_9  and  C_10
REMARK                            x       y       z     vdW  Elec       q    Type
REMARK                         _______ _______ _______ _____ _____    ______ ____
ROOT
ATOM      1  O   UNL     1       0.675   2.256  18.097  0.00  0.00    +0.000 OA
ATOM      2  C   UNL     1       1.258   3.075  18.803  0.00  0.00    +0.000 C 
ATOM      3  N   UNL     1       0.900   3.216  20.120  0.00  0.00    +0.000 N 
ATOM      4  C   UNL     1       1.661   3.919  21.127  0.00  0.00    +0.000 C 
ATOM      5  C   UNL     1       1.521   5.429  21.000  0.00  0.00    +0.000 C 
ATOM      6  C   UNL     1       2.150   6.074  19.764  0.00  0.00    +0.000 C 
ATOM      7  C   UNL     1       2.748   5.148  18.759  0.00  0.00    +0.000 A 
ATOM      8  N   UNL     1       3.848   5.526  18.022  0.00  0.00    +0.000 N 
ATOM      9  C   UNL     1       4.177   4.561  17.097  0.00  0.00    +0.000 A 
ATOM     10  C   UNL     1       3.243   3.552  17.246  0.00  0.00    +0.000 A 
ATOM     11  C   UNL     1       2.362   3.890  18.314  0.00  0.00    +0.000 A 
ATOM     12  H   UNL     1       0.180   2.566  20.408  0.00  0.00    +0.000 HD
ATOM     13  H   UNL     1       4.323   6.414  18.114  0.00  0.00    +0.000 HD
ENDROOT
BRANCH   9  14
ATOM     14  C   UNL     1       5.289   4.700  16.155  0.00  0.00    +0.000 A 
ATOM     15  C   UNL     1       5.234   4.138  14.877  0.00  0.00    +0.000 A 
ATOM     16  C   UNL     1       6.324   4.294  14.035  0.00  0.00    +0.000 A 
ATOM     17  N   UNL     1       7.446   4.962  14.374  0.00  0.00    +0.000 NA
ATOM     18  C   UNL     1       7.474   5.508  15.608  0.00  0.00    +0.000 A 
ATOM     19  C   UNL     1       6.435   5.409  16.519  0.00  0.00    +0.000 A 
ENDBRANCH   9  14
TORSDOF 1
ENDMDL
MODEL 8
REMARK VINA RESULT:      -7.0      1.771      2.602
REMARK  Name = 
REMARK  1 active torsions:
REMARK  status: ('A' for Active; 'I' for Inactive)
REMARK    1  A    between atoms: C_9  and  C_10
REMARK                            x       y       z     vdW  Elec       q    Type
REMARK                         _______ _______ _______ _____ _____    ______ ____
ROOT
ATOM      1  O   UNL     1       6.570   7.558  17.459  0.00  0.00    +0.000 OA
ATOM      2  C   UNL     1       6.463   6.473  16.894  0.00  0.00    +0.000 C 
ATOM      3  N   UNL     1       7.371   6.116  15.930  0.00  0.00    +0.000 N 
ATOM      4  C   UNL     1       7.541   4.787  15.387  0.00  0.00    +0.000 C 
ATOM      5  C   UNL     1       6.448   4.432  14.390  0.00  0.00    +0.000 C 
ATOM      6  C   UNL     1       5.037   4.256  14.954  0.00  0.00    +0.000 C 
ATOM      7  C   UNL     1       4.857   4.550  16.406  0.00  0.00    +0.000 A 
ATOM      8  N   UNL     1       3.934   3.854  17.153  0.00  0.00    +0.000 N 
ATOM      9  C   UNL     1       3.870   4.345  18.439  0.00  0.00    +0.000 A 
ATOM     10  C   UNL     1       4.770   5.394  18.493  0.00  0.00    +0.000 A 
ATOM     11  C   UNL     1       5.426   5.508  17.233  0.00  0.00    +0.000 A 
ATOM     12  H   UNL     1       8.105   6.800  15.802  0.00  0.00    +0.000 HD
ATOM     13  H   UNL     1       3.346   3.114  16.796  0.00  0.00    +0.000 HD
ENDROOT
BRANCH   9  14
ATOM     14  C   UNL     1       2.957   3.817  19.454  0.00  0.00    +0.000 A 
ATOM     15  C   UNL     1       1.605   4.170  19.470  0.00  0.00    +0.000 A 
ATOM     16  C   UNL     1       0.794   3.646  20.465  0.00  0.00    +0.000 A 
ATOM     17  N   UNL     1       1.230   2.808  21.428  0.00  0.00    +0.000 NA
ATOM     18  C   UNL     1       2.536   2.470  21.386  0.00  0.00    +0.000 A 
ATOM     19  C   UNL     1       3.425   2.938  20.432  0.00  0.00    +0.000 A 
ENDBRANCH   9  14
TORSDOF 1
ENDMDL
MODEL 9
REMARK VINA RESULT:      -7.0      2.422      6.133
REMARK  Name = 
REMARK  1 active torsions:
REMARK  status: ('A' for Active; 'I' for Inactive)
REMARK    1  A    between atoms: C_9  and  C_10
REMARK                            x       y       z     vdW  Elec       q    Type
REMARK                         _______ _______ _______ _____ _____    ______ ____
ROOT
ATOM      1  O   UNL     1       0.676   2.251  18.107  0.00  0.00    +0.000 OA
ATOM      2  C   UNL     1       1.259   3.065  18.819  0.00  0.00    +0.000 C 
ATOM      3  N   UNL     1       0.896   3.201  20.135  0.00  0.00    +0.000 N 
ATOM      4  C   UNL     1       1.655   3.896  21.150  0.00  0.00    +0.000 C 
ATOM      5  C   UNL     1       1.523   5.407  21.029  0.00  0.00    +0.000 C 
ATOM      6  C   UNL     1       2.161   6.055  19.799  0.00  0.00    +0.000 C 
ATOM      7  C   UNL     1       2.760   5.130  18.792  0.00  0.00    +0.000 A 
ATOM      8  N   UNL     1       3.864   5.507  18.063  0.00  0.00    +0.000 N 
ATOM      9  C   UNL     1       4.193   4.544  17.134  0.00  0.00    +0.000 A 
ATOM     10  C   UNL     1       3.254   3.540  17.275  0.00  0.00    +0.000 A 
ATOM     11  C   UNL     1       2.369   3.877  18.340  0.00  0.00    +0.000 A 
ATOM     12  H   UNL     1       0.172   2.553  20.417  0.00  0.00    +0.000 HD
ATOM     13  H   UNL     1       4.343   6.392  18.160  0.00  0.00    +0.000 HD
ENDROOT
BRANCH   9  14
ATOM     14  C   UNL     1       5.310   4.682  16.198  0.00  0.00    +0.000 A 
ATOM     15  C   UNL     1       6.485   5.347  16.559  0.00  0.00    +0.000 A 
ATOM     16  C   UNL     1       7.502   5.455  15.623  0.00  0.00    +0.000 A 
ATOM     17  N   UNL     1       7.430   4.953  14.373  0.00  0.00    +0.000 NA
ATOM     18  C   UNL     1       6.293   4.304  14.049  0.00  0.00    +0.000 A 
ATOM     19  C   UNL     1       5.223   4.142  14.914  0.00  0.00    +0.000 A 
ENDBRANCH   9  14
TORSDOF 1
ENDMDL
