MODEL 1
REMARK VINA RESULT:      -8.2      0.000      0.000
REMARK  Name = 
REMARK  9 active torsions:
REMARK  status: ('A' for Active; 'I' for Inactive)
REMARK    1  A    between atoms: C_1  and  N_2
REMARK    2  A    between atoms: N_2  and  C_3
REMARK    3  A    between atoms: N_2  and  S_22
REMARK    4  A    between atoms: C_3  and  C_4
REMARK    5  A    between atoms: C_3  and  C_5
REMARK    6  A    between atoms: C_3  and  C_6
REMARK    7  A    between atoms: N_8  and  C_9
REMARK    8  A    between atoms: C_16  and  C_17
REMARK    9  A    between atoms: S_22  and  C_25
REMARK                            x       y       z     vdW  Elec       q    Type
REMARK                         _______ _______ _______ _____ _____    ______ ____
ROOT
ATOM      1  C   UNL     1       1.893   8.323  19.501  0.00  0.00    +0.000 C 
ATOM      2  O   UNL     1       1.693   8.091  20.699  0.00  0.00    +0.000 OA
ATOM      3  N   UNL     1       2.673   7.445  18.803  0.00  0.00    +0.000 N 
ATOM      4  H   UNL     1       2.925   7.697  17.853  0.00  0.00    +0.000 HD
ENDROOT
BRANCH   3   5
ATOM      5  C   UNL     1       3.260   6.194  19.319  0.00  0.00    +0.000 C 
ATOM      6  C   UNL     1       2.197   5.063  19.276  0.00  0.00    +0.000 C 
ATOM      7  C   UNL     1       1.858   4.693  17.815  0.00  0.00    +0.000 C 
ATOM      8  C   UNL     1       3.120   4.250  17.067  0.00  0.00    +0.000 C 
ATOM      9  C   UNL     1       4.186   5.356  17.119  0.00  0.00    +0.000 C 
ATOM     10  C   UNL     1       4.533   5.691  18.581  0.00  0.00    +0.000 C 
ATOM     11  C   UNL     1       5.070   4.396  19.257  0.00  0.00    +0.000 C 
ATOM     12  C   UNL     1       4.002   3.275  19.232  0.00  0.00    +0.000 C 
ATOM     13  C   UNL     1       3.637   2.987  17.754  0.00  0.00    +0.000 C 
ATOM     14  C   UNL     1       2.751   3.805  19.977  0.00  0.00    +0.000 C 
BRANCH  12  15
ATOM     15  C   UNL     1       4.487   1.961  19.868  0.00  0.00    +0.000 C 
ATOM     16  N   UNL     1       4.476   0.852  19.087  0.00  0.00    +0.000 N 
ATOM     17  O   UNL     1       4.886   1.872  21.025  0.00  0.00    +0.000 OA
ATOM     18  H   UNL     1       4.804  -0.008  19.508  0.00  0.00    +0.000 HD
ATOM     19  H   UNL     1       4.116   0.830  18.149  0.00  0.00    +0.000 HD
ENDBRANCH  12  15
ENDBRANCH   3   5
BRANCH   1  20
ATOM     20  C   UNL     1       1.089   9.460  18.740  0.00  0.00    +0.000 C 
ATOM     21  C   UNL     1       0.361   8.670  17.596  0.00  0.00    +0.000 C 
ATOM     22  C   UNL     1       2.167  10.376  18.109  0.00  0.00    +0.000 C 
BRANCH  20  24
ATOM     23  C   UNL     1      -1.146  10.668  18.451  0.00  0.00    +0.000 C 
ATOM     24  N   UNL     1      -0.013  10.351  19.403  0.00  0.00    +0.000 NA
BRANCH  24  25
ATOM     25  S   UNL     1       0.448  11.780  20.238  0.00  0.00    +0.000 S 
ATOM     26  O   UNL     1       1.356  11.476  21.309  0.00  0.00    +0.000 OA
ATOM     27  O   UNL     1       0.813  12.763  19.235  0.00  0.00    +0.000 OA
BRANCH  25  28
ATOM     28  C   UNL     1      -1.009  12.399  21.039  0.00  0.00    +0.000 A 
ATOM     29  C   UNL     1      -1.497  13.670  20.690  0.00  0.00    +0.000 A 
ATOM     30  C   UNL     1      -2.530  14.245  21.433  0.00  0.00    +0.000 A 
ATOM     31  C   UNL     1      -3.071  13.546  22.507  0.00  0.00    +0.000 A 
ATOM     32  F   UNL     1      -4.047  14.115  23.229  0.00  0.00    +0.000 F 
ATOM     33  C   UNL     1      -2.599  12.280  22.839  0.00  0.00    +0.000 A 
ATOM     34  F   UNL     1      -3.123  11.629  23.887  0.00  0.00    +0.000 F 
ATOM     35  C   UNL     1      -1.559  11.706  22.111  0.00  0.00    +0.000 A 
ATOM     36  F   UNL     1      -1.090  10.506  22.473  0.00  0.00    +0.000 F 
ENDBRANCH  25  28
ENDBRANCH  24  25
ENDBRANCH  20  24
ENDBRANCH   1  20
TORSDOF 6
ENDMDL
MODEL 2
REMARK VINA RESULT:      -8.0      0.911      1.343
REMARK  Name = 
REMARK  9 active torsions:
REMARK  status: ('A' for Active; 'I' for Inactive)
REMARK    1  A    between atoms: C_1  and  N_2
REMARK    2  A    between atoms: N_2  and  C_3
REMARK    3  A    between atoms: N_2  and  S_22
REMARK    4  A    between atoms: C_3  and  C_4
REMARK    5  A    between atoms: C_3  and  C_5
REMARK    6  A    between atoms: C_3  and  C_6
REMARK    7  A    between atoms: N_8  and  C_9
REMARK    8  A    between atoms: C_16  and  C_17
REMARK    9  A    between atoms: S_22  and  C_25
REMARK                            x       y       z     vdW  Elec       q    Type
REMARK                         _______ _______ _______ _____ _____    ______ ____
ROOT
ATOM      1  C   UNL     1       1.924   8.334  19.496  0.00  0.00    +0.000 C 
ATOM      2  O   UNL     1       1.789   8.149  20.712  0.00  0.00    +0.000 OA
ATOM      3  N   UNL     1       2.644   7.413  18.787  0.00  0.00    +0.000 N 
ATOM      4  H   UNL     1       2.846   7.626  17.816  0.00  0.00    +0.000 HD
ENDROOT
BRANCH   3   5
ATOM      5  C   UNL     1       3.234   6.168  19.315  0.00  0.00    +0.000 C 
ATOM      6  C   UNL     1       2.181   5.029  19.259  0.00  0.00    +0.000 C 
ATOM      7  C   UNL     1       1.865   4.652  17.795  0.00  0.00    +0.000 C 
ATOM      8  C   UNL     1       3.141   4.219  17.066  0.00  0.00    +0.000 C 
ATOM      9  C   UNL     1       4.197   5.333  17.130  0.00  0.00    +0.000 C 
ATOM     10  C   UNL     1       4.521   5.674  18.596  0.00  0.00    +0.000 C 
ATOM     11  C   UNL     1       5.059   4.385  19.283  0.00  0.00    +0.000 C 
ATOM     12  C   UNL     1       4.001   3.256  19.245  0.00  0.00    +0.000 C 
ATOM     13  C   UNL     1       3.660   2.961  17.763  0.00  0.00    +0.000 C 
ATOM     14  C   UNL     1       2.735   3.777  19.971  0.00  0.00    +0.000 C 
BRANCH  12  15
ATOM     15  C   UNL     1       4.488   1.947  19.891  0.00  0.00    +0.000 C 
ATOM     16  N   UNL     1       4.472   0.831  19.120  0.00  0.00    +0.000 N 
ATOM     17  O   UNL     1       4.891   1.868  21.047  0.00  0.00    +0.000 OA
ATOM     18  H   UNL     1       4.802  -0.025  19.547  0.00  0.00    +0.000 HD
ATOM     19  H   UNL     1       4.109   0.800  18.184  0.00  0.00    +0.000 HD
ENDBRANCH  12  15
ENDBRANCH   3   5
BRANCH   1  20
ATOM     20  C   UNL     1       1.102   9.460  18.742  0.00  0.00    +0.000 C 
ATOM     21  C   UNL     1       0.425   8.673  17.565  0.00  0.00    +0.000 C 
ATOM     22  C   UNL     1       2.164  10.423  18.154  0.00  0.00    +0.000 C 
BRANCH  20  24
ATOM     23  C   UNL     1      -1.189  10.555  18.444  0.00  0.00    +0.000 C 
ATOM     24  N   UNL     1      -0.043  10.302  19.398  0.00  0.00    +0.000 NA
BRANCH  24  25
ATOM     25  S   UNL     1       0.347  11.759  20.221  0.00  0.00    +0.000 S 
ATOM     26  O   UNL     1       1.500  11.579  21.060  0.00  0.00    +0.000 OA
ATOM     27  O   UNL     1       0.326  12.825  19.238  0.00  0.00    +0.000 OA
BRANCH  25  28
ATOM     28  C   UNL     1      -0.985  12.087  21.344  0.00  0.00    +0.000 A 
ATOM     29  C   UNL     1      -0.986  11.473  22.608  0.00  0.00    +0.000 A 
ATOM     30  C   UNL     1      -2.110  11.577  23.429  0.00  0.00    +0.000 A 
ATOM     31  C   UNL     1      -3.215  12.298  22.990  0.00  0.00    +0.000 A 
ATOM     32  F   UNL     1      -4.299  12.373  23.775  0.00  0.00    +0.000 F 
ATOM     33  C   UNL     1      -3.206  12.920  21.745  0.00  0.00    +0.000 A 
ATOM     34  F   UNL     1      -4.287  13.597  21.333  0.00  0.00    +0.000 F 
ATOM     35  C   UNL     1      -2.093  12.808  20.914  0.00  0.00    +0.000 A 
ATOM     36  F   UNL     1      -2.120  13.379  19.703  0.00  0.00    +0.000 F 
ENDBRANCH  25  28
ENDBRANCH  24  25
ENDBRANCH  20  24
ENDBRANCH   1  20
TORSDOF 6
ENDMDL
MODEL 3
REMARK VINA RESULT:      -7.8      1.221      1.473
REMARK  Name = 
REMARK  9 active torsions:
REMARK  status: ('A' for Active; 'I' for Inactive)
REMARK    1  A    between atoms: C_1  and  N_2
REMARK    2  A    between atoms: N_2  and  C_3
REMARK    3  A    between atoms: N_2  and  S_22
REMARK    4  A    between atoms: C_3  and  C_4
REMARK    5  A    between atoms: C_3  and  C_5
REMARK    6  A    between atoms: C_3  and  C_6
REMARK    7  A    between atoms: N_8  and  C_9
REMARK    8  A    between atoms: C_16  and  C_17
REMARK    9  A    between atoms: S_22  and  C_25
REMARK                            x       y       z     vdW  Elec       q    Type
REMARK                         _______ _______ _______ _____ _____    ______ ____
ROOT
ATOM      1  C   UNL     1       2.134   8.280  18.448  0.00  0.00    +0.000 C 
ATOM      2  O   UNL     1       3.001   8.198  17.570  0.00  0.00    +0.000 OA
ATOM      3  N   UNL     1       2.016   7.240  19.327  0.00  0.00    +0.000 N 
ATOM      4  H   UNL     1       1.234   7.261  19.973  0.00  0.00    +0.000 HD
ENDROOT
BRANCH   3   5
ATOM      5  C   UNL     1       2.871   6.038  19.381  0.00  0.00    +0.000 C 
ATOM      6  C   UNL     1       2.387   5.105  20.523  0.00  0.00    +0.000 C 
ATOM      7  C   UNL     1       1.001   4.512  20.188  0.00  0.00    +0.000 C 
ATOM      8  C   UNL     1       1.055   3.735  18.869  0.00  0.00    +0.000 C 
ATOM      9  C   UNL     1       1.550   4.646  17.734  0.00  0.00    +0.000 C 
ATOM     10  C   UNL     1       2.944   5.204  18.071  0.00  0.00    +0.000 C 
ATOM     11  C   UNL     1       3.913   3.999  18.254  0.00  0.00    +0.000 C 
ATOM     12  C   UNL     1       3.441   3.080  19.407  0.00  0.00    +0.000 C 
ATOM     13  C   UNL     1       2.020   2.567  19.066  0.00  0.00    +0.000 C 
ATOM     14  C   UNL     1       3.383   3.939  20.695  0.00  0.00    +0.000 C 
BRANCH  12  15
ATOM     15  C   UNL     1       4.352   1.859  19.619  0.00  0.00    +0.000 C 
ATOM     16  N   UNL     1       4.299   0.875  18.685  0.00  0.00    +0.000 N 
ATOM     17  O   UNL     1       5.116   1.737  20.571  0.00  0.00    +0.000 OA
ATOM     18  H   UNL     1       4.906   0.078  18.825  0.00  0.00    +0.000 HD
ATOM     19  H   UNL     1       3.664   0.874  17.907  0.00  0.00    +0.000 HD
ENDBRANCH  12  15
ENDBRANCH   3   5
BRANCH   1  20
ATOM     20  C   UNL     1       1.345   9.632  18.698  0.00  0.00    +0.000 C 
ATOM     21  C   UNL     1       0.046   9.446  17.838  0.00  0.00    +0.000 C 
ATOM     22  C   UNL     1       2.215  10.742  18.058  0.00  0.00    +0.000 C 
BRANCH  20  24
ATOM     23  C   UNL     1      -0.354   9.343  20.587  0.00  0.00    +0.000 C 
ATOM     24  N   UNL     1       0.853  10.117  20.103  0.00  0.00    +0.000 NA
BRANCH  24  25
ATOM     25  S   UNL     1       0.603  11.795  20.376  0.00  0.00    +0.000 S 
ATOM     26  O   UNL     1       1.392  12.256  21.484  0.00  0.00    +0.000 OA
ATOM     27  O   UNL     1       0.704  12.457  19.089  0.00  0.00    +0.000 OA
BRANCH  25  28
ATOM     28  C   UNL     1      -1.079  11.984  20.906  0.00  0.00    +0.000 A 
ATOM     29  C   UNL     1      -2.033  12.479  20.001  0.00  0.00    +0.000 A 
ATOM     30  C   UNL     1      -3.314  12.803  20.451  0.00  0.00    +0.000 A 
ATOM     31  C   UNL     1      -3.635  12.620  21.792  0.00  0.00    +0.000 A 
ATOM     32  F   UNL     1      -4.861  12.955  22.221  0.00  0.00    +0.000 F 
ATOM     33  C   UNL     1      -2.695  12.113  22.683  0.00  0.00    +0.000 A 
ATOM     34  F   UNL     1      -3.018  11.959  23.975  0.00  0.00    +0.000 F 
ATOM     35  C   UNL     1      -1.409  11.802  22.244  0.00  0.00    +0.000 A 
ATOM     36  F   UNL     1      -0.506  11.354  23.125  0.00  0.00    +0.000 F 
ENDBRANCH  25  28
ENDBRANCH  24  25
ENDBRANCH  20  24
ENDBRANCH   1  20
TORSDOF 6
ENDMDL
MODEL 4
REMARK VINA RESULT:      -7.7      1.195      1.689
REMARK  Name = 
REMARK  9 active torsions:
REMARK  status: ('A' for Active; 'I' for Inactive)
REMARK    1  A    between atoms: C_1  and  N_2
REMARK    2  A    between atoms: N_2  and  C_3
REMARK    3  A    between atoms: N_2  and  S_22
REMARK    4  A    between atoms: C_3  and  C_4
REMARK    5  A    between atoms: C_3  and  C_5
REMARK    6  A    between atoms: C_3  and  C_6
REMARK    7  A    between atoms: N_8  and  C_9
REMARK    8  A    between atoms: C_16  and  C_17
REMARK    9  A    between atoms: S_22  and  C_25
REMARK                            x       y       z     vdW  Elec       q    Type
REMARK                         _______ _______ _______ _____ _____    ______ ____
ROOT
ATOM      1  C   UNL     1       1.569   8.343  19.941  0.00  0.00    +0.000 C 
ATOM      2  O   UNL     1       1.392   8.025  21.123  0.00  0.00    +0.000 OA
ATOM      3  N   UNL     1       2.377   7.546  19.180  0.00  0.00    +0.000 N 
ATOM      4  H   UNL     1       2.608   7.871  18.247  0.00  0.00    +0.000 HD
ENDROOT
BRANCH   3   5
ATOM      5  C   UNL     1       3.020   6.289  19.608  0.00  0.00    +0.000 C 
ATOM      6  C   UNL     1       2.009   5.118  19.483  0.00  0.00    +0.000 C 
ATOM      7  C   UNL     1       1.685   4.837  17.999  0.00  0.00    +0.000 C 
ATOM      8  C   UNL     1       2.964   4.506  17.224  0.00  0.00    +0.000 C 
ATOM      9  C   UNL     1       3.979   5.652  17.356  0.00  0.00    +0.000 C 
ATOM     10  C   UNL     1       4.313   5.898  18.837  0.00  0.00    +0.000 C 
ATOM     11  C   UNL     1       4.910   4.584  19.422  0.00  0.00    +0.000 C 
ATOM     12  C   UNL     1       3.894   3.421  19.315  0.00  0.00    +0.000 C 
ATOM     13  C   UNL     1       3.540   3.222  17.820  0.00  0.00    +0.000 C 
ATOM     14  C   UNL     1       2.621   3.840  20.094  0.00  0.00    +0.000 C 
BRANCH  12  15
ATOM     15  C   UNL     1       4.438   2.089  19.858  0.00  0.00    +0.000 C 
ATOM     16  N   UNL     1       4.427   1.024  19.016  0.00  0.00    +0.000 N 
ATOM     17  O   UNL     1       4.883   1.946  20.993  0.00  0.00    +0.000 OA
ATOM     18  H   UNL     1       4.795   0.153  19.375  0.00  0.00    +0.000 HD
ATOM     19  H   UNL     1       4.033   1.044  18.092  0.00  0.00    +0.000 HD
ENDBRANCH  12  15
ENDBRANCH   3   5
BRANCH   1  20
ATOM     20  C   UNL     1       0.711   9.493  19.264  0.00  0.00    +0.000 C 
ATOM     21  C   UNL     1      -0.735   9.220  19.811  0.00  0.00    +0.000 C 
ATOM     22  C   UNL     1       0.737   9.188  17.746  0.00  0.00    +0.000 C 
BRANCH  20  24
ATOM     23  C   UNL     1       2.103  11.544  18.639  0.00  0.00    +0.000 C 
ATOM     24  N   UNL     1       0.962  11.022  19.483  0.00  0.00    +0.000 NA
BRANCH  24  25
ATOM     25  S   UNL     1       1.109  11.632  21.083  0.00  0.00    +0.000 S 
ATOM     26  O   UNL     1       1.492  10.590  21.994  0.00  0.00    +0.000 OA
ATOM     27  O   UNL     1       1.891  12.851  21.005  0.00  0.00    +0.000 OA
BRANCH  25  28
ATOM     28  C   UNL     1      -0.518  12.113  21.600  0.00  0.00    +0.000 A 
ATOM     29  C   UNL     1      -1.013  11.648  22.830  0.00  0.00    +0.000 A 
ATOM     30  C   UNL     1      -2.349  11.868  23.168  0.00  0.00    +0.000 A 
ATOM     31  C   UNL     1      -3.175  12.556  22.284  0.00  0.00    +0.000 A 
ATOM     32  F   UNL     1      -4.463  12.742  22.607  0.00  0.00    +0.000 F 
ATOM     33  C   UNL     1      -2.678  13.031  21.075  0.00  0.00    +0.000 A 
ATOM     34  F   UNL     1      -3.493  13.677  20.230  0.00  0.00    +0.000 F 
ATOM     35  C   UNL     1      -1.349  12.802  20.724  0.00  0.00    +0.000 A 
ATOM     36  F   UNL     1      -0.901  13.231  19.538  0.00  0.00    +0.000 F 
ENDBRANCH  25  28
ENDBRANCH  24  25
ENDBRANCH  20  24
ENDBRANCH   1  20
TORSDOF 6
ENDMDL
MODEL 5
REMARK VINA RESULT:      -7.7      2.771      3.681
REMARK  Name = 
REMARK  9 active torsions:
REMARK  status: ('A' for Active; 'I' for Inactive)
REMARK    1  A    between atoms: C_1  and  N_2
REMARK    2  A    between atoms: N_2  and  C_3
REMARK    3  A    between atoms: N_2  and  S_22
REMARK    4  A    between atoms: C_3  and  C_4
REMARK    5  A    between atoms: C_3  and  C_5
REMARK    6  A    between atoms: C_3  and  C_6
REMARK    7  A    between atoms: N_8  and  C_9
REMARK    8  A    between atoms: C_16  and  C_17
REMARK    9  A    between atoms: S_22  and  C_25
REMARK                            x       y       z     vdW  Elec       q    Type
REMARK                         _______ _______ _______ _____ _____    ______ ____
ROOT
ATOM      1  C   UNL     1       1.647   7.750  20.531  0.00  0.00    +0.000 C 
ATOM      2  O   UNL     1       2.577   8.039  19.767  0.00  0.00    +0.000 OA
ATOM      3  N   UNL     1       1.557   6.457  20.964  0.00  0.00    +0.000 N 
ATOM      4  H   UNL     1       0.733   6.201  21.498  0.00  0.00    +0.000 HD
ENDROOT
BRANCH   3   5
ATOM      5  C   UNL     1       2.503   5.366  20.666  0.00  0.00    +0.000 C 
ATOM      6  C   UNL     1       1.928   4.021  21.186  0.00  0.00    +0.000 C 
ATOM      7  C   UNL     1       0.682   3.612  20.370  0.00  0.00    +0.000 C 
ATOM      8  C   UNL     1       1.031   3.490  18.883  0.00  0.00    +0.000 C 
ATOM      9  C   UNL     1       1.618   4.811  18.362  0.00  0.00    +0.000 C 
ATOM     10  C   UNL     1       2.875   5.187  19.166  0.00  0.00    +0.000 C 
ATOM     11  C   UNL     1       3.913   4.038  19.003  0.00  0.00    +0.000 C 
ATOM     12  C   UNL     1       3.346   2.701  19.541  0.00  0.00    +0.000 C 
ATOM     13  C   UNL     1       2.058   2.367  18.747  0.00  0.00    +0.000 C 
ATOM     14  C   UNL     1       2.990   2.911  21.034  0.00  0.00    +0.000 C 
BRANCH  12  15
ATOM     15  C   UNL     1       4.322   1.523  19.384  0.00  0.00    +0.000 C 
ATOM     16  N   UNL     1       4.164   0.726  18.297  0.00  0.00    +0.000 N 
ATOM     17  O   UNL     1       5.227   1.278  20.176  0.00  0.00    +0.000 OA
ATOM     18  H   UNL     1       4.815  -0.043  18.195  0.00  0.00    +0.000 HD
ATOM     19  H   UNL     1       3.419   0.826  17.632  0.00  0.00    +0.000 HD
ENDBRANCH  12  15
ENDBRANCH   3   5
BRANCH   1  20
ATOM     20  C   UNL     1       0.733   8.876  21.172  0.00  0.00    +0.000 C 
ATOM     21  C   UNL     1       1.231   8.928  22.660  0.00  0.00    +0.000 C 
ATOM     22  C   UNL     1      -0.706   8.304  21.145  0.00  0.00    +0.000 C 
BRANCH  20  24
ATOM     23  C   UNL     1      -0.014  11.271  21.666  0.00  0.00    +0.000 C 
ATOM     24  N   UNL     1       0.700  10.364  20.688  0.00  0.00    +0.000 NA
BRANCH  24  25
ATOM     25  S   UNL     1       0.175  10.719  19.091  0.00  0.00    +0.000 S 
ATOM     26  O   UNL     1       0.801   9.843  18.140  0.00  0.00    +0.000 OA
ATOM     27  O   UNL     1      -1.272  10.830  19.131  0.00  0.00    +0.000 OA
BRANCH  25  28
ATOM     28  C   UNL     1       0.790  12.335  18.695  0.00  0.00    +0.000 A 
ATOM     29  C   UNL     1       2.151  12.496  18.389  0.00  0.00    +0.000 A 
ATOM     30  C   UNL     1       2.685  13.778  18.252  0.00  0.00    +0.000 A 
ATOM     31  C   UNL     1       1.858  14.885  18.413  0.00  0.00    +0.000 A 
ATOM     32  F   UNL     1       2.384  16.113  18.303  0.00  0.00    +0.000 F 
ATOM     33  C   UNL     1       0.506  14.724  18.699  0.00  0.00    +0.000 A 
ATOM     34  F   UNL     1      -0.271  15.803  18.866  0.00  0.00    +0.000 F 
ATOM     35  C   UNL     1      -0.031  13.447  18.851  0.00  0.00    +0.000 A 
ATOM     36  F   UNL     1      -1.325  13.313  19.168  0.00  0.00    +0.000 F 
ENDBRANCH  25  28
ENDBRANCH  24  25
ENDBRANCH  20  24
ENDBRANCH   1  20
TORSDOF 6
ENDMDL
MODEL 6
REMARK VINA RESULT:      -7.5      2.978      3.659
REMARK  Name = 
REMARK  9 active torsions:
REMARK  status: ('A' for Active; 'I' for Inactive)
REMARK    1  A    between atoms: C_1  and  N_2
REMARK    2  A    between atoms: N_2  and  C_3
REMARK    3  A    between atoms: N_2  and  S_22
REMARK    4  A    between atoms: C_3  and  C_4
REMARK    5  A    between atoms: C_3  and  C_5
REMARK    6  A    between atoms: C_3  and  C_6
REMARK    7  A    between atoms: N_8  and  C_9
REMARK    8  A    between atoms: C_16  and  C_17
REMARK    9  A    between atoms: S_22  and  C_25
REMARK                            x       y       z     vdW  Elec       q    Type
REMARK                         _______ _______ _______ _____ _____    ______ ____
ROOT
ATOM      1  C   UNL     1       1.705   8.282  20.127  0.00  0.00    +0.000 C 
ATOM      2  O   UNL     1       1.607   7.944  21.313  0.00  0.00    +0.000 OA
ATOM      3  N   UNL     1       2.417   7.469  19.290  0.00  0.00    +0.000 N 
ATOM      4  H   UNL     1       2.588   7.805  18.348  0.00  0.00    +0.000 HD
ENDROOT
BRANCH   3   5
ATOM      5  C   UNL     1       3.037   6.177  19.641  0.00  0.00    +0.000 C 
ATOM      6  C   UNL     1       2.027   5.027  19.384  0.00  0.00    +0.000 C 
ATOM      7  C   UNL     1       1.761   4.867  17.870  0.00  0.00    +0.000 C 
ATOM      8  C   UNL     1       3.069   4.589  17.123  0.00  0.00    +0.000 C 
ATOM      9  C   UNL     1       4.083   5.713  17.386  0.00  0.00    +0.000 C 
ATOM     10  C   UNL     1       4.358   5.838  18.895  0.00  0.00    +0.000 C 
ATOM     11  C   UNL     1       4.925   4.478  19.396  0.00  0.00    +0.000 C 
ATOM     12  C   UNL     1       3.909   3.334  19.157  0.00  0.00    +0.000 C 
ATOM     13  C   UNL     1       3.614   3.257  17.638  0.00  0.00    +0.000 C 
ATOM     14  C   UNL     1       2.607   3.700  19.915  0.00  0.00    +0.000 C 
BRANCH  12  15
ATOM     15  C   UNL     1       4.425   1.959  19.614  0.00  0.00    +0.000 C 
ATOM     16  N   UNL     1       4.221   0.911  18.777  0.00  0.00    +0.000 N 
ATOM     17  O   UNL     1       5.010   1.770  20.675  0.00  0.00    +0.000 OA
ATOM     18  H   UNL     1       4.571   0.010  19.078  0.00  0.00    +0.000 HD
ATOM     19  H   UNL     1       3.706   0.971  17.916  0.00  0.00    +0.000 HD
ENDBRANCH  12  15
ENDBRANCH   3   5
BRANCH   1  20
ATOM     20  C   UNL     1       0.848   9.480  19.542  0.00  0.00    +0.000 C 
ATOM     21  C   UNL     1      -0.623   9.070  19.904  0.00  0.00    +0.000 C 
ATOM     22  C   UNL     1       1.025   9.403  18.005  0.00  0.00    +0.000 C 
BRANCH  20  24
ATOM     23  C   UNL     1       1.035  11.110  21.503  0.00  0.00    +0.000 C 
ATOM     24  N   UNL     1       0.993  10.971  19.997  0.00  0.00    +0.000 NA
BRANCH  24  25
ATOM     25  S   UNL     1      -0.062  12.159  19.343  0.00  0.00    +0.000 S 
ATOM     26  O   UNL     1      -0.478  11.798  18.016  0.00  0.00    +0.000 OA
ATOM     27  O   UNL     1      -1.055  12.456  20.358  0.00  0.00    +0.000 OA
BRANCH  25  28
ATOM     28  C   UNL     1       0.897  13.636  19.133  0.00  0.00    +0.000 A 
ATOM     29  C   UNL     1       0.362  14.867  19.548  0.00  0.00    +0.000 A 
ATOM     30  C   UNL     1       1.022  16.054  19.228  0.00  0.00    +0.000 A 
ATOM     31  C   UNL     1       2.211  16.004  18.508  0.00  0.00    +0.000 A 
ATOM     32  F   UNL     1       2.827  17.150  18.185  0.00  0.00    +0.000 F 
ATOM     33  C   UNL     1       2.749  14.783  18.113  0.00  0.00    +0.000 A 
ATOM     34  F   UNL     1       3.888  14.756  17.407  0.00  0.00    +0.000 F 
ATOM     35  C   UNL     1       2.088  13.595  18.416  0.00  0.00    +0.000 A 
ATOM     36  F   UNL     1       2.600  12.433  17.991  0.00  0.00    +0.000 F 
ENDBRANCH  25  28
ENDBRANCH  24  25
ENDBRANCH  20  24
ENDBRANCH   1  20
TORSDOF 6
ENDMDL
MODEL 7
REMARK VINA RESULT:      -7.5      1.508      1.872
REMARK  Name = 
REMARK  9 active torsions:
REMARK  status: ('A' for Active; 'I' for Inactive)
REMARK    1  A    between atoms: C_1  and  N_2
REMARK    2  A    between atoms: N_2  and  C_3
REMARK    3  A    between atoms: N_2  and  S_22
REMARK    4  A    between atoms: C_3  and  C_4
REMARK    5  A    between atoms: C_3  and  C_5
REMARK    6  A    between atoms: C_3  and  C_6
REMARK    7  A    between atoms: N_8  and  C_9
REMARK    8  A    between atoms: C_16  and  C_17
REMARK    9  A    between atoms: S_22  and  C_25
REMARK                            x       y       z     vdW  Elec       q    Type
REMARK                         _______ _______ _______ _____ _____    ______ ____
ROOT
ATOM      1  C   UNL     1       2.174   8.351  18.421  0.00  0.00    +0.000 C 
ATOM      2  O   UNL     1       3.085   8.290  17.586  0.00  0.00    +0.000 OA
ATOM      3  N   UNL     1       2.012   7.290  19.267  0.00  0.00    +0.000 N 
ATOM      4  H   UNL     1       1.198   7.297  19.873  0.00  0.00    +0.000 HD
ENDROOT
BRANCH   3   5
ATOM      5  C   UNL     1       2.863   6.087  19.335  0.00  0.00    +0.000 C 
ATOM      6  C   UNL     1       2.369   5.164  20.481  0.00  0.00    +0.000 C 
ATOM      7  C   UNL     1       0.983   4.572  20.141  0.00  0.00    +0.000 C 
ATOM      8  C   UNL     1       1.043   3.786  18.828  0.00  0.00    +0.000 C 
ATOM      9  C   UNL     1       1.548   4.686  17.689  0.00  0.00    +0.000 C 
ATOM     10  C   UNL     1       2.941   5.243  18.031  0.00  0.00    +0.000 C 
ATOM     11  C   UNL     1       3.906   4.037  18.229  0.00  0.00    +0.000 C 
ATOM     12  C   UNL     1       3.424   3.128  19.385  0.00  0.00    +0.000 C 
ATOM     13  C   UNL     1       2.003   2.616  19.039  0.00  0.00    +0.000 C 
ATOM     14  C   UNL     1       3.360   3.996  20.667  0.00  0.00    +0.000 C 
BRANCH  12  15
ATOM     15  C   UNL     1       4.329   1.905  19.613  0.00  0.00    +0.000 C 
ATOM     16  N   UNL     1       4.260   0.903  18.699  0.00  0.00    +0.000 N 
ATOM     17  O   UNL     1       5.104   1.797  20.558  0.00  0.00    +0.000 OA
ATOM     18  H   UNL     1       4.864   0.105  18.849  0.00  0.00    +0.000 HD
ATOM     19  H   UNL     1       3.616   0.890  17.929  0.00  0.00    +0.000 HD
ENDBRANCH  12  15
ENDBRANCH   3   5
BRANCH   1  20
ATOM     20  C   UNL     1       1.374   9.699  18.664  0.00  0.00    +0.000 C 
ATOM     21  C   UNL     1       0.027   9.450  17.897  0.00  0.00    +0.000 C 
ATOM     22  C   UNL     1       2.177  10.796  17.922  0.00  0.00    +0.000 C 
BRANCH  20  24
ATOM     23  C   UNL     1      -0.311   9.593  20.584  0.00  0.00    +0.000 C 
ATOM     24  N   UNL     1       0.961  10.235  20.075  0.00  0.00    +0.000 NA
BRANCH  24  25
ATOM     25  S   UNL     1       0.894  11.930  20.346  0.00  0.00    +0.000 S 
ATOM     26  O   UNL     1       1.866  12.330  21.325  0.00  0.00    +0.000 OA
ATOM     27  O   UNL     1       0.870  12.571  19.044  0.00  0.00    +0.000 OA
BRANCH  25  28
ATOM     28  C   UNL     1      -0.676  12.268  21.099  0.00  0.00    +0.000 A 
ATOM     29  C   UNL     1      -0.787  12.241  22.499  0.00  0.00    +0.000 A 
ATOM     30  C   UNL     1      -2.045  12.326  23.098  0.00  0.00    +0.000 A 
ATOM     31  C   UNL     1      -3.176  12.448  22.298  0.00  0.00    +0.000 A 
ATOM     32  F   UNL     1      -4.383  12.506  22.881  0.00  0.00    +0.000 F 
ATOM     33  C   UNL     1      -3.063  12.493  20.912  0.00  0.00    +0.000 A 
ATOM     34  F   UNL     1      -4.167  12.594  20.158  0.00  0.00    +0.000 F 
ATOM     35  C   UNL     1      -1.812  12.394  20.307  0.00  0.00    +0.000 A 
ATOM     36  F   UNL     1      -1.728  12.397  18.971  0.00  0.00    +0.000 F 
ENDBRANCH  25  28
ENDBRANCH  24  25
ENDBRANCH  20  24
ENDBRANCH   1  20
TORSDOF 6
ENDMDL
MODEL 8
REMARK VINA RESULT:      -7.4      1.385      1.893
REMARK  Name = 
REMARK  9 active torsions:
REMARK  status: ('A' for Active; 'I' for Inactive)
REMARK    1  A    between atoms: C_1  and  N_2
REMARK    2  A    between atoms: N_2  and  C_3
REMARK    3  A    between atoms: N_2  and  S_22
REMARK    4  A    between atoms: C_3  and  C_4
REMARK    5  A    between atoms: C_3  and  C_5
REMARK    6  A    between atoms: C_3  and  C_6
REMARK    7  A    between atoms: N_8  and  C_9
REMARK    8  A    between atoms: C_16  and  C_17
REMARK    9  A    between atoms: S_22  and  C_25
REMARK                            x       y       z     vdW  Elec       q    Type
REMARK                         _______ _______ _______ _____ _____    ______ ____
ROOT
ATOM      1  C   UNL     1       1.642   7.725  20.226  0.00  0.00    +0.000 C 
ATOM      2  O   UNL     1       2.554   7.942  19.418  0.00  0.00    +0.000 OA
ATOM      3  N   UNL     1       1.579   6.486  20.799  0.00  0.00    +0.000 N 
ATOM      4  H   UNL     1       0.769   6.278  21.373  0.00  0.00    +0.000 HD
ENDROOT
BRANCH   3   5
ATOM      5  C   UNL     1       2.536   5.380  20.602  0.00  0.00    +0.000 C 
ATOM      6  C   UNL     1       1.936   4.065  21.166  0.00  0.00    +0.000 C 
ATOM      7  C   UNL     1       0.727   3.612  20.318  0.00  0.00    +0.000 C 
ATOM      8  C   UNL     1       1.142   3.411  18.857  0.00  0.00    +0.000 C 
ATOM      9  C   UNL     1       1.754   4.703  18.293  0.00  0.00    +0.000 C 
ATOM     10  C   UNL     1       2.974   5.122  19.132  0.00  0.00    +0.000 C 
ATOM     11  C   UNL     1       4.017   3.967  19.078  0.00  0.00    +0.000 C 
ATOM     12  C   UNL     1       3.424   2.660  19.659  0.00  0.00    +0.000 C 
ATOM     13  C   UNL     1       2.173   2.283  18.827  0.00  0.00    +0.000 C 
ATOM     14  C   UNL     1       3.001   2.949  21.122  0.00  0.00    +0.000 C 
BRANCH  12  15
ATOM     15  C   UNL     1       4.405   1.476  19.610  0.00  0.00    +0.000 C 
ATOM     16  N   UNL     1       4.301   0.628  18.556  0.00  0.00    +0.000 N 
ATOM     17  O   UNL     1       5.267   1.270  20.458  0.00  0.00    +0.000 OA
ATOM     18  H   UNL     1       4.954  -0.145  18.524  0.00  0.00    +0.000 HD
ATOM     19  H   UNL     1       3.590   0.695  17.849  0.00  0.00    +0.000 HD
ENDBRANCH  12  15
ENDBRANCH   3   5
BRANCH   1  20
ATOM     20  C   UNL     1       0.723   8.902  20.759  0.00  0.00    +0.000 C 
ATOM     21  C   UNL     1       1.610   9.564  21.873  0.00  0.00    +0.000 C 
ATOM     22  C   UNL     1      -0.488   8.208  21.431  0.00  0.00    +0.000 C 
BRANCH  20  24
ATOM     23  C   UNL     1       0.848  10.101  18.505  0.00  0.00    +0.000 C 
ATOM     24  N   UNL     1       0.207  10.085  19.875  0.00  0.00    +0.000 NA
BRANCH  24  25
ATOM     25  S   UNL     1       0.198  11.678  20.519  0.00  0.00    +0.000 S 
ATOM     26  O   UNL     1       1.044  11.765  21.677  0.00  0.00    +0.000 OA
ATOM     27  O   UNL     1       0.393  12.590  19.408  0.00  0.00    +0.000 OA
BRANCH  25  28
ATOM     28  C   UNL     1      -1.440  11.975  21.130  0.00  0.00    +0.000 A 
ATOM     29  C   UNL     1      -2.384  12.592  20.293  0.00  0.00    +0.000 A 
ATOM     30  C   UNL     1      -3.616  12.995  20.813  0.00  0.00    +0.000 A 
ATOM     31  C   UNL     1      -3.898  12.770  22.156  0.00  0.00    +0.000 A 
ATOM     32  F   UNL     1      -5.074  13.180  22.653  0.00  0.00    +0.000 F 
ATOM     33  C   UNL     1      -2.969  12.143  22.980  0.00  0.00    +0.000 A 
ATOM     34  F   UNL     1      -3.253  11.949  24.275  0.00  0.00    +0.000 F 
ATOM     35  C   UNL     1      -1.732  11.751  22.471  0.00  0.00    +0.000 A 
ATOM     36  F   UNL     1      -0.835  11.187  23.290  0.00  0.00    +0.000 F 
ENDBRANCH  25  28
ENDBRANCH  24  25
ENDBRANCH  20  24
ENDBRANCH   1  20
TORSDOF 6
ENDMDL
MODEL 9
REMARK VINA RESULT:      -7.4      2.926      3.708
REMARK  Name = 
REMARK  9 active torsions:
REMARK  status: ('A' for Active; 'I' for Inactive)
REMARK    1  A    between atoms: C_1  and  N_2
REMARK    2  A    between atoms: N_2  and  C_3
REMARK    3  A    between atoms: N_2  and  S_22
REMARK    4  A    between atoms: C_3  and  C_4
REMARK    5  A    between atoms: C_3  and  C_5
REMARK    6  A    between atoms: C_3  and  C_6
REMARK    7  A    between atoms: N_8  and  C_9
REMARK    8  A    between atoms: C_16  and  C_17
REMARK    9  A    between atoms: S_22  and  C_25
REMARK                            x       y       z     vdW  Elec       q    Type
REMARK                         _______ _______ _______ _____ _____    ______ ____
ROOT
ATOM      1  C   UNL     1       1.650   8.242  20.105  0.00  0.00    +0.000 C 
ATOM      2  O   UNL     1       1.424   7.822  21.247  0.00  0.00    +0.000 OA
ATOM      3  N   UNL     1       2.471   7.500  19.304  0.00  0.00    +0.000 N 
ATOM      4  H   UNL     1       2.742   7.903  18.413  0.00  0.00    +0.000 HD
ENDROOT
BRANCH   3   5
ATOM      5  C   UNL     1       3.076   6.196  19.637  0.00  0.00    +0.000 C 
ATOM      6  C   UNL     1       2.051   5.062  19.367  0.00  0.00    +0.000 C 
ATOM      7  C   UNL     1       1.780   4.925  17.852  0.00  0.00    +0.000 C 
ATOM      8  C   UNL     1       3.083   4.640  17.098  0.00  0.00    +0.000 C 
ATOM      9  C   UNL     1       4.112   5.749  17.373  0.00  0.00    +0.000 C 
ATOM     10  C   UNL     1       4.391   5.850  18.883  0.00  0.00    +0.000 C 
ATOM     11  C   UNL     1       4.942   4.476  19.365  0.00  0.00    +0.000 C 
ATOM     12  C   UNL     1       3.911   3.349  19.114  0.00  0.00    +0.000 C 
ATOM     13  C   UNL     1       3.612   3.295  17.594  0.00  0.00    +0.000 C 
ATOM     14  C   UNL     1       2.616   3.721  19.879  0.00  0.00    +0.000 C 
BRANCH  12  15
ATOM     15  C   UNL     1       4.410   1.962  19.551  0.00  0.00    +0.000 C 
ATOM     16  N   UNL     1       4.177   0.924  18.708  0.00  0.00    +0.000 N 
ATOM     17  O   UNL     1       5.008   1.753  20.602  0.00  0.00    +0.000 OA
ATOM     18  H   UNL     1       4.516   0.015  18.996  0.00  0.00    +0.000 HD
ATOM     19  H   UNL     1       3.651   1.000  17.856  0.00  0.00    +0.000 HD
ENDBRANCH  12  15
ENDBRANCH   3   5
BRANCH   1  20
ATOM     20  C   UNL     1       0.839   9.466  19.507  0.00  0.00    +0.000 C 
ATOM     21  C   UNL     1      -0.642   9.138  19.911  0.00  0.00    +0.000 C 
ATOM     22  C   UNL     1       0.977   9.341  17.969  0.00  0.00    +0.000 C 
BRANCH  20  24
ATOM     23  C   UNL     1       1.203  11.126  21.417  0.00  0.00    +0.000 C 
ATOM     24  N   UNL     1       1.066  10.958  19.920  0.00  0.00    +0.000 NA
BRANCH  24  25
ATOM     25  S   UNL     1       0.018  12.173  19.303  0.00  0.00    +0.000 S 
ATOM     26  O   UNL     1      -0.655  11.713  18.120  0.00  0.00    +0.000 OA
ATOM     27  O   UNL     1      -0.751  12.684  20.422  0.00  0.00    +0.000 OA
BRANCH  25  28
ATOM     28  C   UNL     1       1.047  13.507  18.751  0.00  0.00    +0.000 A 
ATOM     29  C   UNL     1       2.396  13.255  18.448  0.00  0.00    +0.000 A 
ATOM     30  C   UNL     1       3.260  14.320  18.188  0.00  0.00    +0.000 A 
ATOM     31  C   UNL     1       2.771  15.622  18.221  0.00  0.00    +0.000 A 
ATOM     32  F   UNL     1       3.612  16.640  17.992  0.00  0.00    +0.000 F 
ATOM     33  C   UNL     1       1.431  15.869  18.503  0.00  0.00    +0.000 A 
ATOM     34  F   UNL     1       0.983  17.131  18.547  0.00  0.00    +0.000 F 
ATOM     35  C   UNL     1       0.566  14.811  18.779  0.00  0.00    +0.000 A 
ATOM     36  F   UNL     1      -0.710  15.072  19.090  0.00  0.00    +0.000 F 
ENDBRANCH  25  28
ENDBRANCH  24  25
ENDBRANCH  20  24
ENDBRANCH   1  20
TORSDOF 6
ENDMDL
