MODEL 1
REMARK VINA RESULT:      -7.5      0.000      0.000
REMARK  Name = 
REMARK  1 active torsions:
REMARK  status: ('A' for Active; 'I' for Inactive)
REMARK    1  A    between atoms: C_7  and  N_8
REMARK                            x       y       z     vdW  Elec       q    Type
REMARK                         _______ _______ _______ _____ _____    ______ ____
ROOT
ATOM      1  N   UNL     1       4.972   4.512  18.995  0.00  0.00    +0.000 N 
ATOM      2  N   UNL     1       6.059   4.875  19.730  0.00  0.00    +0.000 NA
ATOM      3  N   UNL     1       7.110   4.978  18.926  0.00  0.00    +0.000 NA
ATOM      4  C   UNL     1       6.693   4.707  17.658  0.00  0.00    +0.000 A 
ATOM      5  C   UNL     1       7.371   4.713  16.433  0.00  0.00    +0.000 A 
ATOM      6  C   UNL     1       6.623   4.430  15.290  0.00  0.00    +0.000 A 
ATOM      7  C   UNL     1       5.268   4.144  15.419  0.00  0.00    +0.000 A 
ATOM      8  N   UNL     1       4.574   4.101  16.581  0.00  0.00    +0.000 NA
ATOM      9  C   UNL     1       5.341   4.392  17.661  0.00  0.00    +0.000 A 
ENDROOT
BRANCH   1  16
ATOM     10 BR   UNL     1       2.679   6.859  18.772  0.00  0.00    +0.000 Br
ATOM     11  C   UNL     1       2.676   5.171  19.653  0.00  0.00    +0.000 A 
ATOM     12  C   UNL     1       1.475   4.836  20.295  0.00  0.00    +0.000 A 
ATOM     13  C   UNL     1       1.303   3.582  20.881  0.00  0.00    +0.000 A 
ATOM     14  C   UNL     1       2.326   2.643  20.815  0.00  0.00    +0.000 A 
ATOM     15  C   UNL     1       3.522   2.958  20.166  0.00  0.00    +0.000 A 
ATOM     16  C   UNL     1       3.716   4.229  19.591  0.00  0.00    +0.000 A 
ENDBRANCH   1  16
TORSDOF 1
ENDMDL
MODEL 2
REMARK VINA RESULT:      -7.3      1.465      1.812
REMARK  Name = 
REMARK  1 active torsions:
REMARK  status: ('A' for Active; 'I' for Inactive)
REMARK    1  A    between atoms: C_7  and  N_8
REMARK                            x       y       z     vdW  Elec       q    Type
REMARK                         _______ _______ _______ _____ _____    ______ ____
ROOT
ATOM      1  N   UNL     1       4.890   4.536  18.853  0.00  0.00    +0.000 N 
ATOM      2  N   UNL     1       5.974   4.720  19.656  0.00  0.00    +0.000 NA
ATOM      3  N   UNL     1       7.066   4.773  18.904  0.00  0.00    +0.000 NA
ATOM      4  C   UNL     1       6.682   4.650  17.603  0.00  0.00    +0.000 A 
ATOM      5  C   UNL     1       7.414   4.679  16.409  0.00  0.00    +0.000 A 
ATOM      6  C   UNL     1       6.694   4.568  15.219  0.00  0.00    +0.000 A 
ATOM      7  C   UNL     1       5.312   4.421  15.273  0.00  0.00    +0.000 A 
ATOM      8  N   UNL     1       4.565   4.362  16.400  0.00  0.00    +0.000 NA
ATOM      9  C   UNL     1       5.306   4.482  17.529  0.00  0.00    +0.000 A 
ENDROOT
BRANCH   1  16
ATOM     10 BR   UNL     1       3.620   1.517  18.557  0.00  0.00    +0.000 Br
ATOM     11  C   UNL     1       2.883   3.135  19.239  0.00  0.00    +0.000 A 
ATOM     12  C   UNL     1       1.579   3.030  19.744  0.00  0.00    +0.000 A 
ATOM     13  C   UNL     1       0.967   4.114  20.374  0.00  0.00    +0.000 A 
ATOM     14  C   UNL     1       1.661   5.310  20.520  0.00  0.00    +0.000 A 
ATOM     15  C   UNL     1       2.965   5.424  20.034  0.00  0.00    +0.000 A 
ATOM     16  C   UNL     1       3.586   4.344  19.376  0.00  0.00    +0.000 A 
ENDBRANCH   1  16
TORSDOF 1
ENDMDL
MODEL 3
REMARK VINA RESULT:      -7.1      1.997      2.855
REMARK  Name = 
REMARK  1 active torsions:
REMARK  status: ('A' for Active; 'I' for Inactive)
REMARK    1  A    between atoms: C_7  and  N_8
REMARK                            x       y       z     vdW  Elec       q    Type
REMARK                         _______ _______ _______ _____ _____    ______ ____
ROOT
ATOM      1  N   UNL     1       4.597   5.310  17.436  0.00  0.00    +0.000 N 
ATOM      2  N   UNL     1       4.551   6.026  16.279  0.00  0.00    +0.000 NA
ATOM      3  N   UNL     1       5.631   6.794  16.202  0.00  0.00    +0.000 NA
ATOM      4  C   UNL     1       6.393   6.552  17.305  0.00  0.00    +0.000 A 
ATOM      5  C   UNL     1       7.639   7.052  17.704  0.00  0.00    +0.000 A 
ATOM      6  C   UNL     1       8.175   6.552  18.890  0.00  0.00    +0.000 A 
ATOM      7  C   UNL     1       7.454   5.609  19.616  0.00  0.00    +0.000 A 
ATOM      8  N   UNL     1       6.238   5.115  19.285  0.00  0.00    +0.000 NA
ATOM      9  C   UNL     1       5.763   5.624  18.122  0.00  0.00    +0.000 A 
ENDROOT
BRANCH   1  16
ATOM     10 BR   UNL     1       2.394   6.626  19.492  0.00  0.00    +0.000 Br
ATOM     11  C   UNL     1       2.571   4.865  18.791  0.00  0.00    +0.000 A 
ATOM     12  C   UNL     1       1.569   3.963  19.181  0.00  0.00    +0.000 A 
ATOM     13  C   UNL     1       1.521   2.675  18.649  0.00  0.00    +0.000 A 
ATOM     14  C   UNL     1       2.464   2.280  17.708  0.00  0.00    +0.000 A 
ATOM     15  C   UNL     1       3.458   3.171  17.299  0.00  0.00    +0.000 A 
ATOM     16  C   UNL     1       3.532   4.468  17.846  0.00  0.00    +0.000 A 
ENDBRANCH   1  16
TORSDOF 1
ENDMDL
MODEL 4
REMARK VINA RESULT:      -7.0      1.820      5.168
REMARK  Name = 
REMARK  1 active torsions:
REMARK  status: ('A' for Active; 'I' for Inactive)
REMARK    1  A    between atoms: C_7  and  N_8
REMARK                            x       y       z     vdW  Elec       q    Type
REMARK                         _______ _______ _______ _____ _____    ______ ____
ROOT
ATOM      1  N   UNL     1       3.732   4.285  17.887  0.00  0.00    +0.000 N 
ATOM      2  N   UNL     1       3.217   3.531  16.877  0.00  0.00    +0.000 NA
ATOM      3  N   UNL     1       2.177   2.846  17.336  0.00  0.00    +0.000 NA
ATOM      4  C   UNL     1       2.002   3.180  18.645  0.00  0.00    +0.000 A 
ATOM      5  C   UNL     1       1.041   2.790  19.586  0.00  0.00    +0.000 A 
ATOM      6  C   UNL     1       1.120   3.367  20.853  0.00  0.00    +0.000 A 
ATOM      7  C   UNL     1       2.139   4.275  21.123  0.00  0.00    +0.000 A 
ATOM      8  N   UNL     1       3.104   4.664  20.256  0.00  0.00    +0.000 NA
ATOM      9  C   UNL     1       2.981   4.083  19.038  0.00  0.00    +0.000 A 
ENDROOT
BRANCH   1  16
ATOM     10 BR   UNL     1       3.333   7.538  17.620  0.00  0.00    +0.000 Br
ATOM     11  C   UNL     1       4.888   6.444  17.511  0.00  0.00    +0.000 A 
ATOM     12  C   UNL     1       6.093   7.137  17.321  0.00  0.00    +0.000 A 
ATOM     13  C   UNL     1       7.314   6.464  17.338  0.00  0.00    +0.000 A 
ATOM     14  C   UNL     1       7.344   5.092  17.561  0.00  0.00    +0.000 A 
ATOM     15  C   UNL     1       6.154   4.392  17.766  0.00  0.00    +0.000 A 
ATOM     16  C   UNL     1       4.912   5.057  17.729  0.00  0.00    +0.000 A 
ENDBRANCH   1  16
TORSDOF 1
ENDMDL
MODEL 5
REMARK VINA RESULT:      -7.0      2.023      2.951
REMARK  Name = 
REMARK  1 active torsions:
REMARK  status: ('A' for Active; 'I' for Inactive)
REMARK    1  A    between atoms: C_7  and  N_8
REMARK                            x       y       z     vdW  Elec       q    Type
REMARK                         _______ _______ _______ _____ _____    ______ ____
ROOT
ATOM      1  N   UNL     1       4.123   5.248  18.310  0.00  0.00    +0.000 N 
ATOM      2  N   UNL     1       3.820   5.759  17.085  0.00  0.00    +0.000 NA
ATOM      3  N   UNL     1       4.885   6.386  16.602  0.00  0.00    +0.000 NA
ATOM      4  C   UNL     1       5.892   6.256  17.510  0.00  0.00    +0.000 A 
ATOM      5  C   UNL     1       7.226   6.684  17.491  0.00  0.00    +0.000 A 
ATOM      6  C   UNL     1       8.021   6.338  18.583  0.00  0.00    +0.000 A 
ATOM      7  C   UNL     1       7.460   5.612  19.628  0.00  0.00    +0.000 A 
ATOM      8  N   UNL     1       6.173   5.198  19.704  0.00  0.00    +0.000 NA
ATOM      9  C   UNL     1       5.443   5.550  18.618  0.00  0.00    +0.000 A 
ENDROOT
BRANCH   1  16
ATOM     10 BR   UNL     1       3.724   2.019  17.829  0.00  0.00    +0.000 Br
ATOM     11  C   UNL     1       2.813   3.248  18.962  0.00  0.00    +0.000 A 
ATOM     12  C   UNL     1       1.815   2.686  19.772  0.00  0.00    +0.000 A 
ATOM     13  C   UNL     1       1.151   3.457  20.727  0.00  0.00    +0.000 A 
ATOM     14  C   UNL     1       1.491   4.794  20.893  0.00  0.00    +0.000 A 
ATOM     15  C   UNL     1       2.492   5.363  20.104  0.00  0.00    +0.000 A 
ATOM     16  C   UNL     1       3.154   4.602  19.120  0.00  0.00    +0.000 A 
ENDBRANCH   1  16
TORSDOF 1
ENDMDL
MODEL 6
REMARK VINA RESULT:      -7.0      1.639      2.506
REMARK  Name = 
REMARK  1 active torsions:
REMARK  status: ('A' for Active; 'I' for Inactive)
REMARK    1  A    between atoms: C_7  and  N_8
REMARK                            x       y       z     vdW  Elec       q    Type
REMARK                         _______ _______ _______ _____ _____    ______ ____
ROOT
ATOM      1  N   UNL     1       4.184   5.221  18.255  0.00  0.00    +0.000 N 
ATOM      2  N   UNL     1       3.884   5.780  17.051  0.00  0.00    +0.000 NA
ATOM      3  N   UNL     1       4.935   6.465  16.618  0.00  0.00    +0.000 NA
ATOM      4  C   UNL     1       5.931   6.324  17.537  0.00  0.00    +0.000 A 
ATOM      5  C   UNL     1       7.249   6.797  17.561  0.00  0.00    +0.000 A 
ATOM      6  C   UNL     1       8.037   6.425  18.650  0.00  0.00    +0.000 A 
ATOM      7  C   UNL     1       7.484   5.631  19.650  0.00  0.00    +0.000 A 
ATOM      8  N   UNL     1       6.211   5.172  19.683  0.00  0.00    +0.000 NA
ATOM      9  C   UNL     1       5.487   5.552  18.601  0.00  0.00    +0.000 A 
ENDROOT
BRANCH   1  16
ATOM     10 BR   UNL     1       2.121   7.018  20.080  0.00  0.00    +0.000 Br
ATOM     11  C   UNL     1       2.341   5.135  19.910  0.00  0.00    +0.000 A 
ATOM     12  C   UNL     1       1.446   4.359  20.662  0.00  0.00    +0.000 A 
ATOM     13  C   UNL     1       1.427   2.970  20.539  0.00  0.00    +0.000 A 
ATOM     14  C   UNL     1       2.293   2.343  19.651  0.00  0.00    +0.000 A 
ATOM     15  C   UNL     1       3.179   3.103  18.885  0.00  0.00    +0.000 A 
ATOM     16  C   UNL     1       3.224   4.506  19.016  0.00  0.00    +0.000 A 
ENDBRANCH   1  16
TORSDOF 1
ENDMDL
MODEL 7
REMARK VINA RESULT:      -7.0      1.034      2.204
REMARK  Name = 
REMARK  1 active torsions:
REMARK  status: ('A' for Active; 'I' for Inactive)
REMARK    1  A    between atoms: C_7  and  N_8
REMARK                            x       y       z     vdW  Elec       q    Type
REMARK                         _______ _______ _______ _____ _____    ______ ____
ROOT
ATOM      1  N   UNL     1       4.189   4.030  18.189  0.00  0.00    +0.000 N 
ATOM      2  N   UNL     1       4.113   3.696  16.871  0.00  0.00    +0.000 NA
ATOM      3  N   UNL     1       5.231   4.074  16.264  0.00  0.00    +0.000 NA
ATOM      4  C   UNL     1       6.047   4.630  17.202  0.00  0.00    +0.000 A 
ATOM      5  C   UNL     1       7.345   5.150  17.117  0.00  0.00    +0.000 A 
ATOM      6  C   UNL     1       7.925   5.609  18.300  0.00  0.00    +0.000 A 
ATOM      7  C   UNL     1       7.196   5.545  19.483  0.00  0.00    +0.000 A 
ATOM      8  N   UNL     1       5.932   5.076  19.610  0.00  0.00    +0.000 NA
ATOM      9  C   UNL     1       5.415   4.634  18.437  0.00  0.00    +0.000 A 
ENDROOT
BRANCH   1  16
ATOM     10 BR   UNL     1       2.525   6.725  19.071  0.00  0.00    +0.000 Br
ATOM     11  C   UNL     1       2.362   4.907  19.614  0.00  0.00    +0.000 A 
ATOM     12  C   UNL     1       1.327   4.646  20.524  0.00  0.00    +0.000 A 
ATOM     13  C   UNL     1       1.030   3.340  20.914  0.00  0.00    +0.000 A 
ATOM     14  C   UNL     1       1.754   2.280  20.383  0.00  0.00    +0.000 A 
ATOM     15  C   UNL     1       2.778   2.523  19.465  0.00  0.00    +0.000 A 
ATOM     16  C   UNL     1       3.103   3.839  19.081  0.00  0.00    +0.000 A 
ENDBRANCH   1  16
TORSDOF 1
ENDMDL
MODEL 8
REMARK VINA RESULT:      -6.9      1.742      5.259
REMARK  Name = 
REMARK  1 active torsions:
REMARK  status: ('A' for Active; 'I' for Inactive)
REMARK    1  A    between atoms: C_7  and  N_8
REMARK                            x       y       z     vdW  Elec       q    Type
REMARK                         _______ _______ _______ _____ _____    ______ ____
ROOT
ATOM      1  N   UNL     1       4.106   5.179  18.340  0.00  0.00    +0.000 N 
ATOM      2  N   UNL     1       3.444   6.365  18.429  0.00  0.00    +0.000 NA
ATOM      3  N   UNL     1       2.543   6.287  19.400  0.00  0.00    +0.000 NA
ATOM      4  C   UNL     1       2.642   5.050  19.961  0.00  0.00    +0.000 A 
ATOM      5  C   UNL     1       1.968   4.457  21.036  0.00  0.00    +0.000 A 
ATOM      6  C   UNL     1       2.350   3.164  21.393  0.00  0.00    +0.000 A 
ATOM      7  C   UNL     1       3.354   2.529  20.669  0.00  0.00    +0.000 A 
ATOM      8  N   UNL     1       4.016   3.049  19.608  0.00  0.00    +0.000 NA
ATOM      9  C   UNL     1       3.616   4.309  19.306  0.00  0.00    +0.000 A 
ENDROOT
BRANCH   1  16
ATOM     10 BR   UNL     1       7.259   5.606  19.170  0.00  0.00    +0.000 Br
ATOM     11  C   UNL     1       6.441   5.151  17.512  0.00  0.00    +0.000 A 
ATOM     12  C   UNL     1       7.330   4.914  16.453  0.00  0.00    +0.000 A 
ATOM     13  C   UNL     1       6.866   4.464  15.217  0.00  0.00    +0.000 A 
ATOM     14  C   UNL     1       5.509   4.228  15.033  0.00  0.00    +0.000 A 
ATOM     15  C   UNL     1       4.614   4.445  16.083  0.00  0.00    +0.000 A 
ATOM     16  C   UNL     1       5.067   4.923  17.329  0.00  0.00    +0.000 A 
ENDBRANCH   1  16
TORSDOF 1
ENDMDL
MODEL 9
REMARK VINA RESULT:      -6.8      1.961      5.088
REMARK  Name = 
REMARK  1 active torsions:
REMARK  status: ('A' for Active; 'I' for Inactive)
REMARK    1  A    between atoms: C_7  and  N_8
REMARK                            x       y       z     vdW  Elec       q    Type
REMARK                         _______ _______ _______ _____ _____    ______ ____
ROOT
ATOM      1  N   UNL     1       4.498   4.458  18.239  0.00  0.00    +0.000 N 
ATOM      2  N   UNL     1       4.379   3.435  17.349  0.00  0.00    +0.000 NA
ATOM      3  N   UNL     1       3.242   2.791  17.579  0.00  0.00    +0.000 NA
ATOM      4  C   UNL     1       2.608   3.420  18.608  0.00  0.00    +0.000 A 
ATOM      5  C   UNL     1       1.372   3.187  19.223  0.00  0.00    +0.000 A 
ATOM      6  C   UNL     1       0.991   4.063  20.239  0.00  0.00    +0.000 A 
ATOM      7  C   UNL     1       1.847   5.099  20.598  0.00  0.00    +0.000 A 
ATOM      8  N   UNL     1       3.060   5.349  20.052  0.00  0.00    +0.000 NA
ATOM      9  C   UNL     1       3.382   4.477  19.065  0.00  0.00    +0.000 A 
ENDROOT
BRANCH   1  16
ATOM     10 BR   UNL     1       4.825   6.739  15.893  0.00  0.00    +0.000 Br
ATOM     11  C   UNL     1       5.975   6.223  17.320  0.00  0.00    +0.000 A 
ATOM     12  C   UNL     1       7.161   6.964  17.429  0.00  0.00    +0.000 A 
ATOM     13  C   UNL     1       8.035   6.761  18.497  0.00  0.00    +0.000 A 
ATOM     14  C   UNL     1       7.723   5.827  19.477  0.00  0.00    +0.000 A 
ATOM     15  C   UNL     1       6.538   5.093  19.390  0.00  0.00    +0.000 A 
ATOM     16  C   UNL     1       5.658   5.272  18.304  0.00  0.00    +0.000 A 
ENDBRANCH   1  16
TORSDOF 1
ENDMDL
