MODEL 1
REMARK VINA RESULT:      -6.8      0.000      0.000
REMARK  Name = 
REMARK  6 active torsions:
REMARK  status: ('A' for Active; 'I' for Inactive)
REMARK    1  A    between atoms: C_1  and  C_2
REMARK    2  A    between atoms: C_2  and  C_3
REMARK    3  A    between atoms: C_5  and  C_6
REMARK    4  A    between atoms: N_8  and  C_9
REMARK    5  A    between atoms: N_8  and  C_10
REMARK    6  A    between atoms: N_14  and  C_15
REMARK                            x       y       z     vdW  Elec       q    Type
REMARK                         _______ _______ _______ _____ _____    ______ ____
ROOT
ATOM      1  C   UNL     1       3.290   5.952  19.158  0.00  0.00    +0.000 A 
ATOM      2  N   UNL     1       2.457   6.915  19.508  0.00  0.00    +0.000 NA
ATOM      3  C   UNL     1       2.523   7.842  18.492  0.00  0.00    +0.000 A 
ATOM      4  N   UNL     1       3.308   7.429  17.483  0.00  0.00    +0.000 NA
ATOM      5  N   UNL     1       3.825   6.250  17.899  0.00  0.00    +0.000 N 
ENDROOT
BRANCH   5   6
ATOM      6  C   UNL     1       4.770   5.581  17.066  0.00  0.00    +0.000 A 
ATOM      7  C   UNL     1       4.508   4.258  16.628  0.00  0.00    +0.000 A 
ATOM      8 CL   UNL     1       2.993   3.430  16.822  0.00  0.00    +0.000 Cl
ATOM      9  C   UNL     1       5.463   3.538  15.890  0.00  0.00    +0.000 A 
ATOM     10  C   UNL     1       6.659   4.129  15.510  0.00  0.00    +0.000 A 
ATOM     11  C   UNL     1       6.921   5.432  15.906  0.00  0.00    +0.000 A 
ATOM     12  C   UNL     1       6.018   6.136  16.726  0.00  0.00    +0.000 A 
ATOM     13 CL   UNL     1       6.708   7.545  17.450  0.00  0.00    +0.000 Cl
ENDBRANCH   5   6
BRANCH   3  14
ATOM     14  C   UNL     1       1.811   9.156  18.436  0.00  0.00    +0.000 C 
ATOM     15  O   UNL     1       1.893   9.864  17.422  0.00  0.00    +0.000 OA
ATOM     16  N   UNL     1       1.053   9.608  19.540  0.00  0.00    +0.000 N 
ATOM     17  C   UNL     1       0.852   8.889  20.796  0.00  0.00    +0.000 C 
BRANCH  16  18
ATOM     18  C   UNL     1       0.277  10.835  19.381  0.00  0.00    +0.000 C 
ATOM     19  C   UNL     1      -1.158  10.872  18.906  0.00  0.00    +0.000 C 
ATOM     20  C   UNL     1      -0.839  11.180  20.336  0.00  0.00    +0.000 C 
ENDBRANCH  16  18
ENDBRANCH   3  14
BRANCH   1  22
ATOM     21  C   UNL     1       2.570   3.931  20.508  0.00  0.00    +0.000 C 
ATOM     22  C   UNL     1       3.714   4.827  20.053  0.00  0.00    +0.000 C 
ENDBRANCH   1  22
TORSDOF 4
ENDMDL
MODEL 2
REMARK VINA RESULT:      -6.6      0.206      1.979
REMARK  Name = 
REMARK  6 active torsions:
REMARK  status: ('A' for Active; 'I' for Inactive)
REMARK    1  A    between atoms: C_1  and  C_2
REMARK    2  A    between atoms: C_2  and  C_3
REMARK    3  A    between atoms: C_5  and  C_6
REMARK    4  A    between atoms: N_8  and  C_9
REMARK    5  A    between atoms: N_8  and  C_10
REMARK    6  A    between atoms: N_14  and  C_15
REMARK                            x       y       z     vdW  Elec       q    Type
REMARK                         _______ _______ _______ _____ _____    ______ ____
ROOT
ATOM      1  C   UNL     1       3.129   5.856  19.275  0.00  0.00    +0.000 A 
ATOM      2  N   UNL     1       2.322   6.855  19.585  0.00  0.00    +0.000 NA
ATOM      3  C   UNL     1       2.475   7.777  18.574  0.00  0.00    +0.000 A 
ATOM      4  N   UNL     1       3.289   7.328  17.603  0.00  0.00    +0.000 NA
ATOM      5  N   UNL     1       3.735   6.130  18.042  0.00  0.00    +0.000 N 
ENDROOT
BRANCH   5   6
ATOM      6  C   UNL     1       4.689   5.419  17.254  0.00  0.00    +0.000 A 
ATOM      7  C   UNL     1       5.885   6.064  16.848  0.00  0.00    +0.000 A 
ATOM      8 CL   UNL     1       6.424   7.611  17.428  0.00  0.00    +0.000 Cl
ATOM      9  C   UNL     1       6.796   5.425  15.992  0.00  0.00    +0.000 A 
ATOM     10  C   UNL     1       6.585   4.118  15.579  0.00  0.00    +0.000 A 
ATOM     11  C   UNL     1       5.434   3.461  15.989  0.00  0.00    +0.000 A 
ATOM     12  C   UNL     1       4.463   4.118  16.769  0.00  0.00    +0.000 A 
ATOM     13 CL   UNL     1       2.944   3.295  16.805  0.00  0.00    +0.000 Cl
ENDBRANCH   5   6
BRANCH   3  14
ATOM     14  C   UNL     1       1.823   9.119  18.486  0.00  0.00    +0.000 C 
ATOM     15  O   UNL     1       1.945   9.803  17.458  0.00  0.00    +0.000 OA
ATOM     16  N   UNL     1       1.078   9.628  19.574  0.00  0.00    +0.000 N 
ATOM     17  C   UNL     1       0.836   8.944  20.842  0.00  0.00    +0.000 C 
BRANCH  16  18
ATOM     18  C   UNL     1       0.360  10.884  19.383  0.00  0.00    +0.000 C 
ATOM     19  C   UNL     1      -1.052  10.979  18.849  0.00  0.00    +0.000 C 
ATOM     20  C   UNL     1      -0.781  11.275  20.291  0.00  0.00    +0.000 C 
ENDBRANCH  16  18
ENDBRANCH   3  14
BRANCH   1  22
ATOM     21  C   UNL     1       2.259   4.136  20.921  0.00  0.00    +0.000 C 
ATOM     22  C   UNL     1       3.462   4.716  20.188  0.00  0.00    +0.000 C 
ENDBRANCH   1  22
TORSDOF 4
ENDMDL
MODEL 3
REMARK VINA RESULT:      -6.5      3.960      8.650
REMARK  Name = 
REMARK  6 active torsions:
REMARK  status: ('A' for Active; 'I' for Inactive)
REMARK    1  A    between atoms: C_1  and  C_2
REMARK    2  A    between atoms: C_2  and  C_3
REMARK    3  A    between atoms: C_5  and  C_6
REMARK    4  A    between atoms: N_8  and  C_9
REMARK    5  A    between atoms: N_8  and  C_10
REMARK    6  A    between atoms: N_14  and  C_15
REMARK                            x       y       z     vdW  Elec       q    Type
REMARK                         _______ _______ _______ _____ _____    ______ ____
ROOT
ATOM      1  C   UNL     1      -0.193  12.107  18.800  0.00  0.00    +0.000 A 
ATOM      2  N   UNL     1       0.834  11.410  19.253  0.00  0.00    +0.000 NA
ATOM      3  C   UNL     1       0.332  10.158  19.528  0.00  0.00    +0.000 A 
ATOM      4  N   UNL     1      -0.958  10.042  19.169  0.00  0.00    +0.000 NA
ATOM      5  N   UNL     1      -1.315  11.271  18.734  0.00  0.00    +0.000 N 
ENDROOT
BRANCH   5   6
ATOM      6  C   UNL     1      -2.668  11.498  18.343  0.00  0.00    +0.000 A 
ATOM      7  C   UNL     1      -3.582  12.061  19.268  0.00  0.00    +0.000 A 
ATOM      8 CL   UNL     1      -3.145  12.738  20.808  0.00  0.00    +0.000 Cl
ATOM      9  C   UNL     1      -4.942  12.205  18.946  0.00  0.00    +0.000 A 
ATOM     10  C   UNL     1      -5.412  11.865  17.686  0.00  0.00    +0.000 A 
ATOM     11  C   UNL     1      -4.526  11.338  16.757  0.00  0.00    +0.000 A 
ATOM     12  C   UNL     1      -3.180  11.099  17.095  0.00  0.00    +0.000 A 
ATOM     13 CL   UNL     1      -2.370  10.061  15.975  0.00  0.00    +0.000 Cl
ENDBRANCH   5   6
BRANCH   3  14
ATOM     14  C   UNL     1       1.081   9.009  20.123  0.00  0.00    +0.000 C 
ATOM     15  O   UNL     1       1.015   8.789  21.342  0.00  0.00    +0.000 OA
ATOM     16  N   UNL     1       1.881   8.174  19.309  0.00  0.00    +0.000 N 
ATOM     17  C   UNL     1       2.052   8.296  17.864  0.00  0.00    +0.000 C 
BRANCH  16  18
ATOM     18  C   UNL     1       2.484   6.995  19.922  0.00  0.00    +0.000 C 
ATOM     19  C   UNL     1       1.790   5.657  20.046  0.00  0.00    +0.000 C 
ATOM     20  C   UNL     1       2.926   5.820  19.084  0.00  0.00    +0.000 C 
ENDBRANCH  16  18
ENDBRANCH   3  14
BRANCH   1  22
ATOM     21  C   UNL     1       0.028  14.411  19.836  0.00  0.00    +0.000 C 
ATOM     22  C   UNL     1      -0.181  13.588  18.571  0.00  0.00    +0.000 C 
ENDBRANCH   1  22
TORSDOF 4
ENDMDL
MODEL 4
REMARK VINA RESULT:      -6.3      1.584      1.899
REMARK  Name = 
REMARK  6 active torsions:
REMARK  status: ('A' for Active; 'I' for Inactive)
REMARK    1  A    between atoms: C_1  and  C_2
REMARK    2  A    between atoms: C_2  and  C_3
REMARK    3  A    between atoms: C_5  and  C_6
REMARK    4  A    between atoms: N_8  and  C_9
REMARK    5  A    between atoms: N_8  and  C_10
REMARK    6  A    between atoms: N_14  and  C_15
REMARK                            x       y       z     vdW  Elec       q    Type
REMARK                         _______ _______ _______ _____ _____    ______ ____
ROOT
ATOM      1  C   UNL     1       2.512   5.590  17.814  0.00  0.00    +0.000 A 
ATOM      2  N   UNL     1       1.605   6.519  18.061  0.00  0.00    +0.000 NA
ATOM      3  C   UNL     1       2.303   7.703  18.128  0.00  0.00    +0.000 A 
ATOM      4  N   UNL     1       3.605   7.537  17.837  0.00  0.00    +0.000 NA
ATOM      5  N   UNL     1       3.761   6.206  17.665  0.00  0.00    +0.000 N 
ENDROOT
BRANCH   5   6
ATOM      6  C   UNL     1       5.068   5.692  17.411  0.00  0.00    +0.000 A 
ATOM      7  C   UNL     1       5.637   5.827  16.119  0.00  0.00    +0.000 A 
ATOM      8 CL   UNL     1       4.970   6.791  14.836  0.00  0.00    +0.000 Cl
ATOM      9  C   UNL     1       6.878   5.246  15.811  0.00  0.00    +0.000 A 
ATOM     10  C   UNL     1       7.614   4.586  16.785  0.00  0.00    +0.000 A 
ATOM     11  C   UNL     1       7.086   4.469  18.062  0.00  0.00    +0.000 A 
ATOM     12  C   UNL     1       5.801   4.962  18.363  0.00  0.00    +0.000 A 
ATOM     13 CL   UNL     1       5.164   4.346  19.847  0.00  0.00    +0.000 Cl
ENDBRANCH   5   6
BRANCH   3  14
ATOM     14  C   UNL     1       1.743   9.052  18.448  0.00  0.00    +0.000 C 
ATOM     15  O   UNL     1       1.710   9.934  17.576  0.00  0.00    +0.000 OA
ATOM     16  N   UNL     1       1.261   9.339  19.745  0.00  0.00    +0.000 N 
ATOM     17  C   UNL     1       1.223   8.409  20.871  0.00  0.00    +0.000 C 
BRANCH  16  18
ATOM     18  C   UNL     1       0.610  10.627  19.963  0.00  0.00    +0.000 C 
ATOM     19  C   UNL     1      -0.872  10.867  19.781  0.00  0.00    +0.000 C 
ATOM     20  C   UNL     1      -0.284  10.856  21.158  0.00  0.00    +0.000 C 
ENDBRANCH  16  18
ENDBRANCH   3  14
BRANCH   1  22
ATOM     21  C   UNL     1       1.351   3.682  19.014  0.00  0.00    +0.000 C 
ATOM     22  C   UNL     1       2.256   4.115  17.867  0.00  0.00    +0.000 C 
ENDBRANCH   1  22
TORSDOF 4
ENDMDL
MODEL 5
REMARK VINA RESULT:      -6.2      5.936      8.197
REMARK  Name = 
REMARK  6 active torsions:
REMARK  status: ('A' for Active; 'I' for Inactive)
REMARK    1  A    between atoms: C_1  and  C_2
REMARK    2  A    between atoms: C_2  and  C_3
REMARK    3  A    between atoms: C_5  and  C_6
REMARK    4  A    between atoms: N_8  and  C_9
REMARK    5  A    between atoms: N_8  and  C_10
REMARK    6  A    between atoms: N_14  and  C_15
REMARK                            x       y       z     vdW  Elec       q    Type
REMARK                         _______ _______ _______ _____ _____    ______ ____
ROOT
ATOM      1  C   UNL     1      -0.928  12.084  18.514  0.00  0.00    +0.000 A 
ATOM      2  N   UNL     1      -0.447  13.149  17.898  0.00  0.00    +0.000 NA
ATOM      3  C   UNL     1       0.547  13.630  18.720  0.00  0.00    +0.000 A 
ATOM      4  N   UNL     1       0.750  12.833  19.783  0.00  0.00    +0.000 NA
ATOM      5  N   UNL     1      -0.191  11.868  19.686  0.00  0.00    +0.000 N 
ENDROOT
BRANCH   5   6
ATOM      6  C   UNL     1      -0.287  10.892  20.722  0.00  0.00    +0.000 A 
ATOM      7  C   UNL     1      -0.839  11.251  21.978  0.00  0.00    +0.000 A 
ATOM      8 CL   UNL     1      -1.648  12.751  22.313  0.00  0.00    +0.000 Cl
ATOM      9  C   UNL     1      -0.855  10.340  23.047  0.00  0.00    +0.000 A 
ATOM     10  C   UNL     1      -0.397   9.042  22.881  0.00  0.00    +0.000 A 
ATOM     11  C   UNL     1       0.121   8.663  21.650  0.00  0.00    +0.000 A 
ATOM     12  C   UNL     1       0.233   9.590  20.596  0.00  0.00    +0.000 A 
ATOM     13 CL   UNL     1       1.278   9.057  19.327  0.00  0.00    +0.000 Cl
ENDBRANCH   5   6
BRANCH   3  14
ATOM     14  C   UNL     1       1.363  14.863  18.504  0.00  0.00    +0.000 C 
ATOM     15  O   UNL     1       2.560  14.769  18.192  0.00  0.00    +0.000 OA
ATOM     16  N   UNL     1       0.787  16.144  18.667  0.00  0.00    +0.000 N 
ATOM     17  C   UNL     1      -0.604  16.418  19.020  0.00  0.00    +0.000 C 
BRANCH  16  18
ATOM     18  C   UNL     1       1.595  17.308  18.319  0.00  0.00    +0.000 C 
ATOM     19  C   UNL     1       1.698  17.879  16.922  0.00  0.00    +0.000 C 
ATOM     20  C   UNL     1       0.952  18.631  17.981  0.00  0.00    +0.000 C 
ENDBRANCH  16  18
ENDBRANCH   3  14
BRANCH   1  22
ATOM     21  C   UNL     1      -1.905   9.978  17.495  0.00  0.00    +0.000 C 
ATOM     22  C   UNL     1      -2.168  11.350  18.103  0.00  0.00    +0.000 C 
ENDBRANCH   1  22
TORSDOF 4
ENDMDL
MODEL 6
REMARK VINA RESULT:      -6.2      1.602      1.705
REMARK  Name = 
REMARK  6 active torsions:
REMARK  status: ('A' for Active; 'I' for Inactive)
REMARK    1  A    between atoms: C_1  and  C_2
REMARK    2  A    between atoms: C_2  and  C_3
REMARK    3  A    between atoms: C_5  and  C_6
REMARK    4  A    between atoms: N_8  and  C_9
REMARK    5  A    between atoms: N_8  and  C_10
REMARK    6  A    between atoms: N_14  and  C_15
REMARK                            x       y       z     vdW  Elec       q    Type
REMARK                         _______ _______ _______ _____ _____    ______ ____
ROOT
ATOM      1  C   UNL     1       2.446   5.490  17.800  0.00  0.00    +0.000 A 
ATOM      2  N   UNL     1       1.568   6.421  18.130  0.00  0.00    +0.000 NA
ATOM      3  C   UNL     1       2.287   7.593  18.199  0.00  0.00    +0.000 A 
ATOM      4  N   UNL     1       3.568   7.420  17.830  0.00  0.00    +0.000 NA
ATOM      5  N   UNL     1       3.694   6.093  17.603  0.00  0.00    +0.000 N 
ENDROOT
BRANCH   5   6
ATOM      6  C   UNL     1       4.977   5.572  17.259  0.00  0.00    +0.000 A 
ATOM      7  C   UNL     1       5.749   4.901  18.241  0.00  0.00    +0.000 A 
ATOM      8 CL   UNL     1       5.171   4.435  19.811  0.00  0.00    +0.000 Cl
ATOM      9  C   UNL     1       7.055   4.464  17.960  0.00  0.00    +0.000 A 
ATOM     10  C   UNL     1       7.595   4.613  16.691  0.00  0.00    +0.000 A 
ATOM     11  C   UNL     1       6.843   5.242  15.709  0.00  0.00    +0.000 A 
ATOM     12  C   UNL     1       5.571   5.772  15.999  0.00  0.00    +0.000 A 
ATOM     13 CL   UNL     1       4.998   6.871  14.795  0.00  0.00    +0.000 Cl
ENDBRANCH   5   6
BRANCH   3  14
ATOM     14  C   UNL     1       1.766   8.936  18.596  0.00  0.00    +0.000 C 
ATOM     15  O   UNL     1       1.737   9.861  17.770  0.00  0.00    +0.000 OA
ATOM     16  N   UNL     1       1.318   9.170  19.916  0.00  0.00    +0.000 N 
ATOM     17  C   UNL     1       1.279   8.186  20.996  0.00  0.00    +0.000 C 
BRANCH  16  18
ATOM     18  C   UNL     1       0.702  10.460  20.211  0.00  0.00    +0.000 C 
ATOM     19  C   UNL     1      -0.775  10.747  20.059  0.00  0.00    +0.000 C 
ATOM     20  C   UNL     1      -0.174  10.646  21.426  0.00  0.00    +0.000 C 
ENDBRANCH  16  18
ENDBRANCH   3  14
BRANCH   1  22
ATOM     21  C   UNL     1       1.581   3.509  19.125  0.00  0.00    +0.000 C 
ATOM     22  C   UNL     1       2.170   4.017  17.815  0.00  0.00    +0.000 C 
ENDBRANCH   1  22
TORSDOF 4
ENDMDL
MODEL 7
REMARK VINA RESULT:      -6.2      1.553      1.830
REMARK  Name = 
REMARK  6 active torsions:
REMARK  status: ('A' for Active; 'I' for Inactive)
REMARK    1  A    between atoms: C_1  and  C_2
REMARK    2  A    between atoms: C_2  and  C_3
REMARK    3  A    between atoms: C_5  and  C_6
REMARK    4  A    between atoms: N_8  and  C_9
REMARK    5  A    between atoms: N_8  and  C_10
REMARK    6  A    between atoms: N_14  and  C_15
REMARK                            x       y       z     vdW  Elec       q    Type
REMARK                         _______ _______ _______ _____ _____    ______ ____
ROOT
ATOM      1  C   UNL     1       3.074   4.528  19.879  0.00  0.00    +0.000 A 
ATOM      2  N   UNL     1       2.230   5.343  20.487  0.00  0.00    +0.000 NA
ATOM      3  C   UNL     1       2.422   6.573  19.897  0.00  0.00    +0.000 A 
ATOM      4  N   UNL     1       3.298   6.512  18.880  0.00  0.00    +0.000 NA
ATOM      5  N   UNL     1       3.742   5.235  18.872  0.00  0.00    +0.000 N 
ENDROOT
BRANCH   5   6
ATOM      6  C   UNL     1       4.753   4.863  17.937  0.00  0.00    +0.000 A 
ATOM      7  C   UNL     1       4.415   4.058  16.820  0.00  0.00    +0.000 A 
ATOM      8 CL   UNL     1       2.794   3.660  16.338  0.00  0.00    +0.000 Cl
ATOM      9  C   UNL     1       5.405   3.594  15.937  0.00  0.00    +0.000 A 
ATOM     10  C   UNL     1       6.730   3.971  16.095  0.00  0.00    +0.000 A 
ATOM     11  C   UNL     1       7.076   4.782  17.167  0.00  0.00    +0.000 A 
ATOM     12  C   UNL     1       6.113   5.178  18.115  0.00  0.00    +0.000 A 
ATOM     13 CL   UNL     1       6.805   5.801  19.571  0.00  0.00    +0.000 Cl
ENDBRANCH   5   6
BRANCH   3  14
ATOM     14  C   UNL     1       1.750   7.855  20.271  0.00  0.00    +0.000 C 
ATOM     15  O   UNL     1       1.425   8.066  21.449  0.00  0.00    +0.000 OA
ATOM     16  N   UNL     1       1.464   8.828  19.286  0.00  0.00    +0.000 N 
ATOM     17  C   UNL     1       1.791   8.732  17.866  0.00  0.00    +0.000 C 
BRANCH  16  18
ATOM     18  C   UNL     1       0.924  10.110  19.728  0.00  0.00    +0.000 C 
ATOM     19  C   UNL     1       0.206  11.083  18.820  0.00  0.00    +0.000 C 
ATOM     20  C   UNL     1      -0.564  10.326  19.857  0.00  0.00    +0.000 C 
ENDBRANCH  16  18
ENDBRANCH   3  14
BRANCH   1  22
ATOM     21  C   UNL     1       2.534   2.658  21.504  0.00  0.00    +0.000 C 
ATOM     22  C   UNL     1       3.377   3.130  20.326  0.00  0.00    +0.000 C 
ENDBRANCH   1  22
TORSDOF 4
ENDMDL
MODEL 8
REMARK VINA RESULT:      -6.2      1.741      3.033
REMARK  Name = 
REMARK  6 active torsions:
REMARK  status: ('A' for Active; 'I' for Inactive)
REMARK    1  A    between atoms: C_1  and  C_2
REMARK    2  A    between atoms: C_2  and  C_3
REMARK    3  A    between atoms: C_5  and  C_6
REMARK    4  A    between atoms: N_8  and  C_9
REMARK    5  A    between atoms: N_8  and  C_10
REMARK    6  A    between atoms: N_14  and  C_15
REMARK                            x       y       z     vdW  Elec       q    Type
REMARK                         _______ _______ _______ _____ _____    ______ ____
ROOT
ATOM      1  C   UNL     1       4.375   6.463  17.124  0.00  0.00    +0.000 A 
ATOM      2  N   UNL     1       4.021   7.736  17.159  0.00  0.00    +0.000 NA
ATOM      3  C   UNL     1       2.888   7.778  17.939  0.00  0.00    +0.000 A 
ATOM      4  N   UNL     1       2.590   6.576  18.460  0.00  0.00    +0.000 NA
ATOM      5  N   UNL     1       3.501   5.727  17.933  0.00  0.00    +0.000 N 
ENDROOT
BRANCH   5   6
ATOM      6  C   UNL     1       3.407   4.337  18.241  0.00  0.00    +0.000 A 
ATOM      7  C   UNL     1       2.196   3.642  17.991  0.00  0.00    +0.000 A 
ATOM      8 CL   UNL     1       0.848   4.285  17.104  0.00  0.00    +0.000 Cl
ATOM      9  C   UNL     1       2.041   2.300  18.374  0.00  0.00    +0.000 A 
ATOM     10  C   UNL     1       3.093   1.597  18.942  0.00  0.00    +0.000 A 
ATOM     11  C   UNL     1       4.295   2.253  19.169  0.00  0.00    +0.000 A 
ATOM     12  C   UNL     1       4.438   3.624  18.879  0.00  0.00    +0.000 A 
ATOM     13 CL   UNL     1       5.827   4.337  19.620  0.00  0.00    +0.000 Cl
ENDBRANCH   5   6
BRANCH   3  14
ATOM     14  C   UNL     1       2.058   8.985  18.240  0.00  0.00    +0.000 C 
ATOM     15  O   UNL     1       1.910   9.867  17.381  0.00  0.00    +0.000 OA
ATOM     16  N   UNL     1       1.450   9.139  19.507  0.00  0.00    +0.000 N 
ATOM     17  C   UNL     1       1.522   8.189  20.614  0.00  0.00    +0.000 C 
BRANCH  16  18
ATOM     18  C   UNL     1       0.549  10.271  19.699  0.00  0.00    +0.000 C 
ATOM     19  C   UNL     1      -0.932  10.235  19.397  0.00  0.00    +0.000 C 
ATOM     20  C   UNL     1      -0.465  10.280  20.818  0.00  0.00    +0.000 C 
ENDBRANCH  16  18
ENDBRANCH   3  14
BRANCH   1  22
ATOM     21  C   UNL     1       6.854   6.124  16.715  0.00  0.00    +0.000 C 
ATOM     22  C   UNL     1       5.430   5.898  16.222  0.00  0.00    +0.000 C 
ENDBRANCH   1  22
TORSDOF 4
ENDMDL
MODEL 9
REMARK VINA RESULT:      -6.2      1.525      3.414
REMARK  Name = 
REMARK  6 active torsions:
REMARK  status: ('A' for Active; 'I' for Inactive)
REMARK    1  A    between atoms: C_1  and  C_2
REMARK    2  A    between atoms: C_2  and  C_3
REMARK    3  A    between atoms: C_5  and  C_6
REMARK    4  A    between atoms: N_8  and  C_9
REMARK    5  A    between atoms: N_8  and  C_10
REMARK    6  A    between atoms: N_14  and  C_15
REMARK                            x       y       z     vdW  Elec       q    Type
REMARK                         _______ _______ _______ _____ _____    ______ ____
ROOT
ATOM      1  C   UNL     1       4.204   6.553  17.096  0.00  0.00    +0.000 A 
ATOM      2  N   UNL     1       3.825   7.818  17.047  0.00  0.00    +0.000 NA
ATOM      3  C   UNL     1       2.809   7.931  17.969  0.00  0.00    +0.000 A 
ATOM      4  N   UNL     1       2.616   6.788  18.649  0.00  0.00    +0.000 NA
ATOM      5  N   UNL     1       3.468   5.898  18.092  0.00  0.00    +0.000 N 
ENDROOT
BRANCH   5   6
ATOM      6  C   UNL     1       3.454   4.548  18.554  0.00  0.00    +0.000 A 
ATOM      7  C   UNL     1       4.617   3.997  19.150  0.00  0.00    +0.000 A 
ATOM      8 CL   UNL     1       6.028   4.906  19.597  0.00  0.00    +0.000 Cl
ATOM      9  C   UNL     1       4.666   2.644  19.524  0.00  0.00    +0.000 A 
ATOM     10  C   UNL     1       3.552   1.829  19.385  0.00  0.00    +0.000 A 
ATOM     11  C   UNL     1       2.396   2.358  18.829  0.00  0.00    +0.000 A 
ATOM     12  C   UNL     1       2.360   3.686  18.361  0.00  0.00    +0.000 A 
ATOM     13 CL   UNL     1       1.009   4.010  17.333  0.00  0.00    +0.000 Cl
ENDBRANCH   5   6
BRANCH   3  14
ATOM     14  C   UNL     1       1.996   9.153  18.255  0.00  0.00    +0.000 C 
ATOM     15  O   UNL     1       1.885  10.040  17.395  0.00  0.00    +0.000 OA
ATOM     16  N   UNL     1       1.362   9.316  19.508  0.00  0.00    +0.000 N 
ATOM     17  C   UNL     1       1.391   8.362  20.614  0.00  0.00    +0.000 C 
BRANCH  16  18
ATOM     18  C   UNL     1       0.480  10.466  19.684  0.00  0.00    +0.000 C 
ATOM     19  C   UNL     1      -1.008  10.438  19.418  0.00  0.00    +0.000 C 
ATOM     20  C   UNL     1      -0.506  10.524  20.825  0.00  0.00    +0.000 C 
ENDBRANCH  16  18
ENDBRANCH   3  14
BRANCH   1  22
ATOM     21  C   UNL     1       6.614   6.101  16.453  0.00  0.00    +0.000 C 
ATOM     22  C   UNL     1       5.140   5.907  16.121  0.00  0.00    +0.000 C 
ENDBRANCH   1  22
TORSDOF 4
ENDMDL
