MODEL 1
REMARK VINA RESULT:      -7.2      0.000      0.000
REMARK  Name = 
REMARK  4 active torsions:
REMARK  status: ('A' for Active; 'I' for Inactive)
REMARK    1  A    between atoms: C_2  and  C_3
REMARK    2  A    between atoms: N_19  and  N_20
REMARK    3  A    between atoms: C_21  and  C_22
REMARK    4  A    between atoms: C_27  and  N_28
REMARK                            x       y       z     vdW  Elec       q    Type
REMARK                         _______ _______ _______ _____ _____    ______ ____
ROOT
ATOM      1  C   UNL     1       6.382  15.214  18.694  0.00  0.00    +0.000 C 
ATOM      2  C   UNL     1       7.383  14.905  17.854  0.00  0.00    +0.000 C 
ATOM      3  C   UNL     1       8.718  14.899  18.489  0.00  0.00    +0.000 C 
ATOM      4  C   UNL     1       9.458  13.587  18.210  0.00  0.00    +0.000 A 
ATOM      5  C   UNL     1       8.923  12.335  18.599  0.00  0.00    +0.000 A 
ATOM      6  C   UNL     1       9.631  11.153  18.383  0.00  0.00    +0.000 A 
ATOM      7  C   UNL     1      10.867  11.201  17.751  0.00  0.00    +0.000 A 
ATOM      8  C   UNL     1      11.399  12.429  17.348  0.00  0.00    +0.000 A 
ATOM      9  C   UNL     1      10.717  13.628  17.597  0.00  0.00    +0.000 A 
ATOM     10  N   UNL     1      11.246  14.855  17.159  0.00  0.00    +0.000 N 
ATOM     11  C   UNL     1      10.699  16.107  17.482  0.00  0.00    +0.000 A 
ATOM     12  C   UNL     1      11.360  17.292  17.141  0.00  0.00    +0.000 A 
ATOM     13  C   UNL     1      10.816  18.544  17.451  0.00  0.00    +0.000 A 
ATOM     14  C   UNL     1       9.583  18.630  18.081  0.00  0.00    +0.000 A 
ATOM     15  C   UNL     1       8.900  17.465  18.390  0.00  0.00    +0.000 A 
ATOM     16  C   UNL     1       9.445  16.190  18.089  0.00  0.00    +0.000 A 
ATOM     17  N   UNL     1       8.351  14.955  19.904  0.00  0.00    +0.000 N 
ATOM     18  C   UNL     1       6.978  15.315  20.054  0.00  0.00    +0.000 C 
ATOM     19  O   UNL     1       6.375  15.652  21.057  0.00  0.00    +0.000 OA
ATOM     20  H   UNL     1      12.245  14.854  16.997  0.00  0.00    +0.000 HD
ENDROOT
BRANCH   1  22
ATOM     21  N   UNL     1       3.888  15.092  17.470  0.00  0.00    +0.000 NA
ATOM     22  C   UNL     1       5.019  15.147  18.025  0.00  0.00    +0.000 C 
ENDBRANCH   1  22
BRANCH  17  23
ATOM     23  N   UNL     1       9.417  15.223  20.725  0.00  0.00    +0.000 NA
ATOM     24  C   UNL     1       9.734  14.661  21.843  0.00  0.00    +0.000 C 
BRANCH  24  25
ATOM     25  C   UNL     1       9.042  13.658  22.646  0.00  0.00    +0.000 A 
ATOM     26  C   UNL     1       8.998  12.325  22.245  0.00  0.00    +0.000 A 
ATOM     27  C   UNL     1       8.071  11.459  22.821  0.00  0.00    +0.000 A 
ATOM     28  C   UNL     1       7.226  11.910  23.837  0.00  0.00    +0.000 A 
ATOM     29  C   UNL     1       7.361  13.203  24.343  0.00  0.00    +0.000 A 
ATOM     30  C   UNL     1       8.295  14.061  23.758  0.00  0.00    +0.000 A 
BRANCH  30  31
ATOM     31  N   UNL     1       8.462  15.387  24.337  0.00  0.00    +0.000 N 
ATOM     32  O   UNL     1       7.678  16.264  23.945  0.00  0.00    +0.000 OA
ATOM     33  O   UNL     1       9.387  15.542  25.132  0.00  0.00    +0.000 OA
ENDBRANCH  30  31
ENDBRANCH  24  25
ENDBRANCH  17  23
TORSDOF 4
ENDMDL
MODEL 2
REMARK VINA RESULT:      -6.8      8.247     11.639
REMARK  Name = 
REMARK  4 active torsions:
REMARK  status: ('A' for Active; 'I' for Inactive)
REMARK    1  A    between atoms: C_2  and  C_3
REMARK    2  A    between atoms: N_19  and  N_20
REMARK    3  A    between atoms: C_21  and  C_22
REMARK    4  A    between atoms: C_27  and  N_28
REMARK                            x       y       z     vdW  Elec       q    Type
REMARK                         _______ _______ _______ _____ _____    ______ ____
ROOT
ATOM      1  C   UNL     1      -1.914  11.834  18.266  0.00  0.00    +0.000 C 
ATOM      2  C   UNL     1      -2.423  11.474  19.455  0.00  0.00    +0.000 C 
ATOM      3  C   UNL     1      -1.731  12.082  20.612  0.00  0.00    +0.000 C 
ATOM      4  C   UNL     1      -2.726  12.767  21.554  0.00  0.00    +0.000 A 
ATOM      5  C   UNL     1      -3.570  13.814  21.111  0.00  0.00    +0.000 A 
ATOM      6  C   UNL     1      -4.434  14.462  21.991  0.00  0.00    +0.000 A 
ATOM      7  C   UNL     1      -4.490  14.056  23.319  0.00  0.00    +0.000 A 
ATOM      8  C   UNL     1      -3.675  13.013  23.766  0.00  0.00    +0.000 A 
ATOM      9  C   UNL     1      -2.771  12.381  22.900  0.00  0.00    +0.000 A 
ATOM     10  N   UNL     1      -1.977  11.312  23.351  0.00  0.00    +0.000 N 
ATOM     11  C   UNL     1      -0.956  10.716  22.595  0.00  0.00    +0.000 A 
ATOM     12  C   UNL     1      -0.106   9.759  23.158  0.00  0.00    +0.000 A 
ATOM     13  C   UNL     1       0.908   9.153  22.406  0.00  0.00    +0.000 A 
ATOM     14  C   UNL     1       1.066   9.473  21.066  0.00  0.00    +0.000 A 
ATOM     15  C   UNL     1       0.205  10.391  20.484  0.00  0.00    +0.000 A 
ATOM     16  C   UNL     1      -0.820  11.018  21.239  0.00  0.00    +0.000 A 
ATOM     17  N   UNL     1      -0.919  13.099  19.944  0.00  0.00    +0.000 N 
ATOM     18  C   UNL     1      -0.876  12.864  18.536  0.00  0.00    +0.000 C 
ATOM     19  O   UNL     1      -0.154  13.367  17.694  0.00  0.00    +0.000 OA
ATOM     20  H   UNL     1      -1.842  11.276  24.354  0.00  0.00    +0.000 HD
ENDROOT
BRANCH   1  22
ATOM     21  N   UNL     1      -3.331  10.753  16.131  0.00  0.00    +0.000 NA
ATOM     22  C   UNL     1      -2.688  11.243  17.099  0.00  0.00    +0.000 C 
ENDBRANCH   1  22
BRANCH  17  23
ATOM     23  N   UNL     1       0.031  13.651  20.765  0.00  0.00    +0.000 NA
ATOM     24  C   UNL     1       0.405  14.884  20.847  0.00  0.00    +0.000 C 
BRANCH  24  25
ATOM     25  C   UNL     1       0.043  16.055  20.055  0.00  0.00    +0.000 A 
ATOM     26  C   UNL     1      -1.212  16.646  20.183  0.00  0.00    +0.000 A 
ATOM     27  C   UNL     1      -1.664  17.529  19.206  0.00  0.00    +0.000 A 
ATOM     28  C   UNL     1      -0.842  17.867  18.129  0.00  0.00    +0.000 A 
ATOM     29  C   UNL     1       0.468  17.391  18.068  0.00  0.00    +0.000 A 
ATOM     30  C   UNL     1       0.910  16.507  19.055  0.00  0.00    +0.000 A 
BRANCH  30  31
ATOM     31  N   UNL     1       2.298  16.067  19.006  0.00  0.00    +0.000 N 
ATOM     32  O   UNL     1       3.097  16.676  19.732  0.00  0.00    +0.000 OA
ATOM     33  O   UNL     1       2.575  15.161  18.223  0.00  0.00    +0.000 OA
ENDBRANCH  30  31
ENDBRANCH  24  25
ENDBRANCH  17  23
TORSDOF 4
ENDMDL
MODEL 3
REMARK VINA RESULT:      -6.5      8.290     12.001
REMARK  Name = 
REMARK  4 active torsions:
REMARK  status: ('A' for Active; 'I' for Inactive)
REMARK    1  A    between atoms: C_2  and  C_3
REMARK    2  A    between atoms: N_19  and  N_20
REMARK    3  A    between atoms: C_21  and  C_22
REMARK    4  A    between atoms: C_27  and  N_28
REMARK                            x       y       z     vdW  Elec       q    Type
REMARK                         _______ _______ _______ _____ _____    ______ ____
ROOT
ATOM      1  C   UNL     1       1.081  13.488  19.110  0.00  0.00    +0.000 C 
ATOM      2  C   UNL     1       1.058  13.013  20.365  0.00  0.00    +0.000 C 
ATOM      3  C   UNL     1      -0.295  12.667  20.851  0.00  0.00    +0.000 C 
ATOM      4  C   UNL     1      -0.334  11.241  21.409  0.00  0.00    +0.000 A 
ATOM      5  C   UNL     1       0.008  10.121  20.614  0.00  0.00    +0.000 A 
ATOM      6  C   UNL     1      -0.081   8.825  21.121  0.00  0.00    +0.000 A 
ATOM      7  C   UNL     1      -0.483   8.631  22.437  0.00  0.00    +0.000 A 
ATOM      8  C   UNL     1      -0.808   9.729  23.238  0.00  0.00    +0.000 A 
ATOM      9  C   UNL     1      -0.763  11.034  22.727  0.00  0.00    +0.000 A 
ATOM     10  N   UNL     1      -1.061  12.134  23.550  0.00  0.00    +0.000 N 
ATOM     11  C   UNL     1      -1.172  13.455  23.088  0.00  0.00    +0.000 A 
ATOM     12  C   UNL     1      -1.620  14.478  23.930  0.00  0.00    +0.000 A 
ATOM     13  C   UNL     1      -1.723  15.800  23.478  0.00  0.00    +0.000 A 
ATOM     14  C   UNL     1      -1.349  16.123  22.183  0.00  0.00    +0.000 A 
ATOM     15  C   UNL     1      -0.868  15.126  21.350  0.00  0.00    +0.000 A 
ATOM     16  C   UNL     1      -0.767  13.782  21.793  0.00  0.00    +0.000 A 
ATOM     17  N   UNL     1      -1.057  12.717  19.602  0.00  0.00    +0.000 N 
ATOM     18  C   UNL     1      -0.304  13.369  18.579  0.00  0.00    +0.000 C 
ATOM     19  O   UNL     1      -0.671  13.770  17.490  0.00  0.00    +0.000 OA
ATOM     20  H   UNL     1      -1.625  11.917  24.363  0.00  0.00    +0.000 HD
ENDROOT
BRANCH   1  22
ATOM     21  N   UNL     1       3.663  14.009  18.216  0.00  0.00    +0.000 NA
ATOM     22  C   UNL     1       2.492  13.773  18.622  0.00  0.00    +0.000 C 
ENDBRANCH   1  22
BRANCH  17  23
ATOM     23  N   UNL     1      -2.414  12.687  19.800  0.00  0.00    +0.000 NA
ATOM     24  C   UNL     1      -3.303  11.989  19.175  0.00  0.00    +0.000 C 
BRANCH  24  25
ATOM     25  C   UNL     1      -3.196  11.108  18.018  0.00  0.00    +0.000 A 
ATOM     26  C   UNL     1      -2.042  10.360  17.791  0.00  0.00    +0.000 A 
ATOM     27  C   UNL     1      -1.817   9.798  16.537  0.00  0.00    +0.000 A 
ATOM     28  C   UNL     1      -2.769   9.935  15.524  0.00  0.00    +0.000 A 
ATOM     29  C   UNL     1      -3.988  10.559  15.785  0.00  0.00    +0.000 A 
ATOM     30  C   UNL     1      -4.203  11.118  17.047  0.00  0.00    +0.000 A 
BRANCH  30  31
ATOM     31  N   UNL     1      -5.504  11.714  17.319  0.00  0.00    +0.000 N 
ATOM     32  O   UNL     1      -6.296  11.034  17.987  0.00  0.00    +0.000 OA
ATOM     33  O   UNL     1      -5.729  12.820  16.831  0.00  0.00    +0.000 OA
ENDBRANCH  30  31
ENDBRANCH  24  25
ENDBRANCH  17  23
TORSDOF 4
ENDMDL
MODEL 4
REMARK VINA RESULT:      -6.5      9.507     12.990
REMARK  Name = 
REMARK  4 active torsions:
REMARK  status: ('A' for Active; 'I' for Inactive)
REMARK    1  A    between atoms: C_2  and  C_3
REMARK    2  A    between atoms: N_19  and  N_20
REMARK    3  A    between atoms: C_21  and  C_22
REMARK    4  A    between atoms: C_27  and  N_28
REMARK                            x       y       z     vdW  Elec       q    Type
REMARK                         _______ _______ _______ _____ _____    ______ ____
ROOT
ATOM      1  C   UNL     1      -1.976  14.443  24.172  0.00  0.00    +0.000 C 
ATOM      2  C   UNL     1      -0.972  14.347  23.287  0.00  0.00    +0.000 C 
ATOM      3  C   UNL     1      -1.345  13.667  22.028  0.00  0.00    +0.000 C 
ATOM      4  C   UNL     1      -0.966  14.512  20.808  0.00  0.00    +0.000 A 
ATOM      5  C   UNL     1      -1.480  15.818  20.620  0.00  0.00    +0.000 A 
ATOM      6  C   UNL     1      -1.166  16.556  19.480  0.00  0.00    +0.000 A 
ATOM      7  C   UNL     1      -0.312  16.014  18.527  0.00  0.00    +0.000 A 
ATOM      8  C   UNL     1       0.215  14.733  18.708  0.00  0.00    +0.000 A 
ATOM      9  C   UNL     1      -0.127  13.964  19.829  0.00  0.00    +0.000 A 
ATOM     10  N   UNL     1       0.433  12.688  20.018  0.00  0.00    +0.000 N 
ATOM     11  C   UNL     1       0.045  11.802  21.035  0.00  0.00    +0.000 A 
ATOM     12  C   UNL     1       0.534  10.492  21.075  0.00  0.00    +0.000 A 
ATOM     13  C   UNL     1       0.159   9.605  22.092  0.00  0.00    +0.000 A 
ATOM     14  C   UNL     1      -0.688  10.027  23.105  0.00  0.00    +0.000 A 
ATOM     15  C   UNL     1      -1.149  11.335  23.100  0.00  0.00    +0.000 A 
ATOM     16  C   UNL     1      -0.783  12.239  22.069  0.00  0.00    +0.000 A 
ATOM     17  N   UNL     1      -2.803  13.630  22.156  0.00  0.00    +0.000 N 
ATOM     18  C   UNL     1      -3.198  13.929  23.495  0.00  0.00    +0.000 C 
ATOM     19  O   UNL     1      -4.287  13.799  24.023  0.00  0.00    +0.000 OA
ATOM     20  H   UNL     1       0.780  12.246  19.176  0.00  0.00    +0.000 HD
ENDROOT
BRANCH   1  22
ATOM     21  N   UNL     1      -1.244  15.835  26.466  0.00  0.00    +0.000 NA
ATOM     22  C   UNL     1      -1.576  15.204  25.425  0.00  0.00    +0.000 C 
ENDBRANCH   1  22
BRANCH  17  23
ATOM     23  N   UNL     1      -3.401  12.811  21.232  0.00  0.00    +0.000 NA
ATOM     24  C   UNL     1      -4.519  12.984  20.609  0.00  0.00    +0.000 C 
BRANCH  24  25
ATOM     25  C   UNL     1      -5.546  14.012  20.740  0.00  0.00    +0.000 A 
ATOM     26  C   UNL     1      -5.317  15.313  20.297  0.00  0.00    +0.000 A 
ATOM     27  C   UNL     1      -6.149  16.346  20.724  0.00  0.00    +0.000 A 
ATOM     28  C   UNL     1      -7.243  16.072  21.548  0.00  0.00    +0.000 A 
ATOM     29  C   UNL     1      -7.561  14.755  21.880  0.00  0.00    +0.000 A 
ATOM     30  C   UNL     1      -6.720  13.729  21.445  0.00  0.00    +0.000 A 
BRANCH  30  31
ATOM     31  N   UNL     1      -7.101  12.357  21.753  0.00  0.00    +0.000 N 
ATOM     32  O   UNL     1      -7.675  11.727  20.852  0.00  0.00    +0.000 OA
ATOM     33  O   UNL     1      -6.864  11.947  22.888  0.00  0.00    +0.000 OA
ENDBRANCH  30  31
ENDBRANCH  24  25
ENDBRANCH  17  23
TORSDOF 4
ENDMDL
MODEL 5
REMARK VINA RESULT:      -6.4      7.537     11.500
REMARK  Name = 
REMARK  4 active torsions:
REMARK  status: ('A' for Active; 'I' for Inactive)
REMARK    1  A    between atoms: C_2  and  C_3
REMARK    2  A    between atoms: N_19  and  N_20
REMARK    3  A    between atoms: C_21  and  C_22
REMARK    4  A    between atoms: C_27  and  N_28
REMARK                            x       y       z     vdW  Elec       q    Type
REMARK                         _______ _______ _______ _____ _____    ______ ____
ROOT
ATOM      1  C   UNL     1      -0.577  11.564  22.056  0.00  0.00    +0.000 C 
ATOM      2  C   UNL     1      -1.729  11.288  21.426  0.00  0.00    +0.000 C 
ATOM      3  C   UNL     1      -2.151  12.329  20.464  0.00  0.00    +0.000 C 
ATOM      4  C   UNL     1      -2.452  11.724  19.090  0.00  0.00    +0.000 A 
ATOM      5  C   UNL     1      -1.470  11.007  18.362  0.00  0.00    +0.000 A 
ATOM      6  C   UNL     1      -1.742  10.505  17.090  0.00  0.00    +0.000 A 
ATOM      7  C   UNL     1      -3.005  10.685  16.539  0.00  0.00    +0.000 A 
ATOM      8  C   UNL     1      -3.988  11.376  17.253  0.00  0.00    +0.000 A 
ATOM      9  C   UNL     1      -3.714  11.923  18.515  0.00  0.00    +0.000 A 
ATOM     10  N   UNL     1      -4.718  12.588  19.238  0.00  0.00    +0.000 N 
ATOM     11  C   UNL     1      -4.496  13.278  20.440  0.00  0.00    +0.000 A 
ATOM     12  C   UNL     1      -5.506  14.046  21.029  0.00  0.00    +0.000 A 
ATOM     13  C   UNL     1      -5.294  14.728  22.233  0.00  0.00    +0.000 A 
ATOM     14  C   UNL     1      -4.074  14.627  22.885  0.00  0.00    +0.000 A 
ATOM     15  C   UNL     1      -3.076  13.838  22.332  0.00  0.00    +0.000 A 
ATOM     16  C   UNL     1      -3.277  13.150  21.108  0.00  0.00    +0.000 A 
ATOM     17  N   UNL     1      -0.934  13.137  20.381  0.00  0.00    +0.000 N 
ATOM     18  C   UNL     1      -0.038  12.809  21.443  0.00  0.00    +0.000 C 
ATOM     19  O   UNL     1       0.962  13.395  21.815  0.00  0.00    +0.000 OA
ATOM     20  H   UNL     1      -5.483  12.944  18.677  0.00  0.00    +0.000 HD
ENDROOT
BRANCH   1  22
ATOM     21  N   UNL     1       0.221   9.517  23.761  0.00  0.00    +0.000 NA
ATOM     22  C   UNL     1      -0.141  10.446  22.988  0.00  0.00    +0.000 C 
ENDBRANCH   1  22
BRANCH  17  23
ATOM     23  N   UNL     1      -1.129  14.336  19.744  0.00  0.00    +0.000 NA
ATOM     24  C   UNL     1      -0.327  14.967  18.953  0.00  0.00    +0.000 C 
BRANCH  24  25
ATOM     25  C   UNL     1       1.051  14.692  18.559  0.00  0.00    +0.000 A 
ATOM     26  C   UNL     1       1.462  13.398  18.248  0.00  0.00    +0.000 A 
ATOM     27  C   UNL     1       2.820  13.094  18.207  0.00  0.00    +0.000 A 
ATOM     28  C   UNL     1       3.771  14.095  18.420  0.00  0.00    +0.000 A 
ATOM     29  C   UNL     1       3.371  15.420  18.590  0.00  0.00    +0.000 A 
ATOM     30  C   UNL     1       2.005  15.712  18.629  0.00  0.00    +0.000 A 
BRANCH  30  31
ATOM     31  N   UNL     1       1.608  17.108  18.749  0.00  0.00    +0.000 N 
ATOM     32  O   UNL     1       1.355  17.705  17.692  0.00  0.00    +0.000 OA
ATOM     33  O   UNL     1       1.595  17.595  19.878  0.00  0.00    +0.000 OA
ENDBRANCH  30  31
ENDBRANCH  24  25
ENDBRANCH  17  23
TORSDOF 4
ENDMDL
MODEL 6
REMARK VINA RESULT:      -6.3      9.075     11.547
REMARK  Name = 
REMARK  4 active torsions:
REMARK  status: ('A' for Active; 'I' for Inactive)
REMARK    1  A    between atoms: C_2  and  C_3
REMARK    2  A    between atoms: N_19  and  N_20
REMARK    3  A    between atoms: C_21  and  C_22
REMARK    4  A    between atoms: C_27  and  N_28
REMARK                            x       y       z     vdW  Elec       q    Type
REMARK                         _______ _______ _______ _____ _____    ______ ____
ROOT
ATOM      1  C   UNL     1      -1.572  11.993  18.358  0.00  0.00    +0.000 C 
ATOM      2  C   UNL     1      -2.134  11.559  19.496  0.00  0.00    +0.000 C 
ATOM      3  C   UNL     1      -1.474  12.060  20.721  0.00  0.00    +0.000 C 
ATOM      4  C   UNL     1      -2.487  12.699  21.674  0.00  0.00    +0.000 A 
ATOM      5  C   UNL     1      -3.289  13.798  21.281  0.00  0.00    +0.000 A 
ATOM      6  C   UNL     1      -4.171  14.401  22.176  0.00  0.00    +0.000 A 
ATOM      7  C   UNL     1      -4.287  13.898  23.466  0.00  0.00    +0.000 A 
ATOM      8  C   UNL     1      -3.515  12.803  23.863  0.00  0.00    +0.000 A 
ATOM      9  C   UNL     1      -2.593  12.215  22.985  0.00  0.00    +0.000 A 
ATOM     10  N   UNL     1      -1.843  11.095  23.383  0.00  0.00    +0.000 N 
ATOM     11  C   UNL     1      -0.808  10.530  22.621  0.00  0.00    +0.000 A 
ATOM     12  C   UNL     1      -0.003   9.511  23.142  0.00  0.00    +0.000 A 
ATOM     13  C   UNL     1       1.025   8.937  22.383  0.00  0.00    +0.000 A 
ATOM     14  C   UNL     1       1.242   9.352  21.078  0.00  0.00    +0.000 A 
ATOM     15  C   UNL     1       0.426  10.333  20.537  0.00  0.00    +0.000 A 
ATOM     16  C   UNL     1      -0.612  10.929  21.298  0.00  0.00    +0.000 A 
ATOM     17  N   UNL     1      -0.612  13.103  20.162  0.00  0.00    +0.000 N 
ATOM     18  C   UNL     1      -0.520  12.973  18.743  0.00  0.00    +0.000 C 
ATOM     19  O   UNL     1       0.245  13.518  17.968  0.00  0.00    +0.000 OA
ATOM     20  H   UNL     1      -1.747  10.980  24.385  0.00  0.00    +0.000 HD
ENDROOT
BRANCH   1  22
ATOM     21  N   UNL     1      -2.930  11.113  16.096  0.00  0.00    +0.000 NA
ATOM     22  C   UNL     1      -2.314  11.512  17.121  0.00  0.00    +0.000 C 
ENDBRANCH   1  22
BRANCH  17  23
ATOM     23  N   UNL     1       0.318  13.567  21.057  0.00  0.00    +0.000 NA
ATOM     24  C   UNL     1       0.350  14.704  21.667  0.00  0.00    +0.000 C 
BRANCH  24  25
ATOM     25  C   UNL     1      -0.495  15.888  21.543  0.00  0.00    +0.000 A 
ATOM     26  C   UNL     1      -0.933  16.328  20.296  0.00  0.00    +0.000 A 
ATOM     27  C   UNL     1      -1.440  17.617  20.156  0.00  0.00    +0.000 A 
ATOM     28  C   UNL     1      -1.564  18.449  21.271  0.00  0.00    +0.000 A 
ATOM     29  C   UNL     1      -1.261  17.967  22.545  0.00  0.00    +0.000 A 
ATOM     30  C   UNL     1      -0.754  16.672  22.672  0.00  0.00    +0.000 A 
BRANCH  30  31
ATOM     31  N   UNL     1      -0.500  16.166  24.014  0.00  0.00    +0.000 N 
ATOM     32  O   UNL     1      -1.397  15.481  24.527  0.00  0.00    +0.000 OA
ATOM     33  O   UNL     1       0.560  16.492  24.547  0.00  0.00    +0.000 OA
ENDBRANCH  30  31
ENDBRANCH  24  25
ENDBRANCH  17  23
TORSDOF 4
ENDMDL
MODEL 7
REMARK VINA RESULT:      -6.2     11.135     14.824
REMARK  Name = 
REMARK  4 active torsions:
REMARK  status: ('A' for Active; 'I' for Inactive)
REMARK    1  A    between atoms: C_2  and  C_3
REMARK    2  A    between atoms: N_19  and  N_20
REMARK    3  A    between atoms: C_21  and  C_22
REMARK    4  A    between atoms: C_27  and  N_28
REMARK                            x       y       z     vdW  Elec       q    Type
REMARK                         _______ _______ _______ _____ _____    ______ ____
ROOT
ATOM      1  C   UNL     1      -2.239  12.465  21.997  0.00  0.00    +0.000 C 
ATOM      2  C   UNL     1      -2.864  13.313  22.829  0.00  0.00    +0.000 C 
ATOM      3  C   UNL     1      -3.965  14.070  22.197  0.00  0.00    +0.000 C 
ATOM      4  C   UNL     1      -5.258  13.948  23.009  0.00  0.00    +0.000 A 
ATOM      5  C   UNL     1      -5.855  12.691  23.271  0.00  0.00    +0.000 A 
ATOM      6  C   UNL     1      -7.059  12.599  23.968  0.00  0.00    +0.000 A 
ATOM      7  C   UNL     1      -7.668  13.756  24.439  0.00  0.00    +0.000 A 
ATOM      8  C   UNL     1      -7.081  15.002  24.201  0.00  0.00    +0.000 A 
ATOM      9  C   UNL     1      -5.893  15.111  23.465  0.00  0.00    +0.000 A 
ATOM     10  N   UNL     1      -5.294  16.365  23.258  0.00  0.00    +0.000 N 
ATOM     11  C   UNL     1      -4.185  16.580  22.424  0.00  0.00    +0.000 A 
ATOM     12  C   UNL     1      -3.733  17.873  22.144  0.00  0.00    +0.000 A 
ATOM     13  C   UNL     1      -2.621  18.094  21.321  0.00  0.00    +0.000 A 
ATOM     14  C   UNL     1      -1.924  17.019  20.790  0.00  0.00    +0.000 A 
ATOM     15  C   UNL     1      -2.338  15.730  21.091  0.00  0.00    +0.000 A 
ATOM     16  C   UNL     1      -3.468  15.495  21.916  0.00  0.00    +0.000 A 
ATOM     17  N   UNL     1      -4.114  13.340  20.937  0.00  0.00    +0.000 N 
ATOM     18  C   UNL     1      -2.991  12.488  20.713  0.00  0.00    +0.000 C 
ATOM     19  O   UNL     1      -2.667  11.892  19.703  0.00  0.00    +0.000 OA
ATOM     20  H   UNL     1      -5.920  17.156  23.348  0.00  0.00    +0.000 HD
ENDROOT
BRANCH   1  22
ATOM     21  N   UNL     1      -0.259  10.987  23.273  0.00  0.00    +0.000 NA
ATOM     22  C   UNL     1      -1.157  11.657  22.694  0.00  0.00    +0.000 C 
ENDBRANCH   1  22
BRANCH  17  23
ATOM     23  N   UNL     1      -4.907  13.995  20.029  0.00  0.00    +0.000 NA
ATOM     24  C   UNL     1      -5.983  13.576  19.451  0.00  0.00    +0.000 C 
BRANCH  24  25
ATOM     25  C   UNL     1      -6.647  12.277  19.477  0.00  0.00    +0.000 A 
ATOM     26  C   UNL     1      -7.547  11.953  20.490  0.00  0.00    +0.000 A 
ATOM     27  C   UNL     1      -7.908  10.624  20.697  0.00  0.00    +0.000 A 
ATOM     28  C   UNL     1      -7.414   9.623  19.857  0.00  0.00    +0.000 A 
ATOM     29  C   UNL     1      -6.626   9.955  18.755  0.00  0.00    +0.000 A 
ATOM     30  C   UNL     1      -6.273  11.292  18.558  0.00  0.00    +0.000 A 
BRANCH  30  31
ATOM     31  N   UNL     1      -5.499  11.626  17.370  0.00  0.00    +0.000 N 
ATOM     32  O   UNL     1      -5.958  12.519  16.643  0.00  0.00    +0.000 OA
ATOM     33  O   UNL     1      -4.479  10.972  17.159  0.00  0.00    +0.000 OA
ENDBRANCH  30  31
ENDBRANCH  24  25
ENDBRANCH  17  23
TORSDOF 4
ENDMDL
MODEL 8
REMARK VINA RESULT:      -6.0      7.163     10.674
REMARK  Name = 
REMARK  4 active torsions:
REMARK  status: ('A' for Active; 'I' for Inactive)
REMARK    1  A    between atoms: C_2  and  C_3
REMARK    2  A    between atoms: N_19  and  N_20
REMARK    3  A    between atoms: C_21  and  C_22
REMARK    4  A    between atoms: C_27  and  N_28
REMARK                            x       y       z     vdW  Elec       q    Type
REMARK                         _______ _______ _______ _____ _____    ______ ____
ROOT
ATOM      1  C   UNL     1       2.171  15.195  21.765  0.00  0.00    +0.000 C 
ATOM      2  C   UNL     1       1.140  16.009  22.040  0.00  0.00    +0.000 C 
ATOM      3  C   UNL     1      -0.139  15.585  21.430  0.00  0.00    +0.000 C 
ATOM      4  C   UNL     1      -1.254  15.512  22.477  0.00  0.00    +0.000 A 
ATOM      5  C   UNL     1      -1.156  14.671  23.611  0.00  0.00    +0.000 A 
ATOM      6  C   UNL     1      -2.201  14.577  24.529  0.00  0.00    +0.000 A 
ATOM      7  C   UNL     1      -3.345  15.344  24.344  0.00  0.00    +0.000 A 
ATOM      8  C   UNL     1      -3.449  16.191  23.238  0.00  0.00    +0.000 A 
ATOM      9  C   UNL     1      -2.422  16.262  22.285  0.00  0.00    +0.000 A 
ATOM     10  N   UNL     1      -2.522  17.140  21.192  0.00  0.00    +0.000 N 
ATOM     11  C   UNL     1      -1.610  17.177  20.126  0.00  0.00    +0.000 A 
ATOM     12  C   UNL     1      -1.849  17.968  18.998  0.00  0.00    +0.000 A 
ATOM     13  C   UNL     1      -0.938  18.017  17.936  0.00  0.00    +0.000 A 
ATOM     14  C   UNL     1       0.245  17.297  18.001  0.00  0.00    +0.000 A 
ATOM     15  C   UNL     1       0.514  16.538  19.130  0.00  0.00    +0.000 A 
ATOM     16  C   UNL     1      -0.406  16.475  20.208  0.00  0.00    +0.000 A 
ATOM     17  N   UNL     1       0.201  14.230  20.992  0.00  0.00    +0.000 N 
ATOM     18  C   UNL     1       1.615  14.031  21.023  0.00  0.00    +0.000 C 
ATOM     19  O   UNL     1       2.275  13.125  20.549  0.00  0.00    +0.000 OA
ATOM     20  H   UNL     1      -3.466  17.421  20.956  0.00  0.00    +0.000 HD
ENDROOT
BRANCH   1  22
ATOM     21  N   UNL     1       4.516  15.981  23.036  0.00  0.00    +0.000 NA
ATOM     22  C   UNL     1       3.453  15.625  22.460  0.00  0.00    +0.000 C 
ENDBRANCH   1  22
BRANCH  17  23
ATOM     23  N   UNL     1      -0.737  13.687  20.152  0.00  0.00    +0.000 NA
ATOM     24  C   UNL     1      -1.234  12.495  20.164  0.00  0.00    +0.000 C 
BRANCH  24  25
ATOM     25  C   UNL     1      -0.908  11.324  20.971  0.00  0.00    +0.000 A 
ATOM     26  C   UNL     1      -1.294  11.247  22.308  0.00  0.00    +0.000 A 
ATOM     27  C   UNL     1      -0.700  10.305  23.145  0.00  0.00    +0.000 A 
ATOM     28  C   UNL     1       0.238   9.404  22.637  0.00  0.00    +0.000 A 
ATOM     29  C   UNL     1       0.524   9.382  21.272  0.00  0.00    +0.000 A 
ATOM     30  C   UNL     1      -0.079  10.330  20.442  0.00  0.00    +0.000 A 
BRANCH  30  31
ATOM     31  N   UNL     1       0.187  10.254  19.012  0.00  0.00    +0.000 N 
ATOM     32  O   UNL     1       1.320  10.595  18.641  0.00  0.00    +0.000 OA
ATOM     33  O   UNL     1      -0.739   9.901  18.284  0.00  0.00    +0.000 OA
ENDBRANCH  30  31
ENDBRANCH  24  25
ENDBRANCH  17  23
TORSDOF 4
ENDMDL
MODEL 9
REMARK VINA RESULT:      -6.0      8.720     12.220
REMARK  Name = 
REMARK  4 active torsions:
REMARK  status: ('A' for Active; 'I' for Inactive)
REMARK    1  A    between atoms: C_2  and  C_3
REMARK    2  A    between atoms: N_19  and  N_20
REMARK    3  A    between atoms: C_21  and  C_22
REMARK    4  A    between atoms: C_27  and  N_28
REMARK                            x       y       z     vdW  Elec       q    Type
REMARK                         _______ _______ _______ _____ _____    ______ ____
ROOT
ATOM      1  C   UNL     1       0.689  13.546  19.433  0.00  0.00    +0.000 C 
ATOM      2  C   UNL     1      -0.556  13.822  19.016  0.00  0.00    +0.000 C 
ATOM      3  C   UNL     1      -1.616  13.179  19.823  0.00  0.00    +0.000 C 
ATOM      4  C   UNL     1      -2.653  14.204  20.292  0.00  0.00    +0.000 A 
ATOM      5  C   UNL     1      -2.290  15.320  21.085  0.00  0.00    +0.000 A 
ATOM      6  C   UNL     1      -3.252  16.217  21.547  0.00  0.00    +0.000 A 
ATOM      7  C   UNL     1      -4.584  16.031  21.199  0.00  0.00    +0.000 A 
ATOM      8  C   UNL     1      -4.954  14.943  20.402  0.00  0.00    +0.000 A 
ATOM      9  C   UNL     1      -4.002  14.010  19.968  0.00  0.00    +0.000 A 
ATOM     10  N   UNL     1      -4.379  12.938  19.141  0.00  0.00    +0.000 N 
ATOM     11  C   UNL     1      -3.521  11.889  18.773  0.00  0.00    +0.000 A 
ATOM     12  C   UNL     1      -4.001  10.777  18.074  0.00  0.00    +0.000 A 
ATOM     13  C   UNL     1      -3.149   9.732  17.696  0.00  0.00    +0.000 A 
ATOM     14  C   UNL     1      -1.794   9.800  17.983  0.00  0.00    +0.000 A 
ATOM     15  C   UNL     1      -1.298  10.915  18.641  0.00  0.00    +0.000 A 
ATOM     16  C   UNL     1      -2.153  11.975  19.038  0.00  0.00    +0.000 A 
ATOM     17  N   UNL     1      -0.841  12.715  20.974  0.00  0.00    +0.000 N 
ATOM     18  C   UNL     1       0.558  12.766  20.693  0.00  0.00    +0.000 C 
ATOM     19  O   UNL     1       1.486  12.282  21.316  0.00  0.00    +0.000 OA
ATOM     20  H   UNL     1      -5.360  12.691  19.184  0.00  0.00    +0.000 HD
ENDROOT
BRANCH   1  22
ATOM     21  N   UNL     1       2.629  14.876  17.949  0.00  0.00    +0.000 NA
ATOM     22  C   UNL     1       1.749  14.273  18.622  0.00  0.00    +0.000 C 
ENDBRANCH   1  22
BRANCH  17  23
ATOM     23  N   UNL     1      -1.539  11.846  21.774  0.00  0.00    +0.000 NA
ATOM     24  C   UNL     1      -2.180  12.096  22.867  0.00  0.00    +0.000 C 
BRANCH  24  25
ATOM     25  C   UNL     1      -2.294  13.316  23.658  0.00  0.00    +0.000 A 
ATOM     26  C   UNL     1      -1.201  14.163  23.831  0.00  0.00    +0.000 A 
ATOM     27  C   UNL     1      -1.221  15.121  24.841  0.00  0.00    +0.000 A 
ATOM     28  C   UNL     1      -2.353  15.273  25.643  0.00  0.00    +0.000 A 
ATOM     29  C   UNL     1      -3.503  14.528  25.386  0.00  0.00    +0.000 A 
ATOM     30  C   UNL     1      -3.471  13.571  24.369  0.00  0.00    +0.000 A 
BRANCH  30  31
ATOM     31  N   UNL     1      -4.700  12.843  24.076  0.00  0.00    +0.000 N 
ATOM     32  O   UNL     1      -5.427  13.319  23.193  0.00  0.00    +0.000 OA
ATOM     33  O   UNL     1      -4.938  11.844  24.753  0.00  0.00    +0.000 OA
ENDBRANCH  30  31
ENDBRANCH  24  25
ENDBRANCH  17  23
TORSDOF 4
ENDMDL
