MODEL 1
REMARK VINA RESULT:      -8.3      0.000      0.000
REMARK  Name = 
REMARK  8 active torsions:
REMARK  status: ('A' for Active; 'I' for Inactive)
REMARK    1  A    between atoms: O_1  and  C_2
REMARK    2  A    between atoms: C_7  and  C_8
REMARK    3  A    between atoms: C_8  and  N_9
REMARK    4  A    between atoms: N_9  and  C_10
REMARK    5  A    between atoms: N_9  and  C_18
REMARK    6  A    between atoms: C_10  and  C_11
REMARK    7  A    between atoms: C_11  and  C_12
REMARK    8  A    between atoms: C_18  and  C_19
REMARK                            x       y       z     vdW  Elec       q    Type
REMARK                         _______ _______ _______ _____ _____    ______ ____
ROOT
ATOM      1  N   UNL     1       3.851   5.064  17.094  0.00  0.00    +0.000 NA
ENDROOT
BRANCH   1   2
ATOM      2  C   UNL     1       3.652   3.692  17.632  0.00  0.00    +0.000 C 
BRANCH   2   8
ATOM      3  C   UNL     1       3.583   2.907  20.039  0.00  0.00    +0.000 A 
ATOM      4  C   UNL     1       2.889   2.603  21.212  0.00  0.00    +0.000 A 
ATOM      5  C   UNL     1       1.546   2.956  21.329  0.00  0.00    +0.000 A 
ATOM      6  C   UNL     1       0.913   3.637  20.291  0.00  0.00    +0.000 A 
ATOM      7  C   UNL     1       1.616   3.948  19.123  0.00  0.00    +0.000 A 
ATOM      8  C   UNL     1       2.962   3.574  18.976  0.00  0.00    +0.000 A 
BRANCH   3   9
ATOM      9  O   UNL     1       4.886   2.510  19.904  0.00  0.00    +0.000 OA
ATOM     10  H   UNL     1       5.435   3.033  20.511  0.00  0.00    +0.000 HD
ENDBRANCH   3   9
ENDBRANCH   2   8
ENDBRANCH   1   2
BRANCH   1  11
ATOM     11  C   UNL     1       3.806   6.059  18.206  0.00  0.00    +0.000 C 
BRANCH  11  12
ATOM     12  C   UNL     1       3.133   7.393  17.806  0.00  0.00    +0.000 C 
BRANCH  12  13
ATOM     13  C   UNL     1       2.178   8.042  18.785  0.00  0.00    +0.000 A 
ATOM     14  C   UNL     1       2.041   7.450  20.057  0.00  0.00    +0.000 A 
ATOM     15  C   UNL     1       1.214   8.016  21.029  0.00  0.00    +0.000 A 
ATOM     16  C   UNL     1       0.524   9.190  20.749  0.00  0.00    +0.000 A 
ATOM     17  C   UNL     1       0.668   9.797  19.502  0.00  0.00    +0.000 A 
ATOM     18  C   UNL     1       1.493   9.231  18.524  0.00  0.00    +0.000 A 
ENDBRANCH  12  13
ENDBRANCH  11  12
ENDBRANCH   1  11
BRANCH   1  19
ATOM     19  C   UNL     1       5.168   5.103  16.412  0.00  0.00    +0.000 C 
BRANCH  19  20
ATOM     20  C   UNL     1       6.268   5.771  17.210  0.00  0.00    +0.000 A 
ATOM     21  C   UNL     1       6.705   7.061  16.872  0.00  0.00    +0.000 A 
ATOM     22  C   UNL     1       7.688   7.695  17.633  0.00  0.00    +0.000 A 
ATOM     23  C   UNL     1       8.238   7.047  18.736  0.00  0.00    +0.000 A 
ATOM     24  C   UNL     1       7.810   5.764  19.079  0.00  0.00    +0.000 A 
ATOM     25  C   UNL     1       6.826   5.128  18.323  0.00  0.00    +0.000 A 
ENDBRANCH  19  20
ENDBRANCH   1  19
TORSDOF 8
ENDMDL
MODEL 2
REMARK VINA RESULT:      -8.3      2.394      6.022
REMARK  Name = 
REMARK  8 active torsions:
REMARK  status: ('A' for Active; 'I' for Inactive)
REMARK    1  A    between atoms: O_1  and  C_2
REMARK    2  A    between atoms: C_7  and  C_8
REMARK    3  A    between atoms: C_8  and  N_9
REMARK    4  A    between atoms: N_9  and  C_10
REMARK    5  A    between atoms: N_9  and  C_18
REMARK    6  A    between atoms: C_10  and  C_11
REMARK    7  A    between atoms: C_11  and  C_12
REMARK    8  A    between atoms: C_18  and  C_19
REMARK                            x       y       z     vdW  Elec       q    Type
REMARK                         _______ _______ _______ _____ _____    ______ ____
ROOT
ATOM      1  N   UNL     1       4.610   4.678  16.417  0.00  0.00    +0.000 NA
ENDROOT
BRANCH   1   2
ATOM      2  C   UNL     1       5.739   3.779  16.058  0.00  0.00    +0.000 C 
BRANCH   2   8
ATOM      3  C   UNL     1       7.250   5.012  14.441  0.00  0.00    +0.000 A 
ATOM      4  C   UNL     1       7.664   5.328  13.146  0.00  0.00    +0.000 A 
ATOM      5  C   UNL     1       7.170   4.598  12.067  0.00  0.00    +0.000 A 
ATOM      6  C   UNL     1       6.292   3.538  12.288  0.00  0.00    +0.000 A 
ATOM      7  C   UNL     1       5.889   3.220  13.588  0.00  0.00    +0.000 A 
ATOM      8  C   UNL     1       6.354   3.963  14.685  0.00  0.00    +0.000 A 
BRANCH   3   9
ATOM      9  O   UNL     1       7.692   5.766  15.494  0.00  0.00    +0.000 OA
ATOM     10  H   UNL     1       7.206   5.502  16.292  0.00  0.00    +0.000 HD
ENDBRANCH   3   9
ENDBRANCH   2   8
ENDBRANCH   1   2
BRANCH   1  11
ATOM     11  C   UNL     1       3.377   3.874  16.665  0.00  0.00    +0.000 C 
BRANCH  11  12
ATOM     12  C   UNL     1       3.583   2.739  17.695  0.00  0.00    +0.000 C 
BRANCH  12  13
ATOM     13  C   UNL     1       2.851   2.822  19.017  0.00  0.00    +0.000 A 
ATOM     14  C   UNL     1       1.461   3.057  18.982  0.00  0.00    +0.000 A 
ATOM     15  C   UNL     1       0.709   3.101  20.158  0.00  0.00    +0.000 A 
ATOM     16  C   UNL     1       1.332   2.895  21.384  0.00  0.00    +0.000 A 
ATOM     17  C   UNL     1       2.702   2.641  21.429  0.00  0.00    +0.000 A 
ATOM     18  C   UNL     1       3.460   2.599  20.254  0.00  0.00    +0.000 A 
ENDBRANCH  12  13
ENDBRANCH  11  12
ENDBRANCH   1  11
BRANCH   1  19
ATOM     19  C   UNL     1       4.994   5.435  17.633  0.00  0.00    +0.000 C 
BRANCH  19  20
ATOM     20  C   UNL     1       3.938   6.398  18.131  0.00  0.00    +0.000 A 
ATOM     21  C   UNL     1       3.559   7.501  17.350  0.00  0.00    +0.000 A 
ATOM     22  C   UNL     1       2.555   8.366  17.788  0.00  0.00    +0.000 A 
ATOM     23  C   UNL     1       1.921   8.134  19.006  0.00  0.00    +0.000 A 
ATOM     24  C   UNL     1       2.291   7.040  19.789  0.00  0.00    +0.000 A 
ATOM     25  C   UNL     1       3.292   6.172  19.354  0.00  0.00    +0.000 A 
ENDBRANCH  19  20
ENDBRANCH   1  19
TORSDOF 8
ENDMDL
MODEL 3
REMARK VINA RESULT:      -8.3      0.483      1.068
REMARK  Name = 
REMARK  8 active torsions:
REMARK  status: ('A' for Active; 'I' for Inactive)
REMARK    1  A    between atoms: O_1  and  C_2
REMARK    2  A    between atoms: C_7  and  C_8
REMARK    3  A    between atoms: C_8  and  N_9
REMARK    4  A    between atoms: N_9  and  C_10
REMARK    5  A    between atoms: N_9  and  C_18
REMARK    6  A    between atoms: C_10  and  C_11
REMARK    7  A    between atoms: C_11  and  C_12
REMARK    8  A    between atoms: C_18  and  C_19
REMARK                            x       y       z     vdW  Elec       q    Type
REMARK                         _______ _______ _______ _____ _____    ______ ____
ROOT
ATOM      1  N   UNL     1       4.276   4.647  17.235  0.00  0.00    +0.000 NA
ENDROOT
BRANCH   1   2
ATOM      2  C   UNL     1       3.552   3.400  17.600  0.00  0.00    +0.000 C 
BRANCH   2   8
ATOM      3  C   UNL     1       3.563   2.772  20.054  0.00  0.00    +0.000 A 
ATOM      4  C   UNL     1       2.906   2.534  21.263  0.00  0.00    +0.000 A 
ATOM      5  C   UNL     1       1.560   2.872  21.395  0.00  0.00    +0.000 A 
ATOM      6  C   UNL     1       0.887   3.475  20.333  0.00  0.00    +0.000 A 
ATOM      7  C   UNL     1       1.553   3.720  19.128  0.00  0.00    +0.000 A 
ATOM      8  C   UNL     1       2.901   3.359  18.967  0.00  0.00    +0.000 A 
BRANCH   3   9
ATOM      9  O   UNL     1       4.867   2.388  19.908  0.00  0.00    +0.000 OA
ATOM     10  H   UNL     1       5.406   3.177  19.733  0.00  0.00    +0.000 HD
ENDBRANCH   3   9
ENDBRANCH   2   8
ENDBRANCH   1   2
BRANCH   1  11
ATOM     11  C   UNL     1       3.984   5.717  18.233  0.00  0.00    +0.000 C 
BRANCH  11  12
ATOM     12  C   UNL     1       3.165   6.892  17.650  0.00  0.00    +0.000 C 
BRANCH  12  13
ATOM     13  C   UNL     1       2.325   7.725  18.593  0.00  0.00    +0.000 A 
ATOM     14  C   UNL     1       2.178   7.267  19.918  0.00  0.00    +0.000 A 
ATOM     15  C   UNL     1       1.456   8.003  20.858  0.00  0.00    +0.000 A 
ATOM     16  C   UNL     1       0.882   9.217  20.493  0.00  0.00    +0.000 A 
ATOM     17  C   UNL     1       1.038   9.690  19.191  0.00  0.00    +0.000 A 
ATOM     18  C   UNL     1       1.759   8.954  18.244  0.00  0.00    +0.000 A 
ENDBRANCH  12  13
ENDBRANCH  11  12
ENDBRANCH   1  11
BRANCH   1  19
ATOM     19  C   UNL     1       5.728   4.342  17.205  0.00  0.00    +0.000 C 
BRANCH  19  20
ATOM     20  C   UNL     1       6.615   5.470  17.688  0.00  0.00    +0.000 A 
ATOM     21  C   UNL     1       7.327   5.346  18.891  0.00  0.00    +0.000 A 
ATOM     22  C   UNL     1       8.179   6.367  19.315  0.00  0.00    +0.000 A 
ATOM     23  C   UNL     1       8.326   7.516  18.542  0.00  0.00    +0.000 A 
ATOM     24  C   UNL     1       7.622   7.647  17.345  0.00  0.00    +0.000 A 
ATOM     25  C   UNL     1       6.772   6.628  16.916  0.00  0.00    +0.000 A 
ENDBRANCH  19  20
ENDBRANCH   1  19
TORSDOF 8
ENDMDL
MODEL 4
REMARK VINA RESULT:      -8.3      1.224      4.982
REMARK  Name = 
REMARK  8 active torsions:
REMARK  status: ('A' for Active; 'I' for Inactive)
REMARK    1  A    between atoms: O_1  and  C_2
REMARK    2  A    between atoms: C_7  and  C_8
REMARK    3  A    between atoms: C_8  and  N_9
REMARK    4  A    between atoms: N_9  and  C_10
REMARK    5  A    between atoms: N_9  and  C_18
REMARK    6  A    between atoms: C_10  and  C_11
REMARK    7  A    between atoms: C_11  and  C_12
REMARK    8  A    between atoms: C_18  and  C_19
REMARK                            x       y       z     vdW  Elec       q    Type
REMARK                         _______ _______ _______ _____ _____    ______ ____
ROOT
ATOM      1  N   UNL     1       3.295   6.479  18.145  0.00  0.00    +0.000 NA
ENDROOT
BRANCH   1   2
ATOM      2  C   UNL     1       4.357   5.918  17.269  0.00  0.00    +0.000 C 
BRANCH   2   8
ATOM      3  C   UNL     1       6.332   5.426  18.778  0.00  0.00    +0.000 A 
ATOM      4  C   UNL     1       7.572   5.760  19.324  0.00  0.00    +0.000 A 
ATOM      5  C   UNL     1       8.289   6.835  18.801  0.00  0.00    +0.000 A 
ATOM      6  C   UNL     1       7.781   7.548  17.717  0.00  0.00    +0.000 A 
ATOM      7  C   UNL     1       6.543   7.202  17.167  0.00  0.00    +0.000 A 
ATOM      8  C   UNL     1       5.793   6.141  17.700  0.00  0.00    +0.000 A 
BRANCH   3   9
ATOM      9  O   UNL     1       5.604   4.407  19.329  0.00  0.00    +0.000 OA
ATOM     10  H   UNL     1       5.915   4.259  20.237  0.00  0.00    +0.000 HD
ENDBRANCH   3   9
ENDBRANCH   2   8
ENDBRANCH   1   2
BRANCH   1  11
ATOM     11  C   UNL     1       3.056   7.912  17.804  0.00  0.00    +0.000 C 
BRANCH  11  12
ATOM     12  C   UNL     1       1.598   8.365  18.053  0.00  0.00    +0.000 C 
BRANCH  12  13
ATOM     13  C   UNL     1       1.245   8.949  19.404  0.00  0.00    +0.000 A 
ATOM     14  C   UNL     1       0.600  10.202  19.428  0.00  0.00    +0.000 A 
ATOM     15  C   UNL     1       0.201  10.784  20.632  0.00  0.00    +0.000 A 
ATOM     16  C   UNL     1       0.427  10.115  21.830  0.00  0.00    +0.000 A 
ATOM     17  C   UNL     1       1.045   8.865  21.818  0.00  0.00    +0.000 A 
ATOM     18  C   UNL     1       1.449   8.280  20.613  0.00  0.00    +0.000 A 
ENDBRANCH  12  13
ENDBRANCH  11  12
ENDBRANCH   1  11
BRANCH   1  19
ATOM     19  C   UNL     1       2.062   5.680  17.941  0.00  0.00    +0.000 C 
BRANCH  19  20
ATOM     20  C   UNL     1       1.847   4.586  18.965  0.00  0.00    +0.000 A 
ATOM     21  C   UNL     1       2.158   4.809  20.316  0.00  0.00    +0.000 A 
ATOM     22  C   UNL     1       1.920   3.817  21.268  0.00  0.00    +0.000 A 
ATOM     23  C   UNL     1       1.367   2.599  20.879  0.00  0.00    +0.000 A 
ATOM     24  C   UNL     1       1.055   2.369  19.539  0.00  0.00    +0.000 A 
ATOM     25  C   UNL     1       1.289   3.358  18.585  0.00  0.00    +0.000 A 
ENDBRANCH  19  20
ENDBRANCH   1  19
TORSDOF 8
ENDMDL
MODEL 5
REMARK VINA RESULT:      -8.3      1.695      2.613
REMARK  Name = 
REMARK  8 active torsions:
REMARK  status: ('A' for Active; 'I' for Inactive)
REMARK    1  A    between atoms: O_1  and  C_2
REMARK    2  A    between atoms: C_7  and  C_8
REMARK    3  A    between atoms: C_8  and  N_9
REMARK    4  A    between atoms: N_9  and  C_10
REMARK    5  A    between atoms: N_9  and  C_18
REMARK    6  A    between atoms: C_10  and  C_11
REMARK    7  A    between atoms: C_11  and  C_12
REMARK    8  A    between atoms: C_18  and  C_19
REMARK                            x       y       z     vdW  Elec       q    Type
REMARK                         _______ _______ _______ _____ _____    ______ ____
ROOT
ATOM      1  N   UNL     1       4.303   4.611  16.963  0.00  0.00    +0.000 NA
ENDROOT
BRANCH   1   2
ATOM      2  C   UNL     1       3.567   3.400  17.412  0.00  0.00    +0.000 C 
BRANCH   2   8
ATOM      3  C   UNL     1       3.536   2.912  19.898  0.00  0.00    +0.000 A 
ATOM      4  C   UNL     1       2.862   2.771  21.113  0.00  0.00    +0.000 A 
ATOM      5  C   UNL     1       1.532   3.173  21.214  0.00  0.00    +0.000 A 
ATOM      6  C   UNL     1       0.891   3.742  20.115  0.00  0.00    +0.000 A 
ATOM      7  C   UNL     1       1.574   3.890  18.903  0.00  0.00    +0.000 A 
ATOM      8  C   UNL     1       2.906   3.464  18.775  0.00  0.00    +0.000 A 
BRANCH   3   9
ATOM      9  O   UNL     1       4.824   2.466  19.785  0.00  0.00    +0.000 OA
ATOM     10  H   UNL     1       4.877   1.856  19.031  0.00  0.00    +0.000 HD
ENDBRANCH   3   9
ENDBRANCH   2   8
ENDBRANCH   1   2
BRANCH   1  11
ATOM     11  C   UNL     1       4.213   5.678  18.002  0.00  0.00    +0.000 C 
BRANCH  11  12
ATOM     12  C   UNL     1       3.629   7.006  17.467  0.00  0.00    +0.000 C 
BRANCH  12  13
ATOM     13  C   UNL     1       2.643   7.761  18.332  0.00  0.00    +0.000 A 
ATOM     14  C   UNL     1       2.404   7.273  19.632  0.00  0.00    +0.000 A 
ATOM     15  C   UNL     1       1.543   7.941  20.505  0.00  0.00    +0.000 A 
ATOM     16  C   UNL     1       0.920   9.115  20.096  0.00  0.00    +0.000 A 
ATOM     17  C   UNL     1       1.164   9.619  18.819  0.00  0.00    +0.000 A 
ATOM     18  C   UNL     1       2.024   8.951  17.941  0.00  0.00    +0.000 A 
ENDBRANCH  12  13
ENDBRANCH  11  12
ENDBRANCH   1  11
BRANCH   1  19
ATOM     19  C   UNL     1       5.718   4.227  16.729  0.00  0.00    +0.000 C 
BRANCH  19  20
ATOM     20  C   UNL     1       6.147   4.270  15.278  0.00  0.00    +0.000 A 
ATOM     21  C   UNL     1       5.396   3.604  14.297  0.00  0.00    +0.000 A 
ATOM     22  C   UNL     1       5.765   3.679  12.953  0.00  0.00    +0.000 A 
ATOM     23  C   UNL     1       6.884   4.419  12.581  0.00  0.00    +0.000 A 
ATOM     24  C   UNL     1       7.637   5.084  13.549  0.00  0.00    +0.000 A 
ATOM     25  C   UNL     1       7.269   5.014  14.893  0.00  0.00    +0.000 A 
ENDBRANCH  19  20
ENDBRANCH   1  19
TORSDOF 8
ENDMDL
MODEL 6
REMARK VINA RESULT:      -8.2      1.934      4.806
REMARK  Name = 
REMARK  8 active torsions:
REMARK  status: ('A' for Active; 'I' for Inactive)
REMARK    1  A    between atoms: O_1  and  C_2
REMARK    2  A    between atoms: C_7  and  C_8
REMARK    3  A    between atoms: C_8  and  N_9
REMARK    4  A    between atoms: N_9  and  C_10
REMARK    5  A    between atoms: N_9  and  C_18
REMARK    6  A    between atoms: C_10  and  C_11
REMARK    7  A    between atoms: C_11  and  C_12
REMARK    8  A    between atoms: C_18  and  C_19
REMARK                            x       y       z     vdW  Elec       q    Type
REMARK                         _______ _______ _______ _____ _____    ______ ____
ROOT
ATOM      1  N   UNL     1       3.072   6.113  18.028  0.00  0.00    +0.000 NA
ENDROOT
BRANCH   1   2
ATOM      2  C   UNL     1       2.959   7.595  18.003  0.00  0.00    +0.000 C 
BRANCH   2   8
ATOM      3  C   UNL     1       1.389   9.459  18.696  0.00  0.00    +0.000 A 
ATOM      4  C   UNL     1       0.665  10.157  19.664  0.00  0.00    +0.000 A 
ATOM      5  C   UNL     1       0.546   9.632  20.949  0.00  0.00    +0.000 A 
ATOM      6  C   UNL     1       1.121   8.399  21.252  0.00  0.00    +0.000 A 
ATOM      7  C   UNL     1       1.836   7.699  20.275  0.00  0.00    +0.000 A 
ATOM      8  C   UNL     1       1.991   8.227  18.983  0.00  0.00    +0.000 A 
BRANCH   3   9
ATOM      9  O   UNL     1       1.552  10.003  17.451  0.00  0.00    +0.000 OA
ATOM     10  H   UNL     1       2.406  10.465  17.423  0.00  0.00    +0.000 HD
ENDBRANCH   3   9
ENDBRANCH   2   8
ENDBRANCH   1   2
BRANCH   1  11
ATOM     11  C   UNL     1       1.796   5.495  17.562  0.00  0.00    +0.000 C 
BRANCH  11  12
ATOM     12  C   UNL     1       1.747   3.963  17.766  0.00  0.00    +0.000 C 
BRANCH  12  13
ATOM     13  C   UNL     1       1.959   3.413  19.160  0.00  0.00    +0.000 A 
ATOM     14  C   UNL     1       3.231   2.892  19.472  0.00  0.00    +0.000 A 
ATOM     15  C   UNL     1       3.518   2.409  20.750  0.00  0.00    +0.000 A 
ATOM     16  C   UNL     1       2.541   2.453  21.740  0.00  0.00    +0.000 A 
ATOM     17  C   UNL     1       1.286   2.985  21.449  0.00  0.00    +0.000 A 
ATOM     18  C   UNL     1       0.994   3.468  20.168  0.00  0.00    +0.000 A 
ENDBRANCH  12  13
ENDBRANCH  11  12
ENDBRANCH   1  11
BRANCH   1  19
ATOM     19  C   UNL     1       4.196   5.723  17.142  0.00  0.00    +0.000 C 
BRANCH  19  20
ATOM     20  C   UNL     1       5.570   6.002  17.712  0.00  0.00    +0.000 A 
ATOM     21  C   UNL     1       6.391   6.984  17.135  0.00  0.00    +0.000 A 
ATOM     22  C   UNL     1       7.640   7.273  17.686  0.00  0.00    +0.000 A 
ATOM     23  C   UNL     1       8.076   6.586  18.816  0.00  0.00    +0.000 A 
ATOM     24  C   UNL     1       7.268   5.608  19.396  0.00  0.00    +0.000 A 
ATOM     25  C   UNL     1       6.018   5.318  18.850  0.00  0.00    +0.000 A 
ENDBRANCH  19  20
ENDBRANCH   1  19
TORSDOF 8
ENDMDL
MODEL 7
REMARK VINA RESULT:      -8.2      1.977      2.794
REMARK  Name = 
REMARK  8 active torsions:
REMARK  status: ('A' for Active; 'I' for Inactive)
REMARK    1  A    between atoms: O_1  and  C_2
REMARK    2  A    between atoms: C_7  and  C_8
REMARK    3  A    between atoms: C_8  and  N_9
REMARK    4  A    between atoms: N_9  and  C_10
REMARK    5  A    between atoms: N_9  and  C_18
REMARK    6  A    between atoms: C_10  and  C_11
REMARK    7  A    between atoms: C_11  and  C_12
REMARK    8  A    between atoms: C_18  and  C_19
REMARK                            x       y       z     vdW  Elec       q    Type
REMARK                         _______ _______ _______ _____ _____    ______ ____
ROOT
ATOM      1  N   UNL     1       4.601   4.907  16.533  0.00  0.00    +0.000 NA
ENDROOT
BRANCH   1   2
ATOM      2  C   UNL     1       4.036   3.603  16.970  0.00  0.00    +0.000 C 
BRANCH   2   8
ATOM      3  C   UNL     1       3.779   3.136  19.447  0.00  0.00    +0.000 A 
ATOM      4  C   UNL     1       2.992   2.927  20.581  0.00  0.00    +0.000 A 
ATOM      5  C   UNL     1       1.622   3.172  20.525  0.00  0.00    +0.000 A 
ATOM      6  C   UNL     1       1.049   3.654  19.349  0.00  0.00    +0.000 A 
ATOM      7  C   UNL     1       1.844   3.870  18.218  0.00  0.00    +0.000 A 
ATOM      8  C   UNL     1       3.222   3.601  18.248  0.00  0.00    +0.000 A 
BRANCH   3   9
ATOM      9  O   UNL     1       5.114   2.841  19.488  0.00  0.00    +0.000 OA
ATOM     10  H   UNL     1       5.612   3.668  19.593  0.00  0.00    +0.000 HD
ENDBRANCH   3   9
ENDBRANCH   2   8
ENDBRANCH   1   2
BRANCH   1  11
ATOM     11  C   UNL     1       4.425   5.926  17.609  0.00  0.00    +0.000 C 
BRANCH  11  12
ATOM     12  C   UNL     1       3.593   7.151  17.161  0.00  0.00    +0.000 C 
BRANCH  12  13
ATOM     13  C   UNL     1       2.661   7.796  18.164  0.00  0.00    +0.000 A 
ATOM     14  C   UNL     1       2.514   7.170  19.419  0.00  0.00    +0.000 A 
ATOM     15  C   UNL     1       1.708   7.729  20.412  0.00  0.00    +0.000 A 
ATOM     16  C   UNL     1       1.049   8.930  20.172  0.00  0.00    +0.000 A 
ATOM     17  C   UNL     1       1.204   9.569  18.942  0.00  0.00    +0.000 A 
ATOM     18  C   UNL     1       2.008   9.011  17.943  0.00  0.00    +0.000 A 
ENDBRANCH  12  13
ENDBRANCH  11  12
ENDBRANCH   1  11
BRANCH   1  19
ATOM     19  C   UNL     1       6.041   4.706  16.234  0.00  0.00    +0.000 C 
BRANCH  19  20
ATOM     20  C   UNL     1       6.361   4.561  14.762  0.00  0.00    +0.000 A 
ATOM     21  C   UNL     1       7.441   5.259  14.199  0.00  0.00    +0.000 A 
ATOM     22  C   UNL     1       7.764   5.092  12.852  0.00  0.00    +0.000 A 
ATOM     23  C   UNL     1       7.013   4.227  12.059  0.00  0.00    +0.000 A 
ATOM     24  C   UNL     1       5.938   3.530  12.610  0.00  0.00    +0.000 A 
ATOM     25  C   UNL     1       5.614   3.691  13.957  0.00  0.00    +0.000 A 
ENDBRANCH  19  20
ENDBRANCH   1  19
TORSDOF 8
ENDMDL
MODEL 8
REMARK VINA RESULT:      -8.2      2.331      5.523
REMARK  Name = 
REMARK  8 active torsions:
REMARK  status: ('A' for Active; 'I' for Inactive)
REMARK    1  A    between atoms: O_1  and  C_2
REMARK    2  A    between atoms: C_7  and  C_8
REMARK    3  A    between atoms: C_8  and  N_9
REMARK    4  A    between atoms: N_9  and  C_10
REMARK    5  A    between atoms: N_9  and  C_18
REMARK    6  A    between atoms: C_10  and  C_11
REMARK    7  A    between atoms: C_11  and  C_12
REMARK    8  A    between atoms: C_18  and  C_19
REMARK                            x       y       z     vdW  Elec       q    Type
REMARK                         _______ _______ _______ _____ _____    ______ ____
ROOT
ATOM      1  N   UNL     1       5.142   4.297  17.056  0.00  0.00    +0.000 NA
ENDROOT
BRANCH   1   2
ATOM      2  C   UNL     1       4.686   4.667  15.691  0.00  0.00    +0.000 C 
BRANCH   2   8
ATOM      3  C   UNL     1       6.879   4.998  14.468  0.00  0.00    +0.000 A 
ATOM      4  C   UNL     1       7.674   4.901  13.324  0.00  0.00    +0.000 A 
ATOM      5  C   UNL     1       7.217   4.172  12.227  0.00  0.00    +0.000 A 
ATOM      6  C   UNL     1       5.987   3.519  12.290  0.00  0.00    +0.000 A 
ATOM      7  C   UNL     1       5.200   3.612  13.442  0.00  0.00    +0.000 A 
ATOM      8  C   UNL     1       5.632   4.366  14.545  0.00  0.00    +0.000 A 
BRANCH   3   9
ATOM      9  O   UNL     1       7.305   5.760  15.521  0.00  0.00    +0.000 OA
ATOM     10  H   UNL     1       6.538   5.980  16.076  0.00  0.00    +0.000 HD
ENDBRANCH   3   9
ENDBRANCH   2   8
ENDBRANCH   1   2
BRANCH   1  11
ATOM     11  C   UNL     1       4.829   5.397  18.014  0.00  0.00    +0.000 C 
BRANCH  11  12
ATOM     12  C   UNL     1       3.996   6.539  17.385  0.00  0.00    +0.000 C 
BRANCH  12  13
ATOM     13  C   UNL     1       3.050   7.317  18.274  0.00  0.00    +0.000 A 
ATOM     14  C   UNL     1       2.468   8.487  17.745  0.00  0.00    +0.000 A 
ATOM     15  C   UNL     1       1.551   9.233  18.488  0.00  0.00    +0.000 A 
ATOM     16  C   UNL     1       1.190   8.813  19.763  0.00  0.00    +0.000 A 
ATOM     17  C   UNL     1       1.743   7.645  20.288  0.00  0.00    +0.000 A 
ATOM     18  C   UNL     1       2.665   6.896  19.549  0.00  0.00    +0.000 A 
ENDBRANCH  12  13
ENDBRANCH  11  12
ENDBRANCH   1  11
BRANCH   1  19
ATOM     19  C   UNL     1       4.446   3.047  17.450  0.00  0.00    +0.000 C 
BRANCH  19  20
ATOM     20  C   UNL     1       3.351   3.237  18.479  0.00  0.00    +0.000 A 
ATOM     21  C   UNL     1       2.033   3.495  18.072  0.00  0.00    +0.000 A 
ATOM     22  C   UNL     1       1.015   3.627  19.017  0.00  0.00    +0.000 A 
ATOM     23  C   UNL     1       1.306   3.501  20.373  0.00  0.00    +0.000 A 
ATOM     24  C   UNL     1       2.613   3.246  20.787  0.00  0.00    +0.000 A 
ATOM     25  C   UNL     1       3.633   3.110  19.845  0.00  0.00    +0.000 A 
ENDBRANCH  19  20
ENDBRANCH   1  19
TORSDOF 8
ENDMDL
MODEL 9
REMARK VINA RESULT:      -8.2      1.115      2.026
REMARK  Name = 
REMARK  8 active torsions:
REMARK  status: ('A' for Active; 'I' for Inactive)
REMARK    1  A    between atoms: O_1  and  C_2
REMARK    2  A    between atoms: C_7  and  C_8
REMARK    3  A    between atoms: C_8  and  N_9
REMARK    4  A    between atoms: N_9  and  C_10
REMARK    5  A    between atoms: N_9  and  C_18
REMARK    6  A    between atoms: C_10  and  C_11
REMARK    7  A    between atoms: C_11  and  C_12
REMARK    8  A    between atoms: C_18  and  C_19
REMARK                            x       y       z     vdW  Elec       q    Type
REMARK                         _______ _______ _______ _____ _____    ______ ____
ROOT
ATOM      1  N   UNL     1       4.231   4.595  16.967  0.00  0.00    +0.000 NA
ENDROOT
BRANCH   1   2
ATOM      2  C   UNL     1       3.705   3.255  17.340  0.00  0.00    +0.000 C 
BRANCH   2   8
ATOM      3  C   UNL     1       1.536   3.632  18.593  0.00  0.00    +0.000 A 
ATOM      4  C   UNL     1       0.810   3.762  19.779  0.00  0.00    +0.000 A 
ATOM      5  C   UNL     1       1.413   3.442  20.994  0.00  0.00    +0.000 A 
ATOM      6  C   UNL     1       2.722   2.965  21.017  0.00  0.00    +0.000 A 
ATOM      7  C   UNL     1       3.441   2.828  19.826  0.00  0.00    +0.000 A 
ATOM      8  C   UNL     1       2.860   3.173  18.594  0.00  0.00    +0.000 A 
BRANCH   3   9
ATOM      9  O   UNL     1       0.962   4.000  17.407  0.00  0.00    +0.000 OA
ATOM     10  H   UNL     1      -0.003   3.991  17.513  0.00  0.00    +0.000 HD
ENDBRANCH   3   9
ENDBRANCH   2   8
ENDBRANCH   1   2
BRANCH   1  11
ATOM     11  C   UNL     1       4.004   5.560  18.083  0.00  0.00    +0.000 C 
BRANCH  11  12
ATOM     12  C   UNL     1       3.241   6.833  17.647  0.00  0.00    +0.000 C 
BRANCH  12  13
ATOM     13  C   UNL     1       2.451   7.593  18.690  0.00  0.00    +0.000 A 
ATOM     14  C   UNL     1       1.860   8.813  18.303  0.00  0.00    +0.000 A 
ATOM     15  C   UNL     1       1.078   9.549  19.195  0.00  0.00    +0.000 A 
ATOM     16  C   UNL     1       0.863   9.070  20.483  0.00  0.00    +0.000 A 
ATOM     17  C   UNL     1       1.425   7.854  20.870  0.00  0.00    +0.000 A 
ATOM     18  C   UNL     1       2.211   7.115  19.980  0.00  0.00    +0.000 A 
ENDBRANCH  12  13
ENDBRANCH  11  12
ENDBRANCH   1  11
BRANCH   1  19
ATOM     19  C   UNL     1       5.680   4.457  16.682  0.00  0.00    +0.000 C 
BRANCH  19  20
ATOM     20  C   UNL     1       6.555   5.482  17.372  0.00  0.00    +0.000 A 
ATOM     21  C   UNL     1       7.268   5.140  18.532  0.00  0.00    +0.000 A 
ATOM     22  C   UNL     1       8.108   6.071  19.144  0.00  0.00    +0.000 A 
ATOM     23  C   UNL     1       8.245   7.346  18.601  0.00  0.00    +0.000 A 
ATOM     24  C   UNL     1       7.540   7.695  17.449  0.00  0.00    +0.000 A 
ATOM     25  C   UNL     1       6.701   6.767  16.833  0.00  0.00    +0.000 A 
ENDBRANCH  19  20
ENDBRANCH   1  19
TORSDOF 8
ENDMDL
