MODEL 1
REMARK VINA RESULT:      -8.0      0.000      0.000
REMARK  Name = 
REMARK  12 active torsions:
REMARK  status: ('A' for Active; 'I' for Inactive)
REMARK    1  A    between atoms: C_1  and  C_2
REMARK    2  A    between atoms: C_2  and  O_3
REMARK    3  A    between atoms: O_3  and  C_4
REMARK    4  A    between atoms: C_4  and  C_6
REMARK    5  A    between atoms: C_8  and  C_9
REMARK    6  A    between atoms: C_10  and  C_11
REMARK    7  A    between atoms: C_11  and  C_12
REMARK    8  A    between atoms: C_12  and  C_13
REMARK    9  A    between atoms: N_18  and  C_19
REMARK   10  A    between atoms: C_23  and  O_24
REMARK   11  A    between atoms: O_24  and  C_25
REMARK   12  A    between atoms: C_29  and  C_30
REMARK                            x       y       z     vdW  Elec       q    Type
REMARK                         _______ _______ _______ _____ _____    ______ ____
ROOT
ATOM      1  C   UNL     1       2.091   8.436  18.440  0.00  0.00    +0.000 C 
ATOM      2  O   UNL     1       2.389   8.602  17.260  0.00  0.00    +0.000 OA
ATOM      3  N   UNL     1       1.413   9.401  19.184  0.00  0.00    +0.000 N 
ATOM      4  C   UNL     1       0.911  10.618  18.534  0.00  0.00    +0.000 C 
ATOM      5  C   UNL     1      -0.600  10.781  18.778  0.00  0.00    +0.000 C 
ATOM      6  N   UNL     1      -0.925  10.697  20.216  0.00  0.00    +0.000 N 
ATOM      7  C   UNL     1      -0.377   9.535  20.936  0.00  0.00    +0.000 C 
ATOM      8  C   UNL     1       1.126   9.346  20.627  0.00  0.00    +0.000 C 
ENDROOT
BRANCH   6   9
ATOM      9  C   UNL     1      -1.423  11.781  20.918  0.00  0.00    +0.000 A 
ATOM     10  C   UNL     1      -2.594  12.433  20.505  0.00  0.00    +0.000 A 
ATOM     11  C   UNL     1      -3.098  13.538  21.197  0.00  0.00    +0.000 A 
ATOM     12  C   UNL     1      -2.432  14.013  22.323  0.00  0.00    +0.000 A 
ATOM     13  C   UNL     1      -1.263  13.393  22.759  0.00  0.00    +0.000 A 
ATOM     14  C   UNL     1      -0.773  12.288  22.055  0.00  0.00    +0.000 A 
BRANCH  13  15
ATOM     15  O   UNL     1      -0.692  13.945  23.873  0.00  0.00    +0.000 OA
ATOM     16  C   UNL     1      -1.436  14.957  24.541  0.00  0.00    +0.000 C 
ENDBRANCH  13  15
ENDBRANCH   6   9
BRANCH   1  17
ATOM     17  C   UNL     1       2.393   7.133  19.179  0.00  0.00    +0.000 C 
BRANCH  17  18
ATOM     18  C   UNL     1       2.402   5.899  18.278  0.00  0.00    +0.000 C 
BRANCH  18  23
ATOM     19  C   UNL     1       5.941   4.625  18.049  0.00  0.00    +0.000 A 
ATOM     20  N   UNL     1       5.303   3.659  18.788  0.00  0.00    +0.000 N 
ATOM     21  C   UNL     1       3.960   3.898  18.870  0.00  0.00    +0.000 A 
ATOM     22  C   UNL     1       3.068   2.890  19.505  0.00  0.00    +0.000 C 
ATOM     23  C   UNL     1       3.719   5.148  18.315  0.00  0.00    +0.000 A 
ATOM     24  C   UNL     1       4.982   5.603  17.779  0.00  0.00    +0.000 A 
ATOM     25  C   UNL     1       5.242   6.885  17.061  0.00  0.00    +0.000 C 
ATOM     26  H   UNL     1       5.784   2.845  19.164  0.00  0.00    +0.000 HD
BRANCH  19  27
ATOM     27  C   UNL     1       7.339   4.542  17.659  0.00  0.00    +0.000 C 
ATOM     28  O   UNL     1       8.301   4.543  18.420  0.00  0.00    +0.000 OA
BRANCH  27  29
ATOM     29  O   UNL     1       7.429   4.540  16.294  0.00  0.00    +0.000 OA
BRANCH  29  31
ATOM     30  C   UNL     1       6.185   4.376  14.192  0.00  0.00    +0.000 C 
ATOM     31  C   UNL     1       6.425   3.801  15.576  0.00  0.00    +0.000 C 
ENDBRANCH  29  31
ENDBRANCH  27  29
ENDBRANCH  19  27
ENDBRANCH  18  23
ENDBRANCH  17  18
ENDBRANCH   1  17
TORSDOF 8
ENDMDL
MODEL 2
REMARK VINA RESULT:      -8.0      1.166      1.860
REMARK  Name = 
REMARK  12 active torsions:
REMARK  status: ('A' for Active; 'I' for Inactive)
REMARK    1  A    between atoms: C_1  and  C_2
REMARK    2  A    between atoms: C_2  and  O_3
REMARK    3  A    between atoms: O_3  and  C_4
REMARK    4  A    between atoms: C_4  and  C_6
REMARK    5  A    between atoms: C_8  and  C_9
REMARK    6  A    between atoms: C_10  and  C_11
REMARK    7  A    between atoms: C_11  and  C_12
REMARK    8  A    between atoms: C_12  and  C_13
REMARK    9  A    between atoms: N_18  and  C_19
REMARK   10  A    between atoms: C_23  and  O_24
REMARK   11  A    between atoms: O_24  and  C_25
REMARK   12  A    between atoms: C_29  and  C_30
REMARK                            x       y       z     vdW  Elec       q    Type
REMARK                         _______ _______ _______ _____ _____    ______ ____
ROOT
ATOM      1  C   UNL     1       2.053   8.339  18.485  0.00  0.00    +0.000 C 
ATOM      2  O   UNL     1       2.354   8.565  17.317  0.00  0.00    +0.000 OA
ATOM      3  N   UNL     1       1.460   9.299  19.305  0.00  0.00    +0.000 N 
ATOM      4  C   UNL     1       1.052  10.595  18.750  0.00  0.00    +0.000 C 
ATOM      5  C   UNL     1      -0.440  10.859  19.026  0.00  0.00    +0.000 C 
ATOM      6  N   UNL     1      -0.760  10.698  20.458  0.00  0.00    +0.000 N 
ATOM      7  C   UNL     1      -0.300   9.447  21.086  0.00  0.00    +0.000 C 
ATOM      8  C   UNL     1       1.180   9.163  20.745  0.00  0.00    +0.000 C 
ENDROOT
BRANCH   6   9
ATOM      9  C   UNL     1      -1.165  11.764  21.242  0.00  0.00    +0.000 A 
ATOM     10  C   UNL     1      -1.453  11.592  22.603  0.00  0.00    +0.000 A 
ATOM     11  C   UNL     1      -1.877  12.658  23.400  0.00  0.00    +0.000 A 
ATOM     12  C   UNL     1      -2.021  13.926  22.844  0.00  0.00    +0.000 A 
ATOM     13  C   UNL     1      -1.748  14.132  21.493  0.00  0.00    +0.000 A 
ATOM     14  C   UNL     1      -1.324  13.054  20.710  0.00  0.00    +0.000 A 
BRANCH  13  15
ATOM     15  O   UNL     1      -1.927  15.415  21.053  0.00  0.00    +0.000 OA
ATOM     16  C   UNL     1      -2.717  16.270  21.871  0.00  0.00    +0.000 C 
ENDBRANCH  13  15
ENDBRANCH   6   9
BRANCH   1  17
ATOM     17  C   UNL     1       2.256   6.967  19.125  0.00  0.00    +0.000 C 
BRANCH  17  18
ATOM     18  C   UNL     1       2.383   5.827  18.117  0.00  0.00    +0.000 C 
BRANCH  18  23
ATOM     19  C   UNL     1       5.957   4.652  17.888  0.00  0.00    +0.000 A 
ATOM     20  N   UNL     1       5.378   3.744  18.740  0.00  0.00    +0.000 N 
ATOM     21  C   UNL     1       4.031   3.946  18.846  0.00  0.00    +0.000 A 
ATOM     22  C   UNL     1       3.197   2.978  19.609  0.00  0.00    +0.000 C 
ATOM     23  C   UNL     1       3.727   5.126  18.180  0.00  0.00    +0.000 A 
ATOM     24  C   UNL     1       4.955   5.566  17.557  0.00  0.00    +0.000 A 
ATOM     25  C   UNL     1       5.145   6.778  16.708  0.00  0.00    +0.000 C 
ATOM     26  H   UNL     1       5.900   2.988  19.178  0.00  0.00    +0.000 HD
BRANCH  19  27
ATOM     27  C   UNL     1       7.343   4.577  17.459  0.00  0.00    +0.000 C 
ATOM     28  O   UNL     1       7.734   4.426  16.306  0.00  0.00    +0.000 OA
BRANCH  27  29
ATOM     29  O   UNL     1       8.161   4.623  18.555  0.00  0.00    +0.000 OA
BRANCH  29  31
ATOM     30  C   UNL     1       8.237   7.069  18.501  0.00  0.00    +0.000 C 
ATOM     31  C   UNL     1       8.112   5.819  19.352  0.00  0.00    +0.000 C 
ENDBRANCH  29  31
ENDBRANCH  27  29
ENDBRANCH  19  27
ENDBRANCH  18  23
ENDBRANCH  17  18
ENDBRANCH   1  17
TORSDOF 8
ENDMDL
MODEL 3
REMARK VINA RESULT:      -7.9      1.139      1.419
REMARK  Name = 
REMARK  12 active torsions:
REMARK  status: ('A' for Active; 'I' for Inactive)
REMARK    1  A    between atoms: C_1  and  C_2
REMARK    2  A    between atoms: C_2  and  O_3
REMARK    3  A    between atoms: O_3  and  C_4
REMARK    4  A    between atoms: C_4  and  C_6
REMARK    5  A    between atoms: C_8  and  C_9
REMARK    6  A    between atoms: C_10  and  C_11
REMARK    7  A    between atoms: C_11  and  C_12
REMARK    8  A    between atoms: C_12  and  C_13
REMARK    9  A    between atoms: N_18  and  C_19
REMARK   10  A    between atoms: C_23  and  O_24
REMARK   11  A    between atoms: O_24  and  C_25
REMARK   12  A    between atoms: C_29  and  C_30
REMARK                            x       y       z     vdW  Elec       q    Type
REMARK                         _______ _______ _______ _____ _____    ______ ____
ROOT
ATOM      1  C   UNL     1       2.116   8.470  18.457  0.00  0.00    +0.000 C 
ATOM      2  O   UNL     1       2.280   8.729  17.268  0.00  0.00    +0.000 OA
ATOM      3  N   UNL     1       1.578   9.390  19.356  0.00  0.00    +0.000 N 
ATOM      4  C   UNL     1       1.064  10.679  18.877  0.00  0.00    +0.000 C 
ATOM      5  C   UNL     1      -0.398  10.878  19.316  0.00  0.00    +0.000 C 
ATOM      6  N   UNL     1      -0.556  10.678  20.771  0.00  0.00    +0.000 N 
ATOM      7  C   UNL     1       0.016   9.435  21.318  0.00  0.00    +0.000 C 
ATOM      8  C   UNL     1       1.461   9.217  20.814  0.00  0.00    +0.000 C 
ENDROOT
BRANCH   6   9
ATOM      9  C   UNL     1      -0.914  11.713  21.617  0.00  0.00    +0.000 A 
ATOM     10  C   UNL     1      -0.132  12.874  21.710  0.00  0.00    +0.000 A 
ATOM     11  C   UNL     1      -0.476  13.919  22.571  0.00  0.00    +0.000 A 
ATOM     12  C   UNL     1      -1.617  13.819  23.362  0.00  0.00    +0.000 A 
ATOM     13  C   UNL     1      -2.414  12.678  23.299  0.00  0.00    +0.000 A 
ATOM     14  C   UNL     1      -2.057  11.642  22.430  0.00  0.00    +0.000 A 
BRANCH  13  15
ATOM     15  O   UNL     1      -3.508  12.686  24.121  0.00  0.00    +0.000 OA
ATOM     16  C   UNL     1      -4.052  13.959  24.451  0.00  0.00    +0.000 C 
ENDBRANCH  13  15
ENDBRANCH   6   9
BRANCH   1  17
ATOM     17  C   UNL     1       2.438   7.095  19.041  0.00  0.00    +0.000 C 
BRANCH  17  18
ATOM     18  C   UNL     1       2.190   5.939  18.074  0.00  0.00    +0.000 C 
BRANCH  18  23
ATOM     19  C   UNL     1       5.483   4.392  17.090  0.00  0.00    +0.000 A 
ATOM     20  N   UNL     1       4.966   3.493  17.990  0.00  0.00    +0.000 N 
ATOM     21  C   UNL     1       3.698   3.836  18.368  0.00  0.00    +0.000 A 
ATOM     22  C   UNL     1       2.909   2.913  19.227  0.00  0.00    +0.000 C 
ATOM     23  C   UNL     1       3.424   5.090  17.837  0.00  0.00    +0.000 A 
ATOM     24  C   UNL     1       4.558   5.435  17.010  0.00  0.00    +0.000 A 
ATOM     25  C   UNL     1       4.735   6.679  16.204  0.00  0.00    +0.000 C 
ATOM     26  H   UNL     1       5.462   2.653  18.277  0.00  0.00    +0.000 HD
BRANCH  19  27
ATOM     27  C   UNL     1       6.743   4.194  16.394  0.00  0.00    +0.000 C 
ATOM     28  O   UNL     1       7.844   4.581  16.772  0.00  0.00    +0.000 OA
BRANCH  27  29
ATOM     29  O   UNL     1       6.509   3.570  15.200  0.00  0.00    +0.000 OA
BRANCH  29  31
ATOM     30  C   UNL     1       6.170   3.618  12.776  0.00  0.00    +0.000 C 
ATOM     31  C   UNL     1       6.625   4.373  14.012  0.00  0.00    +0.000 C 
ENDBRANCH  29  31
ENDBRANCH  27  29
ENDBRANCH  19  27
ENDBRANCH  18  23
ENDBRANCH  17  18
ENDBRANCH   1  17
TORSDOF 8
ENDMDL
MODEL 4
REMARK VINA RESULT:      -7.7      1.566      1.990
REMARK  Name = 
REMARK  12 active torsions:
REMARK  status: ('A' for Active; 'I' for Inactive)
REMARK    1  A    between atoms: C_1  and  C_2
REMARK    2  A    between atoms: C_2  and  O_3
REMARK    3  A    between atoms: O_3  and  C_4
REMARK    4  A    between atoms: C_4  and  C_6
REMARK    5  A    between atoms: C_8  and  C_9
REMARK    6  A    between atoms: C_10  and  C_11
REMARK    7  A    between atoms: C_11  and  C_12
REMARK    8  A    between atoms: C_12  and  C_13
REMARK    9  A    between atoms: N_18  and  C_19
REMARK   10  A    between atoms: C_23  and  O_24
REMARK   11  A    between atoms: O_24  and  C_25
REMARK   12  A    between atoms: C_29  and  C_30
REMARK                            x       y       z     vdW  Elec       q    Type
REMARK                         _______ _______ _______ _____ _____    ______ ____
ROOT
ATOM      1  C   UNL     1       2.365   7.392  18.549  0.00  0.00    +0.000 C 
ATOM      2  O   UNL     1       2.642   7.581  17.368  0.00  0.00    +0.000 OA
ATOM      3  N   UNL     1       1.874   8.404  19.374  0.00  0.00    +0.000 N 
ATOM      4  C   UNL     1       1.545   9.720  18.815  0.00  0.00    +0.000 C 
ATOM      5  C   UNL     1       0.088  10.099  19.136  0.00  0.00    +0.000 C 
ATOM      6  N   UNL     1      -0.193   9.979  20.581  0.00  0.00    +0.000 N 
ATOM      7  C   UNL     1       0.192   8.705  21.211  0.00  0.00    +0.000 C 
ATOM      8  C   UNL     1       1.635   8.306  20.824  0.00  0.00    +0.000 C 
ENDROOT
BRANCH   6   9
ATOM      9  C   UNL     1      -0.490  11.083  21.362  0.00  0.00    +0.000 A 
ATOM     10  C   UNL     1      -1.237  10.953  22.542  0.00  0.00    +0.000 A 
ATOM     11  C   UNL     1      -1.554  12.062  23.330  0.00  0.00    +0.000 A 
ATOM     12  C   UNL     1      -1.127  13.330  22.948  0.00  0.00    +0.000 A 
ATOM     13  C   UNL     1      -0.388  13.496  21.779  0.00  0.00    +0.000 A 
ATOM     14  C   UNL     1      -0.077  12.376  21.002  0.00  0.00    +0.000 A 
BRANCH  13  15
ATOM     15  O   UNL     1      -0.024  14.786  21.499  0.00  0.00    +0.000 OA
ATOM     16  C   UNL     1       0.298  15.081  20.145  0.00  0.00    +0.000 C 
ENDBRANCH  13  15
ENDBRANCH   6   9
BRANCH   1  17
ATOM     17  C   UNL     1       2.486   6.016  19.202  0.00  0.00    +0.000 C 
BRANCH  17  18
ATOM     18  C   UNL     1       3.927   5.574  19.450  0.00  0.00    +0.000 C 
BRANCH  18  23
ATOM     19  C   UNL     1       5.867   4.474  16.412  0.00  0.00    +0.000 A 
ATOM     20  N   UNL     1       5.164   3.348  16.765  0.00  0.00    +0.000 N 
ATOM     21  C   UNL     1       4.299   3.601  17.792  0.00  0.00    +0.000 A 
ATOM     22  C   UNL     1       3.341   2.548  18.226  0.00  0.00    +0.000 C 
ATOM     23  C   UNL     1       4.552   4.887  18.251  0.00  0.00    +0.000 A 
ATOM     24  C   UNL     1       5.543   5.447  17.360  0.00  0.00    +0.000 A 
ATOM     25  C   UNL     1       6.131   6.816  17.420  0.00  0.00    +0.000 C 
ATOM     26  H   UNL     1       5.252   2.466  16.268  0.00  0.00    +0.000 HD
BRANCH  19  27
ATOM     27  C   UNL     1       6.736   4.544  15.250  0.00  0.00    +0.000 C 
ATOM     28  O   UNL     1       7.644   5.350  15.075  0.00  0.00    +0.000 OA
BRANCH  27  29
ATOM     29  O   UNL     1       6.339   3.613  14.330  0.00  0.00    +0.000 OA
BRANCH  29  31
ATOM     30  C   UNL     1       5.693   3.000  12.049  0.00  0.00    +0.000 C 
ATOM     31  C   UNL     1       6.408   3.995  12.945  0.00  0.00    +0.000 C 
ENDBRANCH  29  31
ENDBRANCH  27  29
ENDBRANCH  19  27
ENDBRANCH  18  23
ENDBRANCH  17  18
ENDBRANCH   1  17
TORSDOF 8
ENDMDL
MODEL 5
REMARK VINA RESULT:      -7.6      1.404      2.026
REMARK  Name = 
REMARK  12 active torsions:
REMARK  status: ('A' for Active; 'I' for Inactive)
REMARK    1  A    between atoms: C_1  and  C_2
REMARK    2  A    between atoms: C_2  and  O_3
REMARK    3  A    between atoms: O_3  and  C_4
REMARK    4  A    between atoms: C_4  and  C_6
REMARK    5  A    between atoms: C_8  and  C_9
REMARK    6  A    between atoms: C_10  and  C_11
REMARK    7  A    between atoms: C_11  and  C_12
REMARK    8  A    between atoms: C_12  and  C_13
REMARK    9  A    between atoms: N_18  and  C_19
REMARK   10  A    between atoms: C_23  and  O_24
REMARK   11  A    between atoms: O_24  and  C_25
REMARK   12  A    between atoms: C_29  and  C_30
REMARK                            x       y       z     vdW  Elec       q    Type
REMARK                         _______ _______ _______ _____ _____    ______ ____
ROOT
ATOM      1  C   UNL     1       1.858   7.822  18.927  0.00  0.00    +0.000 C 
ATOM      2  O   UNL     1       2.042   7.939  17.719  0.00  0.00    +0.000 OA
ATOM      3  N   UNL     1       1.420   8.880  19.724  0.00  0.00    +0.000 N 
ATOM      4  C   UNL     1       1.037  10.157  19.112  0.00  0.00    +0.000 C 
ATOM      5  C   UNL     1      -0.396  10.548  19.520  0.00  0.00    +0.000 C 
ATOM      6  N   UNL     1      -0.566  10.516  20.986  0.00  0.00    +0.000 N 
ATOM      7  C   UNL     1      -0.121   9.285  21.662  0.00  0.00    +0.000 C 
ATOM      8  C   UNL     1       1.292   8.870  21.192  0.00  0.00    +0.000 C 
ENDROOT
BRANCH   6   9
ATOM      9  C   UNL     1      -0.813  11.664  21.719  0.00  0.00    +0.000 A 
ATOM     10  C   UNL     1       0.042  12.772  21.635  0.00  0.00    +0.000 A 
ATOM     11  C   UNL     1      -0.190  13.930  22.382  0.00  0.00    +0.000 A 
ATOM     12  C   UNL     1      -1.290  13.999  23.232  0.00  0.00    +0.000 A 
ATOM     13  C   UNL     1      -2.157  12.914  23.344  0.00  0.00    +0.000 A 
ATOM     14  C   UNL     1      -1.911  11.763  22.589  0.00  0.00    +0.000 A 
BRANCH  13  15
ATOM     15  O   UNL     1      -3.201  13.090  24.210  0.00  0.00    +0.000 OA
ATOM     16  C   UNL     1      -4.505  12.826  23.705  0.00  0.00    +0.000 C 
ENDBRANCH  13  15
ENDBRANCH   6   9
BRANCH   1  17
ATOM     17  C   UNL     1       2.042   6.489  19.652  0.00  0.00    +0.000 C 
BRANCH  17  18
ATOM     18  C   UNL     1       2.325   5.313  18.720  0.00  0.00    +0.000 C 
BRANCH  18  23
ATOM     19  C   UNL     1       6.042   4.933  18.227  0.00  0.00    +0.000 A 
ATOM     20  N   UNL     1       5.740   3.949  19.136  0.00  0.00    +0.000 N 
ATOM     21  C   UNL     1       4.393   3.858  19.345  0.00  0.00    +0.000 A 
ATOM     22  C   UNL     1       3.849   2.757  20.186  0.00  0.00    +0.000 C 
ATOM     23  C   UNL     1       3.790   4.922  18.687  0.00  0.00    +0.000 A 
ATOM     24  C   UNL     1       4.843   5.597  17.962  0.00  0.00    +0.000 A 
ATOM     25  C   UNL     1       4.701   6.794  17.082  0.00  0.00    +0.000 C 
ATOM     26  H   UNL     1       6.445   3.339  19.542  0.00  0.00    +0.000 HD
BRANCH  19  27
ATOM     27  C   UNL     1       7.376   5.145  17.690  0.00  0.00    +0.000 C 
ATOM     28  O   UNL     1       7.977   4.392  16.932  0.00  0.00    +0.000 OA
BRANCH  27  29
ATOM     29  O   UNL     1       7.902   6.290  18.223  0.00  0.00    +0.000 OA
BRANCH  29  31
ATOM     30  C   UNL     1       8.271   8.710  18.166  0.00  0.00    +0.000 C 
ATOM     31  C   UNL     1       7.885   7.463  17.391  0.00  0.00    +0.000 C 
ENDBRANCH  29  31
ENDBRANCH  27  29
ENDBRANCH  19  27
ENDBRANCH  18  23
ENDBRANCH  17  18
ENDBRANCH   1  17
TORSDOF 8
ENDMDL
MODEL 6
REMARK VINA RESULT:      -7.5      1.106      1.269
REMARK  Name = 
REMARK  12 active torsions:
REMARK  status: ('A' for Active; 'I' for Inactive)
REMARK    1  A    between atoms: C_1  and  C_2
REMARK    2  A    between atoms: C_2  and  O_3
REMARK    3  A    between atoms: O_3  and  C_4
REMARK    4  A    between atoms: C_4  and  C_6
REMARK    5  A    between atoms: C_8  and  C_9
REMARK    6  A    between atoms: C_10  and  C_11
REMARK    7  A    between atoms: C_11  and  C_12
REMARK    8  A    between atoms: C_12  and  C_13
REMARK    9  A    between atoms: N_18  and  C_19
REMARK   10  A    between atoms: C_23  and  O_24
REMARK   11  A    between atoms: O_24  and  C_25
REMARK   12  A    between atoms: C_29  and  C_30
REMARK                            x       y       z     vdW  Elec       q    Type
REMARK                         _______ _______ _______ _____ _____    ______ ____
ROOT
ATOM      1  C   UNL     1       1.772   8.220  19.092  0.00  0.00    +0.000 C 
ATOM      2  O   UNL     1       1.813   8.339  17.871  0.00  0.00    +0.000 OA
ATOM      3  N   UNL     1       1.278   9.225  19.925  0.00  0.00    +0.000 N 
ATOM      4  C   UNL     1       0.661  10.426  19.350  0.00  0.00    +0.000 C 
ATOM      5  C   UNL     1      -0.762  10.625  19.903  0.00  0.00    +0.000 C 
ATOM      6  N   UNL     1      -0.774  10.599  21.379  0.00  0.00    +0.000 N 
ATOM      7  C   UNL     1      -0.096   9.453  22.012  0.00  0.00    +0.000 C 
ATOM      8  C   UNL     1       1.304   9.226  21.398  0.00  0.00    +0.000 C 
ENDROOT
BRANCH   6   9
ATOM      9  C   UNL     1      -1.100  11.717  22.128  0.00  0.00    +0.000 A 
ATOM     10  C   UNL     1      -2.286  11.765  22.875  0.00  0.00    +0.000 A 
ATOM     11  C   UNL     1      -2.632  12.893  23.623  0.00  0.00    +0.000 A 
ATOM     12  C   UNL     1      -1.791  14.002  23.635  0.00  0.00    +0.000 A 
ATOM     13  C   UNL     1      -0.608  13.991  22.900  0.00  0.00    +0.000 A 
ATOM     14  C   UNL     1      -0.275  12.853  22.158  0.00  0.00    +0.000 A 
BRANCH  13  15
ATOM     15  O   UNL     1       0.139  15.135  22.982  0.00  0.00    +0.000 OA
ATOM     16  C   UNL     1       1.116  15.336  21.966  0.00  0.00    +0.000 C 
ENDBRANCH  13  15
ENDBRANCH   6   9
BRANCH   1  17
ATOM     17  C   UNL     1       2.211   6.940  19.801  0.00  0.00    +0.000 C 
BRANCH  17  18
ATOM     18  C   UNL     1       2.240   5.711  18.894  0.00  0.00    +0.000 C 
BRANCH  18  23
ATOM     19  C   UNL     1       5.810   4.921  17.984  0.00  0.00    +0.000 A 
ATOM     20  N   UNL     1       5.495   3.951  18.903  0.00  0.00    +0.000 N 
ATOM     21  C   UNL     1       4.177   4.009  19.259  0.00  0.00    +0.000 A 
ATOM     22  C   UNL     1       3.601   2.953  20.136  0.00  0.00    +0.000 C 
ATOM     23  C   UNL     1       3.636   5.155  18.692  0.00  0.00    +0.000 A 
ATOM     24  C   UNL     1       4.676   5.727  17.867  0.00  0.00    +0.000 A 
ATOM     25  C   UNL     1       4.582   6.959  17.030  0.00  0.00    +0.000 C 
ATOM     26  H   UNL     1       6.163   3.251  19.217  0.00  0.00    +0.000 HD
BRANCH  19  27
ATOM     27  C   UNL     1       7.094   4.995  17.306  0.00  0.00    +0.000 C 
ATOM     28  O   UNL     1       7.925   5.887  17.433  0.00  0.00    +0.000 OA
BRANCH  27  29
ATOM     29  O   UNL     1       7.208   3.947  16.435  0.00  0.00    +0.000 OA
BRANCH  29  31
ATOM     30  C   UNL     1       6.727   4.831  14.203  0.00  0.00    +0.000 C 
ATOM     31  C   UNL     1       6.286   3.915  15.331  0.00  0.00    +0.000 C 
ENDBRANCH  29  31
ENDBRANCH  27  29
ENDBRANCH  19  27
ENDBRANCH  18  23
ENDBRANCH  17  18
ENDBRANCH   1  17
TORSDOF 8
ENDMDL
MODEL 7
REMARK VINA RESULT:      -7.5      1.560      1.845
REMARK  Name = 
REMARK  12 active torsions:
REMARK  status: ('A' for Active; 'I' for Inactive)
REMARK    1  A    between atoms: C_1  and  C_2
REMARK    2  A    between atoms: C_2  and  O_3
REMARK    3  A    between atoms: O_3  and  C_4
REMARK    4  A    between atoms: C_4  and  C_6
REMARK    5  A    between atoms: C_8  and  C_9
REMARK    6  A    between atoms: C_10  and  C_11
REMARK    7  A    between atoms: C_11  and  C_12
REMARK    8  A    between atoms: C_12  and  C_13
REMARK    9  A    between atoms: N_18  and  C_19
REMARK   10  A    between atoms: C_23  and  O_24
REMARK   11  A    between atoms: O_24  and  C_25
REMARK   12  A    between atoms: C_29  and  C_30
REMARK                            x       y       z     vdW  Elec       q    Type
REMARK                         _______ _______ _______ _____ _____    ______ ____
ROOT
ATOM      1  C   UNL     1       2.396   7.331  18.761  0.00  0.00    +0.000 C 
ATOM      2  O   UNL     1       2.686   7.475  17.577  0.00  0.00    +0.000 OA
ATOM      3  N   UNL     1       1.882   8.369  19.538  0.00  0.00    +0.000 N 
ATOM      4  C   UNL     1       1.544   9.657  18.920  0.00  0.00    +0.000 C 
ATOM      5  C   UNL     1       0.077  10.029  19.207  0.00  0.00    +0.000 C 
ATOM      6  N   UNL     1      -0.221   9.965  20.651  0.00  0.00    +0.000 N 
ATOM      7  C   UNL     1       0.172   8.723  21.339  0.00  0.00    +0.000 C 
ATOM      8  C   UNL     1       1.624   8.327  20.987  0.00  0.00    +0.000 C 
ENDROOT
BRANCH   6   9
ATOM      9  C   UNL     1      -0.542  11.096  21.383  0.00  0.00    +0.000 A 
ATOM     10  C   UNL     1       0.242  12.256  21.301  0.00  0.00    +0.000 A 
ATOM     11  C   UNL     1      -0.064  13.397  22.046  0.00  0.00    +0.000 A 
ATOM     12  C   UNL     1      -1.169  13.397  22.894  0.00  0.00    +0.000 A 
ATOM     13  C   UNL     1      -1.965  12.260  23.004  0.00  0.00    +0.000 A 
ATOM     14  C   UNL     1      -1.646  11.127  22.251  0.00  0.00    +0.000 A 
BRANCH  13  15
ATOM     15  O   UNL     1      -3.021  12.371  23.868  0.00  0.00    +0.000 OA
ATOM     16  C   UNL     1      -3.448  13.689  24.193  0.00  0.00    +0.000 C 
ENDBRANCH  13  15
ENDBRANCH   6   9
BRANCH   1  17
ATOM     17  C   UNL     1       2.526   5.984  19.471  0.00  0.00    +0.000 C 
BRANCH  17  18
ATOM     18  C   UNL     1       3.970   5.520  19.657  0.00  0.00    +0.000 C 
BRANCH  18  23
ATOM     19  C   UNL     1       5.819   4.476  16.544  0.00  0.00    +0.000 A 
ATOM     20  N   UNL     1       5.062   3.371  16.849  0.00  0.00    +0.000 N 
ATOM     21  C   UNL     1       4.220   3.616  17.898  0.00  0.00    +0.000 A 
ATOM     22  C   UNL     1       3.212   2.594  18.290  0.00  0.00    +0.000 C 
ATOM     23  C   UNL     1       4.545   4.863  18.418  0.00  0.00    +0.000 A 
ATOM     24  C   UNL     1       5.555   5.414  17.543  0.00  0.00    +0.000 A 
ATOM     25  C   UNL     1       6.215   6.747  17.664  0.00  0.00    +0.000 C 
ATOM     26  H   UNL     1       5.098   2.511  16.307  0.00  0.00    +0.000 HD
BRANCH  19  27
ATOM     27  C   UNL     1       6.679   4.559  15.376  0.00  0.00    +0.000 C 
ATOM     28  O   UNL     1       7.468   5.463  15.124  0.00  0.00    +0.000 OA
BRANCH  27  29
ATOM     29  O   UNL     1       6.422   3.501  14.547  0.00  0.00    +0.000 OA
BRANCH  29  31
ATOM     30  C   UNL     1       6.509   3.484  12.100  0.00  0.00    +0.000 C 
ATOM     31  C   UNL     1       5.688   3.782  13.342  0.00  0.00    +0.000 C 
ENDBRANCH  29  31
ENDBRANCH  27  29
ENDBRANCH  19  27
ENDBRANCH  18  23
ENDBRANCH  17  18
ENDBRANCH   1  17
TORSDOF 8
ENDMDL
MODEL 8
REMARK VINA RESULT:      -7.5      3.299      4.667
REMARK  Name = 
REMARK  12 active torsions:
REMARK  status: ('A' for Active; 'I' for Inactive)
REMARK    1  A    between atoms: C_1  and  C_2
REMARK    2  A    between atoms: C_2  and  O_3
REMARK    3  A    between atoms: O_3  and  C_4
REMARK    4  A    between atoms: C_4  and  C_6
REMARK    5  A    between atoms: C_8  and  C_9
REMARK    6  A    between atoms: C_10  and  C_11
REMARK    7  A    between atoms: C_11  and  C_12
REMARK    8  A    between atoms: C_12  and  C_13
REMARK    9  A    between atoms: N_18  and  C_19
REMARK   10  A    between atoms: C_23  and  O_24
REMARK   11  A    between atoms: O_24  and  C_25
REMARK   12  A    between atoms: C_29  and  C_30
REMARK                            x       y       z     vdW  Elec       q    Type
REMARK                         _______ _______ _______ _____ _____    ______ ____
ROOT
ATOM      1  C   UNL     1       0.441  10.195  18.767  0.00  0.00    +0.000 C 
ATOM      2  O   UNL     1       1.188  10.857  19.482  0.00  0.00    +0.000 OA
ATOM      3  N   UNL     1      -0.941  10.385  18.749  0.00  0.00    +0.000 N 
ATOM      4  C   UNL     1      -1.544  11.490  19.503  0.00  0.00    +0.000 C 
ATOM      5  C   UNL     1      -2.397  12.378  18.578  0.00  0.00    +0.000 C 
ATOM      6  N   UNL     1      -3.373  11.576  17.813  0.00  0.00    +0.000 N 
ATOM      7  C   UNL     1      -2.832  10.405  17.101  0.00  0.00    +0.000 C 
ATOM      8  C   UNL     1      -1.924   9.562  18.026  0.00  0.00    +0.000 C 
ENDROOT
BRANCH   6   9
ATOM      9  C   UNL     1      -4.737  11.706  18.005  0.00  0.00    +0.000 A 
ATOM     10  C   UNL     1      -5.517  12.492  17.143  0.00  0.00    +0.000 A 
ATOM     11  C   UNL     1      -6.892  12.642  17.337  0.00  0.00    +0.000 A 
ATOM     12  C   UNL     1      -7.517  12.004  18.404  0.00  0.00    +0.000 A 
ATOM     13  C   UNL     1      -6.772  11.220  19.283  0.00  0.00    +0.000 A 
ATOM     14  C   UNL     1      -5.397  11.079  19.075  0.00  0.00    +0.000 A 
BRANCH  13  15
ATOM     15  O   UNL     1      -7.487  10.644  20.297  0.00  0.00    +0.000 OA
ATOM     16  C   UNL     1      -7.480   9.222  20.359  0.00  0.00    +0.000 C 
ENDBRANCH  13  15
ENDBRANCH   6   9
BRANCH   1  17
ATOM     17  C   UNL     1       0.969   9.139  17.797  0.00  0.00    +0.000 C 
BRANCH  17  18
ATOM     18  C   UNL     1       2.468   8.877  17.925  0.00  0.00    +0.000 C 
BRANCH  18  23
ATOM     19  C   UNL     1       3.682   5.474  18.999  0.00  0.00    +0.000 A 
ATOM     20  N   UNL     1       2.947   5.904  20.076  0.00  0.00    +0.000 N 
ATOM     21  C   UNL     1       2.319   7.089  19.813  0.00  0.00    +0.000 A 
ATOM     22  C   UNL     1       1.356   7.650  20.799  0.00  0.00    +0.000 C 
ATOM     23  C   UNL     1       2.784   7.550  18.588  0.00  0.00    +0.000 A 
ATOM     24  C   UNL     1       3.642   6.511  18.064  0.00  0.00    +0.000 A 
ATOM     25  C   UNL     1       4.368   6.520  16.761  0.00  0.00    +0.000 C 
ATOM     26  H   UNL     1       2.849   5.359  20.929  0.00  0.00    +0.000 HD
BRANCH  19  27
ATOM     27  C   UNL     1       4.321   4.171  18.934  0.00  0.00    +0.000 C 
ATOM     28  O   UNL     1       5.500   3.933  19.173  0.00  0.00    +0.000 OA
BRANCH  27  29
ATOM     29  O   UNL     1       3.419   3.246  18.485  0.00  0.00    +0.000 OA
BRANCH  29  31
ATOM     30  C   UNL     1       1.377   2.513  19.621  0.00  0.00    +0.000 C 
ATOM     31  C   UNL     1       2.877   2.339  19.461  0.00  0.00    +0.000 C 
ENDBRANCH  29  31
ENDBRANCH  27  29
ENDBRANCH  19  27
ENDBRANCH  18  23
ENDBRANCH  17  18
ENDBRANCH   1  17
TORSDOF 8
ENDMDL
MODEL 9
REMARK VINA RESULT:      -7.4      1.493      2.127
REMARK  Name = 
REMARK  12 active torsions:
REMARK  status: ('A' for Active; 'I' for Inactive)
REMARK    1  A    between atoms: C_1  and  C_2
REMARK    2  A    between atoms: C_2  and  O_3
REMARK    3  A    between atoms: O_3  and  C_4
REMARK    4  A    between atoms: C_4  and  C_6
REMARK    5  A    between atoms: C_8  and  C_9
REMARK    6  A    between atoms: C_10  and  C_11
REMARK    7  A    between atoms: C_11  and  C_12
REMARK    8  A    between atoms: C_12  and  C_13
REMARK    9  A    between atoms: N_18  and  C_19
REMARK   10  A    between atoms: C_23  and  O_24
REMARK   11  A    between atoms: O_24  and  C_25
REMARK   12  A    between atoms: C_29  and  C_30
REMARK                            x       y       z     vdW  Elec       q    Type
REMARK                         _______ _______ _______ _____ _____    ______ ____
ROOT
ATOM      1  C   UNL     1       2.455   7.643  18.562  0.00  0.00    +0.000 C 
ATOM      2  O   UNL     1       2.910   7.800  17.433  0.00  0.00    +0.000 OA
ATOM      3  N   UNL     1       1.792   8.660  19.250  0.00  0.00    +0.000 N 
ATOM      4  C   UNL     1       1.498   9.934  18.583  0.00  0.00    +0.000 C 
ATOM      5  C   UNL     1      -0.008  10.248  18.650  0.00  0.00    +0.000 C 
ATOM      6  N   UNL     1      -0.513  10.172  20.035  0.00  0.00    +0.000 N 
ATOM      7  C   UNL     1      -0.176   8.945  20.779  0.00  0.00    +0.000 C 
ATOM      8  C   UNL     1       1.326   8.607  20.646  0.00  0.00    +0.000 C 
ENDROOT
BRANCH   6   9
ATOM      9  C   UNL     1      -0.981  11.288  20.705  0.00  0.00    +0.000 A 
ATOM     10  C   UNL     1      -0.323  11.776  21.844  0.00  0.00    +0.000 A 
ATOM     11  C   UNL     1      -0.796  12.893  22.537  0.00  0.00    +0.000 A 
ATOM     12  C   UNL     1      -1.945  13.546  22.100  0.00  0.00    +0.000 A 
ATOM     13  C   UNL     1      -2.626  13.085  20.976  0.00  0.00    +0.000 A 
ATOM     14  C   UNL     1      -2.140  11.967  20.293  0.00  0.00    +0.000 A 
BRANCH  13  15
ATOM     15  O   UNL     1      -3.743  13.801  20.639  0.00  0.00    +0.000 OA
ATOM     16  C   UNL     1      -4.815  13.074  20.048  0.00  0.00    +0.000 C 
ENDBRANCH  13  15
ENDBRANCH   6   9
BRANCH   1  17
ATOM     17  C   UNL     1       2.531   6.302  19.291  0.00  0.00    +0.000 C 
BRANCH  17  18
ATOM     18  C   UNL     1       3.957   5.808  19.526  0.00  0.00    +0.000 C 
BRANCH  18  23
ATOM     19  C   UNL     1       5.821   4.497  16.524  0.00  0.00    +0.000 A 
ATOM     20  N   UNL     1       5.001   3.451  16.871  0.00  0.00    +0.000 N 
ATOM     21  C   UNL     1       4.150   3.797  17.883  0.00  0.00    +0.000 A 
ATOM     22  C   UNL     1       3.083   2.850  18.306  0.00  0.00    +0.000 C 
ATOM     23  C   UNL     1       4.526   5.053  18.340  0.00  0.00    +0.000 A 
ATOM     24  C   UNL     1       5.583   5.503  17.462  0.00  0.00    +0.000 A 
ATOM     25  C   UNL     1       6.307   6.806  17.526  0.00  0.00    +0.000 C 
ATOM     26  H   UNL     1       5.005   2.561  16.378  0.00  0.00    +0.000 HD
BRANCH  19  27
ATOM     27  C   UNL     1       6.710   4.471  15.375  0.00  0.00    +0.000 C 
ATOM     28  O   UNL     1       7.644   5.238  15.169  0.00  0.00    +0.000 OA
BRANCH  27  29
ATOM     29  O   UNL     1       6.299   3.498  14.506  0.00  0.00    +0.000 OA
BRANCH  29  31
ATOM     30  C   UNL     1       6.641   3.745  12.094  0.00  0.00    +0.000 C 
ATOM     31  C   UNL     1       5.703   3.937  13.272  0.00  0.00    +0.000 C 
ENDBRANCH  29  31
ENDBRANCH  27  29
ENDBRANCH  19  27
ENDBRANCH  18  23
ENDBRANCH  17  18
ENDBRANCH   1  17
TORSDOF 8
ENDMDL
