MODEL 1
REMARK VINA RESULT:      -7.0      0.000      0.000
REMARK  Name = 
REMARK  7 active torsions:
REMARK  status: ('A' for Active; 'I' for Inactive)
REMARK    1  A    between atoms: C_1  and  C_2
REMARK    2  A    between atoms: C_2  and  C_4
REMARK    3  A    between atoms: C_4  and  C_5
REMARK    4  A    between atoms: C_5  and  C_6
REMARK    5  A    between atoms: C_8  and  C_9
REMARK    6  A    between atoms: C_16  and  C_17
REMARK    7  A    between atoms: C_16  and  C_19
REMARK                            x       y       z     vdW  Elec       q    Type
REMARK                         _______ _______ _______ _____ _____    ______ ____
ROOT
ATOM      1  C   UNL     1       3.112   3.759  18.694  0.00  0.00    +0.000 C 
ATOM      2  C   UNL     1       3.417   4.711  17.528  0.00  0.00    +0.000 C 
ATOM      3  C   UNL     1       3.724   5.137  18.962  0.00  0.00    +0.000 C 
ENDROOT
BRANCH   2   4
ATOM      4  C   UNL     1       4.564   4.736  16.528  0.00  0.00    +0.000 A 
ATOM      5  C   UNL     1       5.146   3.603  15.940  0.00  0.00    +0.000 A 
ATOM      6  C   UNL     1       6.221   3.706  15.049  0.00  0.00    +0.000 A 
ATOM      7  C   UNL     1       6.696   4.955  14.679  0.00  0.00    +0.000 A 
ATOM      8  F   UNL     1       7.716   5.053  13.823  0.00  0.00    +0.000 F 
ATOM      9  C   UNL     1       6.105   6.102  15.181  0.00  0.00    +0.000 A 
ATOM     10  C   UNL     1       5.051   5.991  16.094  0.00  0.00    +0.000 A 
ENDBRANCH   2   4
BRANCH   1  12
ATOM     11  C   UNL     1       1.302   3.547  20.517  0.00  0.00    +0.000 C 
ATOM     12  C   UNL     1       1.664   3.591  19.061  0.00  0.00    +0.000 C 
ATOM     13  O   UNL     1       0.827   3.588  18.167  0.00  0.00    +0.000 OA
ENDBRANCH   1  12
BRANCH   1  14
ATOM     14  C   UNL     1       3.934   2.549  19.027  0.00  0.00    +0.000 C 
ATOM     15  C   UNL     1       3.718   1.316  18.185  0.00  0.00    +0.000 C 
ATOM     16  O   UNL     1       4.865   2.625  19.818  0.00  0.00    +0.000 OA
ENDBRANCH   1  14
BRANCH   3  17
ATOM     17  C   UNL     1       5.088   5.227  19.409  0.00  0.00    +0.000 C 
ATOM     18  N   UNL     1       6.186   5.325  19.771  0.00  0.00    +0.000 NA
ENDBRANCH   3  17
BRANCH   3  19
ATOM     19  C   UNL     1       2.934   6.215  19.488  0.00  0.00    +0.000 C 
ATOM     20  N   UNL     1       2.277   7.095  19.861  0.00  0.00    +0.000 NA
ENDBRANCH   3  19
TORSDOF 5
ENDMDL
MODEL 2
REMARK VINA RESULT:      -6.7      0.636      1.312
REMARK  Name = 
REMARK  7 active torsions:
REMARK  status: ('A' for Active; 'I' for Inactive)
REMARK    1  A    between atoms: C_1  and  C_2
REMARK    2  A    between atoms: C_2  and  C_4
REMARK    3  A    between atoms: C_4  and  C_5
REMARK    4  A    between atoms: C_5  and  C_6
REMARK    5  A    between atoms: C_8  and  C_9
REMARK    6  A    between atoms: C_16  and  C_17
REMARK    7  A    between atoms: C_16  and  C_19
REMARK                            x       y       z     vdW  Elec       q    Type
REMARK                         _______ _______ _______ _____ _____    ______ ____
ROOT
ATOM      1  C   UNL     1       2.993   3.735  18.543  0.00  0.00    +0.000 C 
ATOM      2  C   UNL     1       3.311   4.794  17.476  0.00  0.00    +0.000 C 
ATOM      3  C   UNL     1       3.608   5.077  18.948  0.00  0.00    +0.000 C 
ENDROOT
BRANCH   2   4
ATOM      4  C   UNL     1       4.467   4.908  16.492  0.00  0.00    +0.000 A 
ATOM      5  C   UNL     1       5.122   6.101  16.154  0.00  0.00    +0.000 A 
ATOM      6  C   UNL     1       6.160   6.131  15.215  0.00  0.00    +0.000 A 
ATOM      7  C   UNL     1       6.606   4.950  14.640  0.00  0.00    +0.000 A 
ATOM      8  F   UNL     1       7.602   4.977  13.750  0.00  0.00    +0.000 F 
ATOM      9  C   UNL     1       6.035   3.741  14.998  0.00  0.00    +0.000 A 
ATOM     10  C   UNL     1       4.978   3.724  15.914  0.00  0.00    +0.000 A 
ENDBRANCH   2   4
BRANCH   1  12
ATOM     11  C   UNL     1       1.152   3.475  20.329  0.00  0.00    +0.000 C 
ATOM     12  C   UNL     1       1.540   3.541  18.881  0.00  0.00    +0.000 C 
ATOM     13  O   UNL     1       0.721   3.534  17.970  0.00  0.00    +0.000 OA
ENDBRANCH   1  12
BRANCH   1  14
ATOM     14  C   UNL     1       3.806   2.494  18.765  0.00  0.00    +0.000 C 
ATOM     15  C   UNL     1       4.377   2.281  20.145  0.00  0.00    +0.000 C 
ATOM     16  O   UNL     1       3.841   1.611  17.918  0.00  0.00    +0.000 OA
ENDBRANCH   1  14
BRANCH   3  17
ATOM     17  C   UNL     1       4.969   5.117  19.412  0.00  0.00    +0.000 C 
ATOM     18  N   UNL     1       6.074   5.140  19.763  0.00  0.00    +0.000 NA
ENDBRANCH   3  17
BRANCH   3  19
ATOM     19  C   UNL     1       2.819   6.104  19.569  0.00  0.00    +0.000 C 
ATOM     20  N   UNL     1       2.203   6.970  20.033  0.00  0.00    +0.000 NA
ENDBRANCH   3  19
TORSDOF 5
ENDMDL
MODEL 3
REMARK VINA RESULT:      -6.6      0.880      1.074
REMARK  Name = 
REMARK  7 active torsions:
REMARK  status: ('A' for Active; 'I' for Inactive)
REMARK    1  A    between atoms: C_1  and  C_2
REMARK    2  A    between atoms: C_2  and  C_4
REMARK    3  A    between atoms: C_4  and  C_5
REMARK    4  A    between atoms: C_5  and  C_6
REMARK    5  A    between atoms: C_8  and  C_9
REMARK    6  A    between atoms: C_16  and  C_17
REMARK    7  A    between atoms: C_16  and  C_19
REMARK                            x       y       z     vdW  Elec       q    Type
REMARK                         _______ _______ _______ _____ _____    ______ ____
ROOT
ATOM      1  C   UNL     1       3.055   3.667  18.901  0.00  0.00    +0.000 C 
ATOM      2  C   UNL     1       3.283   4.630  17.726  0.00  0.00    +0.000 C 
ATOM      3  C   UNL     1       3.676   5.045  19.143  0.00  0.00    +0.000 C 
ENDROOT
BRANCH   2   4
ATOM      4  C   UNL     1       4.366   4.668  16.657  0.00  0.00    +0.000 A 
ATOM      5  C   UNL     1       4.887   3.546  15.997  0.00  0.00    +0.000 A 
ATOM      6  C   UNL     1       5.907   3.660  15.044  0.00  0.00    +0.000 A 
ATOM      7  C   UNL     1       6.383   4.913  14.688  0.00  0.00    +0.000 A 
ATOM      8  F   UNL     1       7.350   5.022  13.772  0.00  0.00    +0.000 F 
ATOM      9  C   UNL     1       5.848   6.052  15.264  0.00  0.00    +0.000 A 
ATOM     10  C   UNL     1       4.851   5.928  16.236  0.00  0.00    +0.000 A 
ENDBRANCH   2   4
BRANCH   1  12
ATOM     11  C   UNL     1       0.701   2.706  18.475  0.00  0.00    +0.000 C 
ATOM     12  C   UNL     1       1.632   3.489  19.355  0.00  0.00    +0.000 C 
ATOM     13  O   UNL     1       1.311   3.908  20.459  0.00  0.00    +0.000 OA
ENDBRANCH   1  12
BRANCH   1  14
ATOM     14  C   UNL     1       3.901   2.457  19.172  0.00  0.00    +0.000 C 
ATOM     15  C   UNL     1       4.404   2.270  20.582  0.00  0.00    +0.000 C 
ATOM     16  O   UNL     1       4.013   1.573  18.333  0.00  0.00    +0.000 OA
ENDBRANCH   1  14
BRANCH   3  17
ATOM     17  C   UNL     1       5.065   5.138  19.505  0.00  0.00    +0.000 C 
ATOM     18  N   UNL     1       6.191   5.216  19.773  0.00  0.00    +0.000 NA
ENDBRANCH   3  17
BRANCH   3  19
ATOM     19  C   UNL     1       2.916   6.115  19.725  0.00  0.00    +0.000 C 
ATOM     20  N   UNL     1       2.314   7.010  20.151  0.00  0.00    +0.000 NA
ENDBRANCH   3  19
TORSDOF 5
ENDMDL
MODEL 4
REMARK VINA RESULT:      -6.5      3.051      4.906
REMARK  Name = 
REMARK  7 active torsions:
REMARK  status: ('A' for Active; 'I' for Inactive)
REMARK    1  A    between atoms: C_1  and  C_2
REMARK    2  A    between atoms: C_2  and  C_4
REMARK    3  A    between atoms: C_4  and  C_5
REMARK    4  A    between atoms: C_5  and  C_6
REMARK    5  A    between atoms: C_8  and  C_9
REMARK    6  A    between atoms: C_16  and  C_17
REMARK    7  A    between atoms: C_16  and  C_19
REMARK                            x       y       z     vdW  Elec       q    Type
REMARK                         _______ _______ _______ _____ _____    ______ ____
ROOT
ATOM      1  C   UNL     1       3.375   4.485  19.003  0.00  0.00    +0.000 C 
ATOM      2  C   UNL     1       3.365   5.878  19.650  0.00  0.00    +0.000 C 
ATOM      3  C   UNL     1       4.510   5.473  18.723  0.00  0.00    +0.000 C 
ENDROOT
BRANCH   2   4
ATOM      4  C   UNL     1       2.592   7.141  19.300  0.00  0.00    +0.000 A 
ATOM      5  C   UNL     1       2.508   7.706  18.019  0.00  0.00    +0.000 A 
ATOM      6  C   UNL     1       1.800   8.889  17.780  0.00  0.00    +0.000 A 
ATOM      7  C   UNL     1       1.106   9.500  18.814  0.00  0.00    +0.000 A 
ATOM      8  F   UNL     1       0.422  10.625  18.584  0.00  0.00    +0.000 F 
ATOM      9  C   UNL     1       1.103   8.938  20.079  0.00  0.00    +0.000 A 
ATOM     10  C   UNL     1       1.838   7.772  20.316  0.00  0.00    +0.000 A 
ENDBRANCH   2   4
BRANCH   1  12
ATOM     11  C   UNL     1       2.707   2.944  20.958  0.00  0.00    +0.000 C 
ATOM     12  C   UNL     1       3.706   3.329  19.906  0.00  0.00    +0.000 C 
ATOM     13  O   UNL     1       4.729   2.691  19.693  0.00  0.00    +0.000 OA
ENDBRANCH   1  12
BRANCH   1  14
ATOM     14  C   UNL     1       2.493   4.086  17.856  0.00  0.00    +0.000 C 
ATOM     15  C   UNL     1       3.038   3.060  16.892  0.00  0.00    +0.000 C 
ATOM     16  O   UNL     1       1.321   4.435  17.819  0.00  0.00    +0.000 OA
ENDBRANCH   1  14
BRANCH   3  17
ATOM     17  C   UNL     1       4.622   6.067  17.418  0.00  0.00    +0.000 C 
ATOM     18  N   UNL     1       4.736   6.536  16.364  0.00  0.00    +0.000 NA
ENDBRANCH   3  17
BRANCH   3  19
ATOM     19  C   UNL     1       5.800   5.321  19.336  0.00  0.00    +0.000 C 
ATOM     20  N   UNL     1       6.865   5.215  19.782  0.00  0.00    +0.000 NA
ENDBRANCH   3  19
TORSDOF 5
ENDMDL
MODEL 5
REMARK VINA RESULT:      -6.2      0.681      1.339
REMARK  Name = 
REMARK  7 active torsions:
REMARK  status: ('A' for Active; 'I' for Inactive)
REMARK    1  A    between atoms: C_1  and  C_2
REMARK    2  A    between atoms: C_2  and  C_4
REMARK    3  A    between atoms: C_4  and  C_5
REMARK    4  A    between atoms: C_5  and  C_6
REMARK    5  A    between atoms: C_8  and  C_9
REMARK    6  A    between atoms: C_16  and  C_17
REMARK    7  A    between atoms: C_16  and  C_19
REMARK                            x       y       z     vdW  Elec       q    Type
REMARK                         _______ _______ _______ _____ _____    ______ ____
ROOT
ATOM      1  C   UNL     1       3.161   3.759  18.903  0.00  0.00    +0.000 C 
ATOM      2  C   UNL     1       3.318   4.713  17.709  0.00  0.00    +0.000 C 
ATOM      3  C   UNL     1       3.698   5.177  19.114  0.00  0.00    +0.000 C 
ENDROOT
BRANCH   2   4
ATOM      4  C   UNL     1       4.387   4.798  16.628  0.00  0.00    +0.000 A 
ATOM      5  C   UNL     1       4.935   5.988  16.129  0.00  0.00    +0.000 A 
ATOM      6  C   UNL     1       5.896   5.987  15.111  0.00  0.00    +0.000 A 
ATOM      7  C   UNL     1       6.373   4.783  14.613  0.00  0.00    +0.000 A 
ATOM      8  F   UNL     1       7.296   4.781  13.647  0.00  0.00    +0.000 F 
ATOM      9  C   UNL     1       5.911   3.584  15.126  0.00  0.00    +0.000 A 
ATOM     10  C   UNL     1       4.929   3.594  16.122  0.00  0.00    +0.000 A 
ENDBRANCH   2   4
BRANCH   1  12
ATOM     11  C   UNL     1       0.706   3.206  18.344  0.00  0.00    +0.000 C 
ATOM     12  C   UNL     1       1.756   3.503  19.375  0.00  0.00    +0.000 C 
ATOM     13  O   UNL     1       1.539   3.456  20.579  0.00  0.00    +0.000 OA
ENDBRANCH   1  12
BRANCH   1  14
ATOM     14  C   UNL     1       4.082   2.610  19.187  0.00  0.00    +0.000 C 
ATOM     15  C   UNL     1       3.821   1.319  18.452  0.00  0.00    +0.000 C 
ATOM     16  O   UNL     1       5.105   2.776  19.839  0.00  0.00    +0.000 OA
ENDBRANCH   1  14
BRANCH   3  17
ATOM     17  C   UNL     1       5.081   5.363  19.459  0.00  0.00    +0.000 C 
ATOM     18  N   UNL     1       6.203   5.513  19.714  0.00  0.00    +0.000 NA
ENDBRANCH   3  17
BRANCH   3  19
ATOM     19  C   UNL     1       2.878   6.210  19.685  0.00  0.00    +0.000 C 
ATOM     20  N   UNL     1       2.255   7.081  20.128  0.00  0.00    +0.000 NA
ENDBRANCH   3  19
TORSDOF 5
ENDMDL
MODEL 6
REMARK VINA RESULT:      -6.1      3.268      5.127
REMARK  Name = 
REMARK  7 active torsions:
REMARK  status: ('A' for Active; 'I' for Inactive)
REMARK    1  A    between atoms: C_1  and  C_2
REMARK    2  A    between atoms: C_2  and  C_4
REMARK    3  A    between atoms: C_4  and  C_5
REMARK    4  A    between atoms: C_5  and  C_6
REMARK    5  A    between atoms: C_8  and  C_9
REMARK    6  A    between atoms: C_16  and  C_17
REMARK    7  A    between atoms: C_16  and  C_19
REMARK                            x       y       z     vdW  Elec       q    Type
REMARK                         _______ _______ _______ _____ _____    ______ ____
ROOT
ATOM      1  C   UNL     1       3.504   4.225  19.464  0.00  0.00    +0.000 C 
ATOM      2  C   UNL     1       3.676   5.638  18.887  0.00  0.00    +0.000 C 
ATOM      3  C   UNL     1       3.194   4.499  17.990  0.00  0.00    +0.000 C 
ENDROOT
BRANCH   2   4
ATOM      4  C   UNL     1       2.795   6.875  18.984  0.00  0.00    +0.000 A 
ATOM      5  C   UNL     1       2.123   7.297  20.141  0.00  0.00    +0.000 A 
ATOM      6  C   UNL     1       1.304   8.432  20.144  0.00  0.00    +0.000 A 
ATOM      7  C   UNL     1       1.191   9.207  18.999  0.00  0.00    +0.000 A 
ATOM      8  F   UNL     1       0.417  10.295  19.005  0.00  0.00    +0.000 F 
ATOM      9  C   UNL     1       1.893   8.867  17.856  0.00  0.00    +0.000 A 
ATOM     10  C   UNL     1       2.685   7.715  17.851  0.00  0.00    +0.000 A 
ENDBRANCH   2   4
BRANCH   1  12
ATOM     11  C   UNL     1       4.646   2.017  20.148  0.00  0.00    +0.000 C 
ATOM     12  C   UNL     1       4.767   3.459  19.748  0.00  0.00    +0.000 C 
ATOM     13  O   UNL     1       5.844   4.009  19.556  0.00  0.00    +0.000 OA
ENDBRANCH   1  12
BRANCH   1  14
ATOM     14  C   UNL     1       2.369   3.815  20.356  0.00  0.00    +0.000 C 
ATOM     15  C   UNL     1       1.545   2.629  19.921  0.00  0.00    +0.000 C 
ATOM     16  O   UNL     1       2.244   4.303  21.471  0.00  0.00    +0.000 OA
ENDBRANCH   1  14
BRANCH   3  17
ATOM     17  C   UNL     1       1.829   4.468  17.540  0.00  0.00    +0.000 C 
ATOM     18  N   UNL     1       0.735   4.447  17.153  0.00  0.00    +0.000 NA
ENDBRANCH   3  17
BRANCH   3  19
ATOM     19  C   UNL     1       4.093   4.086  16.949  0.00  0.00    +0.000 C 
ATOM     20  N   UNL     1       4.858   3.746  16.147  0.00  0.00    +0.000 NA
ENDBRANCH   3  19
TORSDOF 5
ENDMDL
MODEL 7
REMARK VINA RESULT:      -6.0      3.021      4.876
REMARK  Name = 
REMARK  7 active torsions:
REMARK  status: ('A' for Active; 'I' for Inactive)
REMARK    1  A    between atoms: C_1  and  C_2
REMARK    2  A    between atoms: C_2  and  C_4
REMARK    3  A    between atoms: C_4  and  C_5
REMARK    4  A    between atoms: C_5  and  C_6
REMARK    5  A    between atoms: C_8  and  C_9
REMARK    6  A    between atoms: C_16  and  C_17
REMARK    7  A    between atoms: C_16  and  C_19
REMARK                            x       y       z     vdW  Elec       q    Type
REMARK                         _______ _______ _______ _____ _____    ______ ____
ROOT
ATOM      1  C   UNL     1       3.375   4.451  19.042  0.00  0.00    +0.000 C 
ATOM      2  C   UNL     1       3.358   5.829  19.722  0.00  0.00    +0.000 C 
ATOM      3  C   UNL     1       4.494   5.459  18.769  0.00  0.00    +0.000 C 
ENDROOT
BRANCH   2   4
ATOM      4  C   UNL     1       2.565   7.090  19.412  0.00  0.00    +0.000 A 
ATOM      5  C   UNL     1       1.815   7.820  20.345  0.00  0.00    +0.000 A 
ATOM      6  C   UNL     1       1.084   8.956  19.977  0.00  0.00    +0.000 A 
ATOM      7  C   UNL     1       1.142   9.421  18.671  0.00  0.00    +0.000 A 
ATOM      8  F   UNL     1       0.453  10.511  18.321  0.00  0.00    +0.000 F 
ATOM      9  C   UNL     1       1.926   8.772  17.734  0.00  0.00    +0.000 A 
ATOM     10  C   UNL     1       2.629   7.620  18.103  0.00  0.00    +0.000 A 
ENDBRANCH   2   4
BRANCH   1  12
ATOM     11  C   UNL     1       2.760   2.864  20.978  0.00  0.00    +0.000 C 
ATOM     12  C   UNL     1       3.733   3.278  19.913  0.00  0.00    +0.000 C 
ATOM     13  O   UNL     1       4.756   2.652  19.665  0.00  0.00    +0.000 OA
ENDBRANCH   1  12
BRANCH   1  14
ATOM     14  C   UNL     1       2.481   4.067  17.900  0.00  0.00    +0.000 C 
ATOM     15  C   UNL     1       3.054   3.140  16.857  0.00  0.00    +0.000 C 
ATOM     16  O   UNL     1       1.288   4.343  17.920  0.00  0.00    +0.000 OA
ENDBRANCH   1  14
BRANCH   3  17
ATOM     17  C   UNL     1       4.579   6.084  17.476  0.00  0.00    +0.000 C 
ATOM     18  N   UNL     1       4.670   6.576  16.429  0.00  0.00    +0.000 NA
ENDBRANCH   3  17
BRANCH   3  19
ATOM     19  C   UNL     1       5.795   5.309  19.359  0.00  0.00    +0.000 C 
ATOM     20  N   UNL     1       6.867   5.191  19.783  0.00  0.00    +0.000 NA
ENDBRANCH   3  19
TORSDOF 5
ENDMDL
MODEL 8
REMARK VINA RESULT:      -5.9      2.222      3.130
REMARK  Name = 
REMARK  7 active torsions:
REMARK  status: ('A' for Active; 'I' for Inactive)
REMARK    1  A    between atoms: C_1  and  C_2
REMARK    2  A    between atoms: C_2  and  C_4
REMARK    3  A    between atoms: C_4  and  C_5
REMARK    4  A    between atoms: C_5  and  C_6
REMARK    5  A    between atoms: C_8  and  C_9
REMARK    6  A    between atoms: C_16  and  C_17
REMARK    7  A    between atoms: C_16  and  C_19
REMARK                            x       y       z     vdW  Elec       q    Type
REMARK                         _______ _______ _______ _____ _____    ______ ____
ROOT
ATOM      1  C   UNL     1       2.911   3.700  19.487  0.00  0.00    +0.000 C 
ATOM      2  C   UNL     1       4.365   4.089  19.183  0.00  0.00    +0.000 C 
ATOM      3  C   UNL     1       4.000   2.626  19.429  0.00  0.00    +0.000 C 
ENDROOT
BRANCH   2   4
ATOM      4  C   UNL     1       5.059   4.428  17.871  0.00  0.00    +0.000 A 
ATOM      5  C   UNL     1       4.411   4.859  16.705  0.00  0.00    +0.000 A 
ATOM      6  C   UNL     1       5.116   5.123  15.525  0.00  0.00    +0.000 A 
ATOM      7  C   UNL     1       6.499   5.020  15.509  0.00  0.00    +0.000 A 
ATOM      8  F   UNL     1       7.173   5.280  14.385  0.00  0.00    +0.000 F 
ATOM      9  C   UNL     1       7.185   4.666  16.657  0.00  0.00    +0.000 A 
ATOM     10  C   UNL     1       6.471   4.374  17.824  0.00  0.00    +0.000 A 
ENDBRANCH   2   4
BRANCH   1  12
ATOM     11  C   UNL     1       1.820   2.953  21.701  0.00  0.00    +0.000 C 
ATOM     12  C   UNL     1       2.395   4.052  20.856  0.00  0.00    +0.000 C 
ATOM     13  O   UNL     1       2.544   5.197  21.263  0.00  0.00    +0.000 OA
ENDBRANCH   1  12
BRANCH   1  14
ATOM     14  C   UNL     1       1.821   3.651  18.457  0.00  0.00    +0.000 C 
ATOM     15  C   UNL     1       0.895   2.460  18.489  0.00  0.00    +0.000 C 
ATOM     16  O   UNL     1       1.585   4.623  17.752  0.00  0.00    +0.000 OA
ENDBRANCH   1  14
BRANCH   3  17
ATOM     17  C   UNL     1       4.009   1.690  18.338  0.00  0.00    +0.000 C 
ATOM     18  N   UNL     1       4.031   0.950  17.444  0.00  0.00    +0.000 NA
ENDBRANCH   3  17
BRANCH   3  19
ATOM     19  C   UNL     1       4.528   2.032  20.626  0.00  0.00    +0.000 C 
ATOM     20  N   UNL     1       5.005   1.554  21.569  0.00  0.00    +0.000 NA
ENDBRANCH   3  19
TORSDOF 5
ENDMDL
MODEL 9
REMARK VINA RESULT:      -5.9      2.522      3.421
REMARK  Name = 
REMARK  7 active torsions:
REMARK  status: ('A' for Active; 'I' for Inactive)
REMARK    1  A    between atoms: C_1  and  C_2
REMARK    2  A    between atoms: C_2  and  C_4
REMARK    3  A    between atoms: C_4  and  C_5
REMARK    4  A    between atoms: C_5  and  C_6
REMARK    5  A    between atoms: C_8  and  C_9
REMARK    6  A    between atoms: C_16  and  C_17
REMARK    7  A    between atoms: C_16  and  C_19
REMARK                            x       y       z     vdW  Elec       q    Type
REMARK                         _______ _______ _______ _____ _____    ______ ____
ROOT
ATOM      1  C   UNL     1       4.830   5.600  17.083  0.00  0.00    +0.000 C 
ATOM      2  C   UNL     1       5.429   5.985  15.722  0.00  0.00    +0.000 C 
ATOM      3  C   UNL     1       6.307   5.984  16.972  0.00  0.00    +0.000 C 
ENDROOT
BRANCH   2   4
ATOM      4  C   UNL     1       5.879   5.128  14.547  0.00  0.00    +0.000 A 
ATOM      5  C   UNL     1       5.102   4.140  13.926  0.00  0.00    +0.000 A 
ATOM      6  C   UNL     1       5.599   3.370  12.867  0.00  0.00    +0.000 A 
ATOM      7  C   UNL     1       6.868   3.620  12.366  0.00  0.00    +0.000 A 
ATOM      8  F   UNL     1       7.338   2.892  11.350  0.00  0.00    +0.000 F 
ATOM      9  C   UNL     1       7.642   4.634  12.903  0.00  0.00    +0.000 A 
ATOM     10  C   UNL     1       7.151   5.378  13.981  0.00  0.00    +0.000 A 
ENDBRANCH   2   4
BRANCH   1  12
ATOM     11  C   UNL     1       3.449   6.352  19.126  0.00  0.00    +0.000 C 
ATOM     12  C   UNL     1       3.925   6.615  17.727  0.00  0.00    +0.000 C 
ATOM     13  O   UNL     1       3.685   7.654  17.126  0.00  0.00    +0.000 OA
ENDBRANCH   1  12
BRANCH   1  14
ATOM     14  C   UNL     1       4.497   4.194  17.487  0.00  0.00    +0.000 C 
ATOM     15  C   UNL     1       4.998   3.727  18.831  0.00  0.00    +0.000 C 
ATOM     16  O   UNL     1       3.699   3.530  16.839  0.00  0.00    +0.000 OA
ENDBRANCH   1  14
BRANCH   3  17
ATOM     17  C   UNL     1       7.313   4.970  17.142  0.00  0.00    +0.000 C 
ATOM     18  N   UNL     1       8.107   4.137  17.289  0.00  0.00    +0.000 NA
ENDBRANCH   3  17
BRANCH   3  19
ATOM     19  C   UNL     1       6.782   7.265  17.415  0.00  0.00    +0.000 C 
ATOM     20  N   UNL     1       7.214   8.288  17.747  0.00  0.00    +0.000 NA
ENDBRANCH   3  19
TORSDOF 5
ENDMDL
