MODEL 1
REMARK VINA RESULT:      -8.5      0.000      0.000
REMARK  Name = 
REMARK  4 active torsions:
REMARK  status: ('A' for Active; 'I' for Inactive)
REMARK    1  A    between atoms: C_1  and  N_2
REMARK    2  A    between atoms: C_5  and  N_6
REMARK    3  A    between atoms: N_6  and  C_7
REMARK    4  A    between atoms: C_13  and  C_14
REMARK                            x       y       z     vdW  Elec       q    Type
REMARK                         _______ _______ _______ _____ _____    ______ ____
ROOT
ATOM      1  C   UNL     1       0.715  10.926  19.737  0.00  0.00    +0.000 A 
ATOM      2  C   UNL     1       0.304  10.814  21.009  0.00  0.00    +0.000 A 
ATOM      3  C   UNL     1       0.544   9.544  21.727  0.00  0.00    +0.000 A 
ATOM      4 CL   UNL     1       0.062   9.416  23.378  0.00  0.00    +0.000 Cl
ATOM      5  N   UNL     1       1.096   8.487  21.227  0.00  0.00    +0.000 NA
ATOM      6  N   UNL     1       1.457   8.628  19.920  0.00  0.00    +0.000 N 
ATOM      7  C   UNL     1       2.053   7.657  19.130  0.00  0.00    +0.000 A 
ATOM      8  C   UNL     1       2.251   8.294  17.918  0.00  0.00    +0.000 A 
ATOM      9  N   UNL     1       1.787   9.586  17.922  0.00  0.00    +0.000 NA
ATOM     10  C   UNL     1       1.310   9.767  19.138  0.00  0.00    +0.000 A 
ENDROOT
BRANCH   7  11
ATOM     11  C   UNL     1       2.379   6.279  19.534  0.00  0.00    +0.000 A 
ATOM     12  C   UNL     1       1.554   5.608  20.454  0.00  0.00    +0.000 A 
ATOM     13  C   UNL     1       1.844   4.314  20.918  0.00  0.00    +0.000 A 
ATOM     14  C   UNL     1       3.003   3.713  20.428  0.00  0.00    +0.000 A 
ATOM     15  N   UNL     1       3.576   2.491  20.673  0.00  0.00    +0.000 N 
ATOM     16  N   UNL     1       4.722   2.277  20.004  0.00  0.00    +0.000 NA
ATOM     17  C   UNL     1       4.883   3.401  19.300  0.00  0.00    +0.000 A 
ATOM     18  C   UNL     1       3.848   4.336  19.517  0.00  0.00    +0.000 A 
ATOM     19  C   UNL     1       3.534   5.630  19.063  0.00  0.00    +0.000 A 
ATOM     20  H   UNL     1       3.237   1.764  21.291  0.00  0.00    +0.000 HD
ENDBRANCH   7  11
BRANCH   1  21
ATOM     21  N   UNL     1       0.517  12.113  19.025  0.00  0.00    +0.000 N 
ATOM     22  H   UNL     1       0.473  11.882  18.026  0.00  0.00    +0.000 HD
BRANCH  21  27
ATOM     23  C   UNL     1       3.698  16.723  18.032  0.00  0.00    +0.000 C 
ATOM     24  N   UNL     1       2.818  15.551  18.003  0.00  0.00    +0.000 NA
ATOM     25  C   UNL     1       3.567  14.331  18.329  0.00  0.00    +0.000 C 
ATOM     26  C   UNL     1       2.669  13.095  18.274  0.00  0.00    +0.000 C 
ATOM     27  C   UNL     1       1.456  13.248  19.196  0.00  0.00    +0.000 C 
ATOM     28  C   UNL     1       0.728  14.559  18.893  0.00  0.00    +0.000 C 
ATOM     29  C   UNL     1       1.689  15.747  18.921  0.00  0.00    +0.000 C 
ENDBRANCH  21  27
ENDBRANCH   1  21
TORSDOF 3
ENDMDL
MODEL 2
REMARK VINA RESULT:      -8.4      0.462      1.344
REMARK  Name = 
REMARK  4 active torsions:
REMARK  status: ('A' for Active; 'I' for Inactive)
REMARK    1  A    between atoms: C_1  and  N_2
REMARK    2  A    between atoms: C_5  and  N_6
REMARK    3  A    between atoms: N_6  and  C_7
REMARK    4  A    between atoms: C_13  and  C_14
REMARK                            x       y       z     vdW  Elec       q    Type
REMARK                         _______ _______ _______ _____ _____    ______ ____
ROOT
ATOM      1  C   UNL     1       0.663  10.882  19.582  0.00  0.00    +0.000 A 
ATOM      2  C   UNL     1       0.222  10.764  20.844  0.00  0.00    +0.000 A 
ATOM      3  C   UNL     1       0.514   9.520  21.588  0.00  0.00    +0.000 A 
ATOM      4 CL   UNL     1      -0.008   9.387  23.227  0.00  0.00    +0.000 Cl
ATOM      5  N   UNL     1       1.140   8.490  21.121  0.00  0.00    +0.000 NA
ATOM      6  N   UNL     1       1.530   8.634  19.822  0.00  0.00    +0.000 N 
ATOM      7  C   UNL     1       2.205   7.688  19.065  0.00  0.00    +0.000 A 
ATOM      8  C   UNL     1       2.401   8.318  17.849  0.00  0.00    +0.000 A 
ATOM      9  N   UNL     1       1.863   9.581  17.820  0.00  0.00    +0.000 NA
ATOM     10  C   UNL     1       1.341   9.752  19.019  0.00  0.00    +0.000 A 
ENDROOT
BRANCH   7  11
ATOM     11  C   UNL     1       2.597   6.337  19.500  0.00  0.00    +0.000 A 
ATOM     12  C   UNL     1       3.691   5.698  18.889  0.00  0.00    +0.000 A 
ATOM     13  C   UNL     1       4.077   4.389  19.221  0.00  0.00    +0.000 A 
ATOM     14  C   UNL     1       3.319   3.735  20.193  0.00  0.00    +0.000 A 
ATOM     15  N   UNL     1       3.412   2.479  20.735  0.00  0.00    +0.000 N 
ATOM     16  N   UNL     1       2.472   2.207  21.658  0.00  0.00    +0.000 NA
ATOM     17  C   UNL     1       1.758   3.335  21.711  0.00  0.00    +0.000 A 
ATOM     18  C   UNL     1       2.232   4.326  20.825  0.00  0.00    +0.000 A 
ATOM     19  C   UNL     1       1.867   5.640  20.479  0.00  0.00    +0.000 A 
ATOM     20  H   UNL     1       4.090   1.759  20.514  0.00  0.00    +0.000 HD
ENDBRANCH   7  11
BRANCH   1  21
ATOM     21  N   UNL     1       0.418  12.046  18.847  0.00  0.00    +0.000 N 
ATOM     22  H   UNL     1       0.461  11.807  17.849  0.00  0.00    +0.000 HD
BRANCH  21  27
ATOM     23  C   UNL     1       3.250  16.910  18.029  0.00  0.00    +0.000 C 
ATOM     24  N   UNL     1       2.475  15.669  17.951  0.00  0.00    +0.000 NA
ATOM     25  C   UNL     1       3.304  14.514  18.319  0.00  0.00    +0.000 C 
ATOM     26  C   UNL     1       2.518  13.207  18.215  0.00  0.00    +0.000 C 
ATOM     27  C   UNL     1       1.248  13.254  19.069  0.00  0.00    +0.000 C 
ATOM     28  C   UNL     1       0.430  14.501  18.726  0.00  0.00    +0.000 C 
ATOM     29  C   UNL     1       1.285  15.765  18.807  0.00  0.00    +0.000 C 
ENDBRANCH  21  27
ENDBRANCH   1  21
TORSDOF 3
ENDMDL
MODEL 3
REMARK VINA RESULT:      -8.4      2.359      3.760
REMARK  Name = 
REMARK  4 active torsions:
REMARK  status: ('A' for Active; 'I' for Inactive)
REMARK    1  A    between atoms: C_1  and  N_2
REMARK    2  A    between atoms: C_5  and  N_6
REMARK    3  A    between atoms: N_6  and  C_7
REMARK    4  A    between atoms: C_13  and  C_14
REMARK                            x       y       z     vdW  Elec       q    Type
REMARK                         _______ _______ _______ _____ _____    ______ ____
ROOT
ATOM      1  C   UNL     1       0.375  10.864  19.641  0.00  0.00    +0.000 A 
ATOM      2  C   UNL     1       0.032  10.754  20.933  0.00  0.00    +0.000 A 
ATOM      3  C   UNL     1       0.449   9.548  21.681  0.00  0.00    +0.000 A 
ATOM      4 CL   UNL     1       0.054   9.428  23.356  0.00  0.00    +0.000 Cl
ATOM      5  N   UNL     1       1.100   8.545  21.193  0.00  0.00    +0.000 NA
ATOM      6  N   UNL     1       1.389   8.677  19.866  0.00  0.00    +0.000 N 
ATOM      7  C   UNL     1       2.062   7.752  19.083  0.00  0.00    +0.000 A 
ATOM      8  C   UNL     1       2.135   8.361  17.842  0.00  0.00    +0.000 A 
ATOM      9  N   UNL     1       1.522   9.590  17.825  0.00  0.00    +0.000 NA
ATOM     10  C   UNL     1       1.077   9.761  19.055  0.00  0.00    +0.000 A 
ENDROOT
BRANCH   7  11
ATOM     11  C   UNL     1       2.564   6.437  19.517  0.00  0.00    +0.000 A 
ATOM     12  C   UNL     1       3.693   5.880  18.891  0.00  0.00    +0.000 A 
ATOM     13  C   UNL     1       4.184   4.606  19.223  0.00  0.00    +0.000 A 
ATOM     14  C   UNL     1       3.494   3.902  20.210  0.00  0.00    +0.000 A 
ATOM     15  N   UNL     1       3.691   2.660  20.756  0.00  0.00    +0.000 N 
ATOM     16  N   UNL     1       2.789   2.323  21.695  0.00  0.00    +0.000 NA
ATOM     17  C   UNL     1       1.992   3.393  21.755  0.00  0.00    +0.000 A 
ATOM     18  C   UNL     1       2.375   4.413  20.858  0.00  0.00    +0.000 A 
ATOM     19  C   UNL     1       1.905   5.692  20.511  0.00  0.00    +0.000 A 
ATOM     20  H   UNL     1       4.418   1.993  20.526  0.00  0.00    +0.000 HD
ENDBRANCH   7  11
BRANCH   1  21
ATOM     21  N   UNL     1       0.010  11.993  18.900  0.00  0.00    +0.000 N 
ATOM     22  H   UNL     1       0.245  12.825  19.453  0.00  0.00    +0.000 HD
BRANCH  21  27
ATOM     23  C   UNL     1      -5.535  11.142  17.962  0.00  0.00    +0.000 C 
ATOM     24  N   UNL     1      -4.121  11.107  18.347  0.00  0.00    +0.000 NA
ATOM     25  C   UNL     1      -3.262  11.009  17.160  0.00  0.00    +0.000 C 
ATOM     26  C   UNL     1      -1.784  10.943  17.546  0.00  0.00    +0.000 C 
ATOM     27  C   UNL     1      -1.380  12.142  18.409  0.00  0.00    +0.000 C 
ATOM     28  C   UNL     1      -2.329  12.273  19.602  0.00  0.00    +0.000 C 
ATOM     29  C   UNL     1      -3.789  12.291  19.151  0.00  0.00    +0.000 C 
ENDBRANCH  21  27
ENDBRANCH   1  21
TORSDOF 3
ENDMDL
MODEL 4
REMARK VINA RESULT:      -8.2      1.110      1.427
REMARK  Name = 
REMARK  4 active torsions:
REMARK  status: ('A' for Active; 'I' for Inactive)
REMARK    1  A    between atoms: C_1  and  N_2
REMARK    2  A    between atoms: C_5  and  N_6
REMARK    3  A    between atoms: N_6  and  C_7
REMARK    4  A    between atoms: C_13  and  C_14
REMARK                            x       y       z     vdW  Elec       q    Type
REMARK                         _______ _______ _______ _____ _____    ______ ____
ROOT
ATOM      1  C   UNL     1       0.799  10.492  19.208  0.00  0.00    +0.000 A 
ATOM      2  C   UNL     1       0.284  10.173  20.406  0.00  0.00    +0.000 A 
ATOM      3  C   UNL     1       0.605   8.854  20.991  0.00  0.00    +0.000 A 
ATOM      4 CL   UNL     1      -0.013   8.462  22.553  0.00  0.00    +0.000 Cl
ATOM      5  N   UNL     1       1.325   7.935  20.435  0.00  0.00    +0.000 NA
ATOM      6  N   UNL     1       1.789   8.282  19.200  0.00  0.00    +0.000 N 
ATOM      7  C   UNL     1       2.570   7.491  18.372  0.00  0.00    +0.000 A 
ATOM      8  C   UNL     1       2.806   8.296  17.272  0.00  0.00    +0.000 A 
ATOM      9  N   UNL     1       2.191   9.520  17.377  0.00  0.00    +0.000 NA
ATOM     10  C   UNL     1       1.582   9.491  18.546  0.00  0.00    +0.000 A 
ENDROOT
BRANCH   7  11
ATOM     11  C   UNL     1       3.018   6.114  18.644  0.00  0.00    +0.000 A 
ATOM     12  C   UNL     1       4.234   5.896  19.315  0.00  0.00    +0.000 A 
ATOM     13  C   UNL     1       4.740   4.608  19.553  0.00  0.00    +0.000 A 
ATOM     14  C   UNL     1       3.980   3.536  19.086  0.00  0.00    +0.000 A 
ATOM     15  N   UNL     1       4.180   2.180  19.139  0.00  0.00    +0.000 N 
ATOM     16  N   UNL     1       3.206   1.458  18.555  0.00  0.00    +0.000 NA
ATOM     17  C   UNL     1       2.351   2.388  18.121  0.00  0.00    +0.000 A 
ATOM     18  C   UNL     1       2.772   3.702  18.419  0.00  0.00    +0.000 A 
ATOM     19  C   UNL     1       2.284   5.002  18.196  0.00  0.00    +0.000 A 
ATOM     20  H   UNL     1       4.962   1.686  19.552  0.00  0.00    +0.000 HD
ENDBRANCH   7  11
BRANCH   1  21
ATOM     21  N   UNL     1       0.529  11.733  18.624  0.00  0.00    +0.000 N 
ATOM     22  H   UNL     1       0.602  11.628  17.606  0.00  0.00    +0.000 HD
BRANCH  21  27
ATOM     23  C   UNL     1       3.218  16.744  18.516  0.00  0.00    +0.000 C 
ATOM     24  N   UNL     1       2.488  15.500  18.258  0.00  0.00    +0.000 NA
ATOM     25  C   UNL     1       3.345  14.334  18.506  0.00  0.00    +0.000 C 
ATOM     26  C   UNL     1       2.606  13.027  18.213  0.00  0.00    +0.000 C 
ATOM     27  C   UNL     1       1.310  12.928  19.023  0.00  0.00    +0.000 C 
ATOM     28  C   UNL     1       0.461  14.183  18.811  0.00  0.00    +0.000 C 
ATOM     29  C   UNL     1       1.270  15.452  19.078  0.00  0.00    +0.000 C 
ENDBRANCH  21  27
ENDBRANCH   1  21
TORSDOF 3
ENDMDL
MODEL 5
REMARK VINA RESULT:      -8.1      3.519      8.049
REMARK  Name = 
REMARK  4 active torsions:
REMARK  status: ('A' for Active; 'I' for Inactive)
REMARK    1  A    between atoms: C_1  and  N_2
REMARK    2  A    between atoms: C_5  and  N_6
REMARK    3  A    between atoms: N_6  and  C_7
REMARK    4  A    between atoms: C_13  and  C_14
REMARK                            x       y       z     vdW  Elec       q    Type
REMARK                         _______ _______ _______ _____ _____    ______ ____
ROOT
ATOM      1  C   UNL     1       3.861   4.201  18.638  0.00  0.00    +0.000 A 
ATOM      2  C   UNL     1       3.300   3.490  19.629  0.00  0.00    +0.000 A 
ATOM      3  C   UNL     1       2.300   4.147  20.499  0.00  0.00    +0.000 A 
ATOM      4 CL   UNL     1       1.539   3.222  21.739  0.00  0.00    +0.000 Cl
ATOM      5  N   UNL     1       1.927   5.383  20.421  0.00  0.00    +0.000 NA
ATOM      6  N   UNL     1       2.556   6.080  19.431  0.00  0.00    +0.000 N 
ATOM      7  C   UNL     1       2.363   7.419  19.130  0.00  0.00    +0.000 A 
ATOM      8  C   UNL     1       3.189   7.634  18.040  0.00  0.00    +0.000 A 
ATOM      9  N   UNL     1       3.887   6.507  17.682  0.00  0.00    +0.000 NA
ATOM     10  C   UNL     1       3.493   5.582  18.534  0.00  0.00    +0.000 A 
ENDROOT
BRANCH   7  11
ATOM     11  C   UNL     1       1.475   8.357  19.837  0.00  0.00    +0.000 A 
ATOM     12  C   UNL     1       0.843   9.391  19.125  0.00  0.00    +0.000 A 
ATOM     13  C   UNL     1       0.030  10.348  19.754  0.00  0.00    +0.000 A 
ATOM     14  C   UNL     1      -0.124  10.235  21.136  0.00  0.00    +0.000 A 
ATOM     15  N   UNL     1      -0.823  10.987  22.044  0.00  0.00    +0.000 N 
ATOM     16  N   UNL     1      -0.715  10.557  23.314  0.00  0.00    +0.000 NA
ATOM     17  C   UNL     1       0.076   9.486  23.209  0.00  0.00    +0.000 A 
ATOM     18  C   UNL     1       0.479   9.229  21.882  0.00  0.00    +0.000 A 
ATOM     19  C   UNL     1       1.285   8.279  21.229  0.00  0.00    +0.000 A 
ATOM     20  H   UNL     1      -1.387  11.809  21.862  0.00  0.00    +0.000 HD
ENDBRANCH   7  11
BRANCH   1  21
ATOM     21  N   UNL     1       4.803   3.614  17.786  0.00  0.00    +0.000 N 
ATOM     22  H   UNL     1       5.595   3.297  18.357  0.00  0.00    +0.000 HD
BRANCH  21  27
ATOM     23  C   UNL     1       7.669   5.046  13.087  0.00  0.00    +0.000 C 
ATOM     24  N   UNL     1       7.080   4.427  14.278  0.00  0.00    +0.000 NA
ATOM     25  C   UNL     1       7.442   5.179  15.486  0.00  0.00    +0.000 C 
ATOM     26  C   UNL     1       6.859   4.529  16.741  0.00  0.00    +0.000 C 
ATOM     27  C   UNL     1       5.339   4.377  16.634  0.00  0.00    +0.000 C 
ATOM     28  C   UNL     1       4.974   3.657  15.335  0.00  0.00    +0.000 C 
ATOM     29  C   UNL     1       5.623   4.330  14.125  0.00  0.00    +0.000 C 
ENDBRANCH  21  27
ENDBRANCH   1  21
TORSDOF 3
ENDMDL
MODEL 6
REMARK VINA RESULT:      -8.1      0.920      1.764
REMARK  Name = 
REMARK  4 active torsions:
REMARK  status: ('A' for Active; 'I' for Inactive)
REMARK    1  A    between atoms: C_1  and  N_2
REMARK    2  A    between atoms: C_5  and  N_6
REMARK    3  A    between atoms: N_6  and  C_7
REMARK    4  A    between atoms: C_13  and  C_14
REMARK                            x       y       z     vdW  Elec       q    Type
REMARK                         _______ _______ _______ _____ _____    ______ ____
ROOT
ATOM      1  C   UNL     1       0.615  10.859  19.322  0.00  0.00    +0.000 A 
ATOM      2  C   UNL     1       0.175  10.772  20.587  0.00  0.00    +0.000 A 
ATOM      3  C   UNL     1       0.505   9.565  21.375  0.00  0.00    +0.000 A 
ATOM      4 CL   UNL     1      -0.016   9.473  23.017  0.00  0.00    +0.000 Cl
ATOM      5  N   UNL     1       1.164   8.540  20.945  0.00  0.00    +0.000 NA
ATOM      6  N   UNL     1       1.553   8.650  19.642  0.00  0.00    +0.000 N 
ATOM      7  C   UNL     1       2.258   7.700  18.919  0.00  0.00    +0.000 A 
ATOM      8  C   UNL     1       2.437   8.293  17.682  0.00  0.00    +0.000 A 
ATOM      9  N   UNL     1       1.859   9.536  17.608  0.00  0.00    +0.000 NA
ATOM     10  C   UNL     1       1.329   9.732  18.800  0.00  0.00    +0.000 A 
ENDROOT
BRANCH   7  11
ATOM     11  C   UNL     1       2.693   6.378  19.401  0.00  0.00    +0.000 A 
ATOM     12  C   UNL     1       3.798   5.746  18.804  0.00  0.00    +0.000 A 
ATOM     13  C   UNL     1       4.225   4.463  19.183  0.00  0.00    +0.000 A 
ATOM     14  C   UNL     1       3.495   3.827  20.187  0.00  0.00    +0.000 A 
ATOM     15  N   UNL     1       3.628   2.595  20.776  0.00  0.00    +0.000 N 
ATOM     16  N   UNL     1       2.704   2.333  21.718  0.00  0.00    +0.000 NA
ATOM     17  C   UNL     1       1.959   3.442  21.735  0.00  0.00    +0.000 A 
ATOM     18  C   UNL     1       2.397   4.411  20.807  0.00  0.00    +0.000 A 
ATOM     19  C   UNL     1       1.991   5.699  20.414  0.00  0.00    +0.000 A 
ATOM     20  H   UNL     1       4.323   1.886  20.575  0.00  0.00    +0.000 HD
ENDBRANCH   7  11
BRANCH   1  21
ATOM     21  N   UNL     1       0.334  11.988  18.546  0.00  0.00    +0.000 N 
ATOM     22  H   UNL     1       0.352  11.708  17.559  0.00  0.00    +0.000 HD
BRANCH  21  27
ATOM     23  C   UNL     1       4.432  15.626  20.071  0.00  0.00    +0.000 C 
ATOM     24  N   UNL     1       3.513  14.504  19.858  0.00  0.00    +0.000 NA
ATOM     25  C   UNL     1       2.169  14.833  20.347  0.00  0.00    +0.000 C 
ATOM     26  C   UNL     1       1.205  13.661  20.158  0.00  0.00    +0.000 C 
ATOM     27  C   UNL     1       1.153  13.214  18.695  0.00  0.00    +0.000 C 
ATOM     28  C   UNL     1       2.568  12.945  18.178  0.00  0.00    +0.000 C 
ATOM     29  C   UNL     1       3.490  14.137  18.436  0.00  0.00    +0.000 C 
ENDBRANCH  21  27
ENDBRANCH   1  21
TORSDOF 3
ENDMDL
MODEL 7
REMARK VINA RESULT:      -8.0      2.187      3.310
REMARK  Name = 
REMARK  4 active torsions:
REMARK  status: ('A' for Active; 'I' for Inactive)
REMARK    1  A    between atoms: C_1  and  N_2
REMARK    2  A    between atoms: C_5  and  N_6
REMARK    3  A    between atoms: N_6  and  C_7
REMARK    4  A    between atoms: C_13  and  C_14
REMARK                            x       y       z     vdW  Elec       q    Type
REMARK                         _______ _______ _______ _____ _____    ______ ____
ROOT
ATOM      1  C   UNL     1       0.598  10.907  19.826  0.00  0.00    +0.000 A 
ATOM      2  C   UNL     1       0.267  10.791  21.121  0.00  0.00    +0.000 A 
ATOM      3  C   UNL     1       0.585   9.531  21.828  0.00  0.00    +0.000 A 
ATOM      4 CL   UNL     1       0.207   9.398  23.505  0.00  0.00    +0.000 Cl
ATOM      5  N   UNL     1       1.134   8.487  21.299  0.00  0.00    +0.000 NA
ATOM      6  N   UNL     1       1.412   8.632  19.972  0.00  0.00    +0.000 N 
ATOM      7  C   UNL     1       1.986   7.673  19.151  0.00  0.00    +0.000 A 
ATOM      8  C   UNL     1       2.094   8.309  17.927  0.00  0.00    +0.000 A 
ATOM      9  N   UNL     1       1.595   9.588  17.955  0.00  0.00    +0.000 NA
ATOM     10  C   UNL     1       1.187   9.763  19.197  0.00  0.00    +0.000 A 
ENDROOT
BRANCH   7  11
ATOM     11  C   UNL     1       2.373   6.306  19.539  0.00  0.00    +0.000 A 
ATOM     12  C   UNL     1       1.607   5.607  20.489  0.00  0.00    +0.000 A 
ATOM     13  C   UNL     1       1.958   4.324  20.940  0.00  0.00    +0.000 A 
ATOM     14  C   UNL     1       3.117   3.762  20.403  0.00  0.00    +0.000 A 
ATOM     15  N   UNL     1       3.739   2.560  20.623  0.00  0.00    +0.000 N 
ATOM     16  N   UNL     1       4.865   2.384  19.909  0.00  0.00    +0.000 NA
ATOM     17  C   UNL     1       4.960   3.514  19.201  0.00  0.00    +0.000 A 
ATOM     18  C   UNL     1       3.904   4.414  19.461  0.00  0.00    +0.000 A 
ATOM     19  C   UNL     1       3.530   5.697  19.022  0.00  0.00    +0.000 A 
ATOM     20  H   UNL     1       3.449   1.821  21.252  0.00  0.00    +0.000 HD
ENDBRANCH   7  11
BRANCH   1  21
ATOM     21  N   UNL     1       0.325  12.086  19.124  0.00  0.00    +0.000 N 
ATOM     22  H   UNL     1       0.694  12.873  19.670  0.00  0.00    +0.000 HD
BRANCH  21  27
ATOM     23  C   UNL     1      -5.323  11.887  18.490  0.00  0.00    +0.000 C 
ATOM     24  N   UNL     1      -3.903  11.680  18.785  0.00  0.00    +0.000 NA
ATOM     25  C   UNL     1      -3.128  11.553  17.545  0.00  0.00    +0.000 C 
ATOM     26  C   UNL     1      -1.647  11.307  17.836  0.00  0.00    +0.000 C 
ATOM     27  C   UNL     1      -1.065  12.409  18.726  0.00  0.00    +0.000 C 
ATOM     28  C   UNL     1      -1.925  12.580  19.980  0.00  0.00    +0.000 C 
ATOM     29  C   UNL     1      -3.398  12.778  19.620  0.00  0.00    +0.000 C 
ENDBRANCH  21  27
ENDBRANCH   1  21
TORSDOF 3
ENDMDL
MODEL 8
REMARK VINA RESULT:      -7.9      4.101      5.691
REMARK  Name = 
REMARK  4 active torsions:
REMARK  status: ('A' for Active; 'I' for Inactive)
REMARK    1  A    between atoms: C_1  and  N_2
REMARK    2  A    between atoms: C_5  and  N_6
REMARK    3  A    between atoms: N_6  and  C_7
REMARK    4  A    between atoms: C_13  and  C_14
REMARK                            x       y       z     vdW  Elec       q    Type
REMARK                         _______ _______ _______ _____ _____    ______ ____
ROOT
ATOM      1  C   UNL     1      -2.219  11.978  19.193  0.00  0.00    +0.000 A 
ATOM      2  C   UNL     1      -2.700  11.538  18.020  0.00  0.00    +0.000 A 
ATOM      3  C   UNL     1      -2.021  10.408  17.350  0.00  0.00    +0.000 A 
ATOM      4 CL   UNL     1      -2.668   9.807  15.868  0.00  0.00    +0.000 Cl
ATOM      5  N   UNL     1      -0.958   9.807  17.774  0.00  0.00    +0.000 NA
ATOM      6  N   UNL     1      -0.476  10.316  18.944  0.00  0.00    +0.000 N 
ATOM      7  C   UNL     1       0.653   9.877  19.619  0.00  0.00    +0.000 A 
ATOM      8  C   UNL     1       0.692  10.674  20.750  0.00  0.00    +0.000 A 
ATOM      9  N   UNL     1      -0.336  11.585  20.784  0.00  0.00    +0.000 NA
ATOM     10  C   UNL     1      -1.027  11.354  19.686  0.00  0.00    +0.000 A 
ENDROOT
BRANCH   7  11
ATOM     11  C   UNL     1       1.569   8.807  19.190  0.00  0.00    +0.000 A 
ATOM     12  C   UNL     1       2.220   8.903  17.947  0.00  0.00    +0.000 A 
ATOM     13  C   UNL     1       3.060   7.889  17.460  0.00  0.00    +0.000 A 
ATOM     14  C   UNL     1       3.224   6.763  18.267  0.00  0.00    +0.000 A 
ATOM     15  N   UNL     1       3.949   5.611  18.097  0.00  0.00    +0.000 N 
ATOM     16  N   UNL     1       3.841   4.738  19.115  0.00  0.00    +0.000 NA
ATOM     17  C   UNL     1       3.024   5.360  19.969  0.00  0.00    +0.000 A 
ATOM     18  C   UNL     1       2.603   6.624  19.503  0.00  0.00    +0.000 A 
ATOM     19  C   UNL     1       1.769   7.655  19.972  0.00  0.00    +0.000 A 
ATOM     20  H   UNL     1       4.530   5.358  17.307  0.00  0.00    +0.000 HD
ENDBRANCH   7  11
BRANCH   1  21
ATOM     21  N   UNL     1      -2.838  13.037  19.865  0.00  0.00    +0.000 N 
ATOM     22  H   UNL     1      -2.106  13.675  20.195  0.00  0.00    +0.000 HD
BRANCH  21  27
ATOM     23  C   UNL     1      -7.007  13.507  23.705  0.00  0.00    +0.000 C 
ATOM     24  N   UNL     1      -6.014  13.655  22.638  0.00  0.00    +0.000 NA
ATOM     25  C   UNL     1      -4.653  13.639  23.188  0.00  0.00    +0.000 C 
ATOM     26  C   UNL     1      -3.606  13.823  22.090  0.00  0.00    +0.000 C 
ATOM     27  C   UNL     1      -3.758  12.763  20.995  0.00  0.00    +0.000 C 
ATOM     28  C   UNL     1      -5.199  12.742  20.482  0.00  0.00    +0.000 C 
ATOM     29  C   UNL     1      -6.196  12.600  21.632  0.00  0.00    +0.000 C 
ENDBRANCH  21  27
ENDBRANCH   1  21
TORSDOF 3
ENDMDL
MODEL 9
REMARK VINA RESULT:      -7.9      2.581      3.736
REMARK  Name = 
REMARK  4 active torsions:
REMARK  status: ('A' for Active; 'I' for Inactive)
REMARK    1  A    between atoms: C_1  and  N_2
REMARK    2  A    between atoms: C_5  and  N_6
REMARK    3  A    between atoms: N_6  and  C_7
REMARK    4  A    between atoms: C_13  and  C_14
REMARK                            x       y       z     vdW  Elec       q    Type
REMARK                         _______ _______ _______ _____ _____    ______ ____
ROOT
ATOM      1  C   UNL     1       0.627  10.426  19.285  0.00  0.00    +0.000 A 
ATOM      2  C   UNL     1       0.201  10.116  20.519  0.00  0.00    +0.000 A 
ATOM      3  C   UNL     1       0.616   8.826  21.113  0.00  0.00    +0.000 A 
ATOM      4 CL   UNL     1       0.112   8.448  22.719  0.00  0.00    +0.000 Cl
ATOM      5  N   UNL     1       1.341   7.927  20.534  0.00  0.00    +0.000 NA
ATOM      6  N   UNL     1       1.714   8.263  19.265  0.00  0.00    +0.000 N 
ATOM      7  C   UNL     1       2.478   7.486  18.409  0.00  0.00    +0.000 A 
ATOM      8  C   UNL     1       2.610   8.273  17.278  0.00  0.00    +0.000 A 
ATOM      9  N   UNL     1       1.948   9.471  17.394  0.00  0.00    +0.000 NA
ATOM     10  C   UNL     1       1.413   9.444  18.599  0.00  0.00    +0.000 A 
ENDROOT
BRANCH   7  11
ATOM     11  C   UNL     1       3.004   6.137  18.683  0.00  0.00    +0.000 A 
ATOM     12  C   UNL     1       4.259   5.991  19.300  0.00  0.00    +0.000 A 
ATOM     13  C   UNL     1       4.837   4.732  19.537  0.00  0.00    +0.000 A 
ATOM     14  C   UNL     1       4.108   3.616  19.125  0.00  0.00    +0.000 A 
ATOM     15  N   UNL     1       4.374   2.273  19.192  0.00  0.00    +0.000 N 
ATOM     16  N   UNL     1       3.411   1.494  18.667  0.00  0.00    +0.000 NA
ATOM     17  C   UNL     1       2.493   2.374  18.258  0.00  0.00    +0.000 A 
ATOM     18  C   UNL     1       2.864   3.712  18.513  0.00  0.00    +0.000 A 
ATOM     19  C   UNL     1       2.304   4.983  18.291  0.00  0.00    +0.000 A 
ATOM     20  H   UNL     1       5.198   1.825  19.576  0.00  0.00    +0.000 HD
ENDBRANCH   7  11
BRANCH   1  21
ATOM     21  N   UNL     1       0.266  11.640  18.691  0.00  0.00    +0.000 N 
ATOM     22  H   UNL     1       0.477  12.394  19.354  0.00  0.00    +0.000 HD
BRANCH  21  27
ATOM     23  C   UNL     1      -5.332  11.102  17.839  0.00  0.00    +0.000 C 
ATOM     24  N   UNL     1      -3.922  11.003  18.226  0.00  0.00    +0.000 NA
ATOM     25  C   UNL     1      -3.080  10.728  17.055  0.00  0.00    +0.000 C 
ATOM     26  C   UNL     1      -1.608  10.593  17.446  0.00  0.00    +0.000 C 
ATOM     27  C   UNL     1      -1.113  11.839  18.186  0.00  0.00    +0.000 C 
ATOM     28  C   UNL     1      -2.042  12.155  19.360  0.00  0.00    +0.000 C 
ATOM     29  C   UNL     1      -3.501  12.233  18.909  0.00  0.00    +0.000 C 
ENDBRANCH  21  27
ENDBRANCH   1  21
TORSDOF 3
ENDMDL
