MODEL 1
REMARK VINA RESULT:      -7.6      0.000      0.000
REMARK  Name = 
REMARK  14 active torsions:
REMARK  status: ('A' for Active; 'I' for Inactive)
REMARK    1  A    between atoms: C_1  and  C_2
REMARK    2  A    between atoms: C_2  and  N_3
REMARK    3  A    between atoms: N_3  and  C_4
REMARK    4  A    between atoms: N_3  and  C_6
REMARK    5  A    between atoms: C_4  and  C_5
REMARK    6  A    between atoms: C_6  and  C_7
REMARK    7  A    between atoms: C_7  and  C_8
REMARK    8  A    between atoms: C_8  and  N_9
REMARK    9  A    between atoms: C_10  and  C_12
REMARK   10  A    between atoms: C_15  and  C_16
REMARK   11  A    between atoms: C_18  and  C_19
REMARK   12  A    between atoms: C_19  and  S_20
REMARK   13  A    between atoms: S_20  and  C_23
REMARK   14  A    between atoms: C_29  and  C_30
REMARK                            x       y       z     vdW  Elec       q    Type
REMARK                         _______ _______ _______ _____ _____    ______ ____
ROOT
ATOM      1  C   UNL     1       0.859  10.047  19.946  0.00  0.00    +0.000 A 
ATOM      2  C   UNL     1       1.288   9.938  18.620  0.00  0.00    +0.000 A 
ATOM      3  C   UNL     1       1.938   8.781  18.182  0.00  0.00    +0.000 A 
ATOM      4  C   UNL     1       2.191   7.715  19.062  0.00  0.00    +0.000 A 
ATOM      5  C   UNL     1       1.744   7.823  20.385  0.00  0.00    +0.000 A 
ATOM      6  C   UNL     1       1.083   8.982  20.827  0.00  0.00    +0.000 A 
ENDROOT
BRANCH   4   7
ATOM      7  C   UNL     1       2.949   6.548  18.612  0.00  0.00    +0.000 A 
ATOM      8  N   UNL     1       3.395   6.209  17.416  0.00  0.00    +0.000 NA
ATOM      9  C   UNL     1       3.950   4.946  17.595  0.00  0.00    +0.000 A 
ATOM     10  C   UNL     1       3.801   4.579  18.920  0.00  0.00    +0.000 A 
ATOM     11  C   UNL     1       4.095   3.411  19.767  0.00  0.00    +0.000 C 
ATOM     12  O   UNL     1       3.183   5.605  19.570  0.00  0.00    +0.000 OA
BRANCH   9  13
ATOM     13  C   UNL     1       4.511   4.196  16.432  0.00  0.00    +0.000 C 
BRANCH  13  14
ATOM     14  S   UNL     1       5.889   5.041  15.663  0.00  0.00    +0.000 S 
ATOM     15  O   UNL     1       6.786   4.065  15.077  0.00  0.00    +0.000 OA
ATOM     16  O   UNL     1       5.374   6.142  14.875  0.00  0.00    +0.000 OA
BRANCH  14  17
ATOM     17  C   UNL     1       6.805   5.776  17.016  0.00  0.00    +0.000 A 
ATOM     18  C   UNL     1       7.338   4.953  18.012  0.00  0.00    +0.000 A 
ATOM     19  C   UNL     1       8.110   5.512  19.033  0.00  0.00    +0.000 A 
ATOM     20  C   UNL     1       8.363   6.884  19.048  0.00  0.00    +0.000 A 
ATOM     21  C   UNL     1       7.852   7.703  18.041  0.00  0.00    +0.000 A 
ATOM     22  C   UNL     1       7.071   7.152  17.020  0.00  0.00    +0.000 A 
ENDBRANCH  14  17
ENDBRANCH  13  14
ENDBRANCH   9  13
ENDBRANCH   4   7
BRANCH   1  24
ATOM     23  N   UNL     1      -1.169  11.342  20.378  0.00  0.00    +0.000 N 
ATOM     24  C   UNL     1       0.209  11.321  20.363  0.00  0.00    +0.000 C 
ATOM     25  O   UNL     1       0.900  12.298  20.641  0.00  0.00    +0.000 OA
ATOM     26  H   UNL     1      -1.697  10.556  20.026  0.00  0.00    +0.000 HD
BRANCH  23  27
ATOM     27  C   UNL     1      -1.912  12.546  20.691  0.00  0.00    +0.000 C 
BRANCH  27  28
ATOM     28  C   UNL     1      -3.374  12.485  20.254  0.00  0.00    +0.000 C 
BRANCH  28  29
ATOM     29  C   UNL     1      -4.362  13.174  21.213  0.00  0.00    +0.000 C 
BRANCH  29  30
ATOM     30  N   UNL     1      -5.589  12.408  21.517  0.00  0.00    +0.000 NA
BRANCH  30  32
ATOM     31  C   UNL     1      -6.863  12.545  23.708  0.00  0.00    +0.000 C 
ATOM     32  C   UNL     1      -6.504  13.188  22.372  0.00  0.00    +0.000 C 
ENDBRANCH  30  32
BRANCH  30  33
ATOM     33  C   UNL     1      -6.227  11.899  20.287  0.00  0.00    +0.000 C 
ATOM     34  C   UNL     1      -7.216  10.746  20.450  0.00  0.00    +0.000 C 
ENDBRANCH  30  33
ENDBRANCH  29  30
ENDBRANCH  28  29
ENDBRANCH  27  28
ENDBRANCH  23  27
ENDBRANCH   1  24
TORSDOF 11
ENDMDL
MODEL 2
REMARK VINA RESULT:      -7.6      3.154     11.442
REMARK  Name = 
REMARK  14 active torsions:
REMARK  status: ('A' for Active; 'I' for Inactive)
REMARK    1  A    between atoms: C_1  and  C_2
REMARK    2  A    between atoms: C_2  and  N_3
REMARK    3  A    between atoms: N_3  and  C_4
REMARK    4  A    between atoms: N_3  and  C_6
REMARK    5  A    between atoms: C_4  and  C_5
REMARK    6  A    between atoms: C_6  and  C_7
REMARK    7  A    between atoms: C_7  and  C_8
REMARK    8  A    between atoms: C_8  and  N_9
REMARK    9  A    between atoms: C_10  and  C_12
REMARK   10  A    between atoms: C_15  and  C_16
REMARK   11  A    between atoms: C_18  and  C_19
REMARK   12  A    between atoms: C_19  and  S_20
REMARK   13  A    between atoms: S_20  and  C_23
REMARK   14  A    between atoms: C_29  and  C_30
REMARK                            x       y       z     vdW  Elec       q    Type
REMARK                         _______ _______ _______ _____ _____    ______ ____
ROOT
ATOM      1  C   UNL     1       2.998   6.450  18.460  0.00  0.00    +0.000 A 
ATOM      2  C   UNL     1       2.433   6.620  19.727  0.00  0.00    +0.000 A 
ATOM      3  C   UNL     1       1.752   7.799  20.043  0.00  0.00    +0.000 A 
ATOM      4  C   UNL     1       1.637   8.842  19.108  0.00  0.00    +0.000 A 
ATOM      5  C   UNL     1       2.193   8.659  17.835  0.00  0.00    +0.000 A 
ATOM      6  C   UNL     1       2.870   7.471  17.511  0.00  0.00    +0.000 A 
ENDROOT
BRANCH   4   7
ATOM      7  C   UNL     1       0.999  10.104  19.481  0.00  0.00    +0.000 A 
ATOM      8  N   UNL     1      -0.042  10.356  20.252  0.00  0.00    +0.000 NA
ATOM      9  C   UNL     1      -0.235  11.730  20.142  0.00  0.00    +0.000 A 
ATOM     10  C   UNL     1       0.722  12.245  19.286  0.00  0.00    +0.000 A 
ATOM     11  C   UNL     1       1.071  13.550  18.699  0.00  0.00    +0.000 C 
ATOM     12  O   UNL     1       1.518  11.215  18.882  0.00  0.00    +0.000 OA
BRANCH   9  13
ATOM     13  C   UNL     1      -1.380  12.392  20.835  0.00  0.00    +0.000 C 
BRANCH  13  14
ATOM     14  S   UNL     1      -1.030  12.762  22.551  0.00  0.00    +0.000 S 
ATOM     15  O   UNL     1      -1.053  11.536  23.322  0.00  0.00    +0.000 OA
ATOM     16  O   UNL     1       0.111  13.653  22.608  0.00  0.00    +0.000 OA
BRANCH  14  17
ATOM     17  C   UNL     1      -2.438  13.710  23.124  0.00  0.00    +0.000 A 
ATOM     18  C   UNL     1      -3.729  13.214  22.923  0.00  0.00    +0.000 A 
ATOM     19  C   UNL     1      -4.827  13.914  23.427  0.00  0.00    +0.000 A 
ATOM     20  C   UNL     1      -4.634  15.097  24.143  0.00  0.00    +0.000 A 
ATOM     21  C   UNL     1      -3.345  15.580  24.366  0.00  0.00    +0.000 A 
ATOM     22  C   UNL     1      -2.241  14.889  23.857  0.00  0.00    +0.000 A 
ENDBRANCH  14  17
ENDBRANCH  13  14
ENDBRANCH   9  13
ENDBRANCH   4   7
BRANCH   1  24
ATOM     23  N   UNL     1       4.231   5.005  16.921  0.00  0.00    +0.000 N 
ATOM     24  C   UNL     1       3.746   5.188  18.198  0.00  0.00    +0.000 C 
ATOM     25  O   UNL     1       3.877   4.357  19.093  0.00  0.00    +0.000 OA
ATOM     26  H   UNL     1       3.996   5.656  16.185  0.00  0.00    +0.000 HD
BRANCH  23  27
ATOM     27  C   UNL     1       4.905   3.784  16.527  0.00  0.00    +0.000 C 
BRANCH  27  28
ATOM     28  C   UNL     1       6.318   4.020  15.995  0.00  0.00    +0.000 C 
BRANCH  28  29
ATOM     29  C   UNL     1       6.712   5.501  15.852  0.00  0.00    +0.000 C 
BRANCH  29  30
ATOM     30  N   UNL     1       7.491   6.060  16.977  0.00  0.00    +0.000 NA
BRANCH  30  32
ATOM     31  C   UNL     1       7.936   8.468  17.644  0.00  0.00    +0.000 C 
ATOM     32  C   UNL     1       6.926   7.347  17.426  0.00  0.00    +0.000 C 
ENDBRANCH  30  32
BRANCH  30  33
ATOM     33  C   UNL     1       7.649   5.077  18.067  0.00  0.00    +0.000 C 
ATOM     34  C   UNL     1       7.284   5.544  19.475  0.00  0.00    +0.000 C 
ENDBRANCH  30  33
ENDBRANCH  29  30
ENDBRANCH  28  29
ENDBRANCH  27  28
ENDBRANCH  23  27
ENDBRANCH   1  24
TORSDOF 11
ENDMDL
MODEL 3
REMARK VINA RESULT:      -7.5      3.439      4.808
REMARK  Name = 
REMARK  14 active torsions:
REMARK  status: ('A' for Active; 'I' for Inactive)
REMARK    1  A    between atoms: C_1  and  C_2
REMARK    2  A    between atoms: C_2  and  N_3
REMARK    3  A    between atoms: N_3  and  C_4
REMARK    4  A    between atoms: N_3  and  C_6
REMARK    5  A    between atoms: C_4  and  C_5
REMARK    6  A    between atoms: C_6  and  C_7
REMARK    7  A    between atoms: C_7  and  C_8
REMARK    8  A    between atoms: C_8  and  N_9
REMARK    9  A    between atoms: C_10  and  C_12
REMARK   10  A    between atoms: C_15  and  C_16
REMARK   11  A    between atoms: C_18  and  C_19
REMARK   12  A    between atoms: C_19  and  S_20
REMARK   13  A    between atoms: S_20  and  C_23
REMARK   14  A    between atoms: C_29  and  C_30
REMARK                            x       y       z     vdW  Elec       q    Type
REMARK                         _______ _______ _______ _____ _____    ______ ____
ROOT
ATOM      1  C   UNL     1       0.893   9.545  19.964  0.00  0.00    +0.000 A 
ATOM      2  C   UNL     1       1.399   9.469  18.663  0.00  0.00    +0.000 A 
ATOM      3  C   UNL     1       2.144   8.357  18.261  0.00  0.00    +0.000 A 
ATOM      4  C   UNL     1       2.417   7.306  19.153  0.00  0.00    +0.000 A 
ATOM      5  C   UNL     1       1.894   7.381  20.450  0.00  0.00    +0.000 A 
ATOM      6  C   UNL     1       1.137   8.493  20.855  0.00  0.00    +0.000 A 
ENDROOT
BRANCH   4   7
ATOM      7  C   UNL     1       3.272   6.192  18.745  0.00  0.00    +0.000 A 
ATOM      8  N   UNL     1       3.897   5.947  17.608  0.00  0.00    +0.000 NA
ATOM      9  C   UNL     1       4.464   4.688  17.784  0.00  0.00    +0.000 A 
ATOM     10  C   UNL     1       4.137   4.228  19.047  0.00  0.00    +0.000 A 
ATOM     11  C   UNL     1       4.346   3.012  19.851  0.00  0.00    +0.000 C 
ATOM     12  O   UNL     1       3.398   5.191  19.665  0.00  0.00    +0.000 OA
BRANCH   9  13
ATOM     13  C   UNL     1       5.212   4.033  16.671  0.00  0.00    +0.000 C 
BRANCH  13  14
ATOM     14  S   UNL     1       6.667   4.955  16.179  0.00  0.00    +0.000 S 
ATOM     15  O   UNL     1       6.393   6.375  16.280  0.00  0.00    +0.000 OA
ATOM     16  O   UNL     1       7.824   4.374  16.827  0.00  0.00    +0.000 OA
BRANCH  14  17
ATOM     17  C   UNL     1       6.856   4.632  14.427  0.00  0.00    +0.000 A 
ATOM     18  C   UNL     1       6.037   3.683  13.809  0.00  0.00    +0.000 A 
ATOM     19  C   UNL     1       6.133   3.476  12.432  0.00  0.00    +0.000 A 
ATOM     20  C   UNL     1       7.032   4.226  11.672  0.00  0.00    +0.000 A 
ATOM     21  C   UNL     1       7.833   5.191  12.283  0.00  0.00    +0.000 A 
ATOM     22  C   UNL     1       7.748   5.399  13.663  0.00  0.00    +0.000 A 
ENDBRANCH  14  17
ENDBRANCH  13  14
ENDBRANCH   9  13
ENDBRANCH   4   7
BRANCH   1  24
ATOM     23  N   UNL     1       0.717  11.983  20.018  0.00  0.00    +0.000 N 
ATOM     24  C   UNL     1       0.141  10.773  20.345  0.00  0.00    +0.000 C 
ATOM     25  O   UNL     1      -0.923  10.677  20.949  0.00  0.00    +0.000 OA
ATOM     26  H   UNL     1       1.649  12.018  19.630  0.00  0.00    +0.000 HD
BRANCH  23  27
ATOM     27  C   UNL     1       0.117  13.244  20.405  0.00  0.00    +0.000 C 
BRANCH  27  28
ATOM     28  C   UNL     1      -0.250  14.129  19.214  0.00  0.00    +0.000 C 
BRANCH  28  29
ATOM     29  C   UNL     1       0.888  15.036  18.713  0.00  0.00    +0.000 C 
BRANCH  29  30
ATOM     30  N   UNL     1       0.736  16.473  19.024  0.00  0.00    +0.000 NA
BRANCH  30  32
ATOM     31  C   UNL     1       3.239  16.830  19.243  0.00  0.00    +0.000 C 
ATOM     32  C   UNL     1       1.922  17.238  18.592  0.00  0.00    +0.000 C 
ENDBRANCH  30  32
BRANCH  30  33
ATOM     33  C   UNL     1      -0.533  17.010  18.495  0.00  0.00    +0.000 C 
ATOM     34  C   UNL     1      -0.436  17.951  17.295  0.00  0.00    +0.000 C 
ENDBRANCH  30  33
ENDBRANCH  29  30
ENDBRANCH  28  29
ENDBRANCH  27  28
ENDBRANCH  23  27
ENDBRANCH   1  24
TORSDOF 11
ENDMDL
MODEL 4
REMARK VINA RESULT:      -7.4      2.225      3.206
REMARK  Name = 
REMARK  14 active torsions:
REMARK  status: ('A' for Active; 'I' for Inactive)
REMARK    1  A    between atoms: C_1  and  C_2
REMARK    2  A    between atoms: C_2  and  N_3
REMARK    3  A    between atoms: N_3  and  C_4
REMARK    4  A    between atoms: N_3  and  C_6
REMARK    5  A    between atoms: C_4  and  C_5
REMARK    6  A    between atoms: C_6  and  C_7
REMARK    7  A    between atoms: C_7  and  C_8
REMARK    8  A    between atoms: C_8  and  N_9
REMARK    9  A    between atoms: C_10  and  C_12
REMARK   10  A    between atoms: C_15  and  C_16
REMARK   11  A    between atoms: C_18  and  C_19
REMARK   12  A    between atoms: C_19  and  S_20
REMARK   13  A    between atoms: S_20  and  C_23
REMARK   14  A    between atoms: C_29  and  C_30
REMARK                            x       y       z     vdW  Elec       q    Type
REMARK                         _______ _______ _______ _____ _____    ______ ____
ROOT
ATOM      1  C   UNL     1       0.672   9.196  20.445  0.00  0.00    +0.000 A 
ATOM      2  C   UNL     1       0.956   8.055  21.201  0.00  0.00    +0.000 A 
ATOM      3  C   UNL     1       1.817   7.075  20.701  0.00  0.00    +0.000 A 
ATOM      4  C   UNL     1       2.399   7.202  19.428  0.00  0.00    +0.000 A 
ATOM      5  C   UNL     1       2.123   8.356  18.683  0.00  0.00    +0.000 A 
ATOM      6  C   UNL     1       1.265   9.347  19.186  0.00  0.00    +0.000 A 
ENDROOT
BRANCH   4   7
ATOM      7  C   UNL     1       3.228   6.128  18.882  0.00  0.00    +0.000 A 
ATOM      8  N   UNL     1       3.759   5.964  17.684  0.00  0.00    +0.000 NA
ATOM      9  C   UNL     1       4.351   4.706  17.733  0.00  0.00    +0.000 A 
ATOM     10  C   UNL     1       4.137   4.164  18.987  0.00  0.00    +0.000 A 
ATOM     11  C   UNL     1       4.425   2.904  19.693  0.00  0.00    +0.000 C 
ATOM     12  O   UNL     1       3.441   5.075  19.723  0.00  0.00    +0.000 OA
BRANCH   9  13
ATOM     13  C   UNL     1       5.011   4.133  16.522  0.00  0.00    +0.000 C 
BRANCH  13  14
ATOM     14  S   UNL     1       6.503   5.011  16.066  0.00  0.00    +0.000 S 
ATOM     15  O   UNL     1       6.279   6.438  16.191  0.00  0.00    +0.000 OA
ATOM     16  O   UNL     1       7.630   4.377  16.718  0.00  0.00    +0.000 OA
BRANCH  14  17
ATOM     17  C   UNL     1       6.704   4.715  14.311  0.00  0.00    +0.000 A 
ATOM     18  C   UNL     1       7.682   5.419  13.602  0.00  0.00    +0.000 A 
ATOM     19  C   UNL     1       7.889   5.143  12.248  0.00  0.00    +0.000 A 
ATOM     20  C   UNL     1       7.135   4.157  11.611  0.00  0.00    +0.000 A 
ATOM     21  C   UNL     1       6.177   3.436  12.324  0.00  0.00    +0.000 A 
ATOM     22  C   UNL     1       5.957   3.712  13.676  0.00  0.00    +0.000 A 
ENDBRANCH  14  17
ENDBRANCH  13  14
ENDBRANCH   9  13
ENDBRANCH   4   7
BRANCH   1  24
ATOM     23  N   UNL     1      -0.288  10.331  22.386  0.00  0.00    +0.000 N 
ATOM     24  C   UNL     1      -0.285  10.185  21.016  0.00  0.00    +0.000 C 
ATOM     25  O   UNL     1      -1.045  10.800  20.273  0.00  0.00    +0.000 OA
ATOM     26  H   UNL     1       0.267   9.719  22.968  0.00  0.00    +0.000 HD
BRANCH  23  27
ATOM     27  C   UNL     1      -1.227  11.205  23.060  0.00  0.00    +0.000 C 
BRANCH  27  28
ATOM     28  C   UNL     1      -1.282  12.609  22.461  0.00  0.00    +0.000 C 
BRANCH  28  29
ATOM     29  C   UNL     1      -2.568  13.394  22.779  0.00  0.00    +0.000 C 
BRANCH  29  30
ATOM     30  N   UNL     1      -3.790  12.574  22.925  0.00  0.00    +0.000 NA
BRANCH  30  32
ATOM     31  C   UNL     1      -5.841  12.293  24.393  0.00  0.00    +0.000 C 
ATOM     32  C   UNL     1      -4.395  12.756  24.259  0.00  0.00    +0.000 C 
ENDBRANCH  30  32
BRANCH  30  33
ATOM     33  C   UNL     1      -4.735  12.809  21.816  0.00  0.00    +0.000 C 
ATOM     34  C   UNL     1      -4.170  13.468  20.558  0.00  0.00    +0.000 C 
ENDBRANCH  30  33
ENDBRANCH  29  30
ENDBRANCH  28  29
ENDBRANCH  27  28
ENDBRANCH  23  27
ENDBRANCH   1  24
TORSDOF 11
ENDMDL
MODEL 5
REMARK VINA RESULT:      -7.4      2.547      4.208
REMARK  Name = 
REMARK  14 active torsions:
REMARK  status: ('A' for Active; 'I' for Inactive)
REMARK    1  A    between atoms: C_1  and  C_2
REMARK    2  A    between atoms: C_2  and  N_3
REMARK    3  A    between atoms: N_3  and  C_4
REMARK    4  A    between atoms: N_3  and  C_6
REMARK    5  A    between atoms: C_4  and  C_5
REMARK    6  A    between atoms: C_6  and  C_7
REMARK    7  A    between atoms: C_7  and  C_8
REMARK    8  A    between atoms: C_8  and  N_9
REMARK    9  A    between atoms: C_10  and  C_12
REMARK   10  A    between atoms: C_15  and  C_16
REMARK   11  A    between atoms: C_18  and  C_19
REMARK   12  A    between atoms: C_19  and  S_20
REMARK   13  A    between atoms: S_20  and  C_23
REMARK   14  A    between atoms: C_29  and  C_30
REMARK                            x       y       z     vdW  Elec       q    Type
REMARK                         _______ _______ _______ _____ _____    ______ ____
ROOT
ATOM      1  C   UNL     1       0.763  10.168  20.113  0.00  0.00    +0.000 A 
ATOM      2  C   UNL     1       1.123  10.242  18.765  0.00  0.00    +0.000 A 
ATOM      3  C   UNL     1       1.818   9.190  18.163  0.00  0.00    +0.000 A 
ATOM      4  C   UNL     1       2.186   8.050  18.897  0.00  0.00    +0.000 A 
ATOM      5  C   UNL     1       1.808   7.975  20.244  0.00  0.00    +0.000 A 
ATOM      6  C   UNL     1       1.101   9.027  20.850  0.00  0.00    +0.000 A 
ENDROOT
BRANCH   4   7
ATOM      7  C   UNL     1       2.989   6.997  18.277  0.00  0.00    +0.000 A 
ATOM      8  N   UNL     1       3.197   5.741  18.629  0.00  0.00    +0.000 NA
ATOM      9  C   UNL     1       4.131   5.270  17.711  0.00  0.00    +0.000 A 
ATOM     10  C   UNL     1       4.447   6.293  16.836  0.00  0.00    +0.000 A 
ATOM     11  C   UNL     1       5.356   6.511  15.697  0.00  0.00    +0.000 C 
ATOM     12  O   UNL     1       3.707   7.384  17.182  0.00  0.00    +0.000 OA
BRANCH   9  13
ATOM     13  C   UNL     1       4.670   3.883  17.825  0.00  0.00    +0.000 C 
BRANCH  13  14
ATOM     14  S   UNL     1       3.393   2.633  17.708  0.00  0.00    +0.000 S 
ATOM     15  O   UNL     1       2.407   3.042  16.729  0.00  0.00    +0.000 OA
ATOM     16  O   UNL     1       4.025   1.332  17.625  0.00  0.00    +0.000 OA
BRANCH  14  17
ATOM     17  C   UNL     1       2.544   2.680  19.285  0.00  0.00    +0.000 A 
ATOM     18  C   UNL     1       3.275   2.519  20.465  0.00  0.00    +0.000 A 
ATOM     19  C   UNL     1       2.630   2.623  21.700  0.00  0.00    +0.000 A 
ATOM     20  C   UNL     1       1.264   2.903  21.755  0.00  0.00    +0.000 A 
ATOM     21  C   UNL     1       0.538   3.088  20.578  0.00  0.00    +0.000 A 
ATOM     22  C   UNL     1       1.175   2.977  19.338  0.00  0.00    +0.000 A 
ENDBRANCH  14  17
ENDBRANCH  13  14
ENDBRANCH   9  13
ENDBRANCH   4   7
BRANCH   1  24
ATOM     23  N   UNL     1      -0.602  12.178  19.837  0.00  0.00    +0.000 N 
ATOM     24  C   UNL     1       0.059  11.339  20.708  0.00  0.00    +0.000 C 
ATOM     25  O   UNL     1       0.112  11.535  21.919  0.00  0.00    +0.000 OA
ATOM     26  H   UNL     1      -0.519  12.048  18.838  0.00  0.00    +0.000 HD
BRANCH  23  27
ATOM     27  C   UNL     1      -1.256  13.389  20.290  0.00  0.00    +0.000 C 
BRANCH  27  28
ATOM     28  C   UNL     1      -2.652  13.145  20.859  0.00  0.00    +0.000 C 
BRANCH  28  29
ATOM     29  C   UNL     1      -3.042  14.071  22.025  0.00  0.00    +0.000 C 
BRANCH  29  30
ATOM     30  N   UNL     1      -2.719  13.561  23.375  0.00  0.00    +0.000 NA
BRANCH  30  32
ATOM     31  C   UNL     1      -1.484  15.718  23.887  0.00  0.00    +0.000 C 
ATOM     32  C   UNL     1      -1.494  14.193  23.901  0.00  0.00    +0.000 C 
ENDBRANCH  30  32
BRANCH  30  33
ATOM     33  C   UNL     1      -3.874  13.671  24.286  0.00  0.00    +0.000 C 
ATOM     34  C   UNL     1      -4.490  12.363  24.780  0.00  0.00    +0.000 C 
ENDBRANCH  30  33
ENDBRANCH  29  30
ENDBRANCH  28  29
ENDBRANCH  27  28
ENDBRANCH  23  27
ENDBRANCH   1  24
TORSDOF 11
ENDMDL
MODEL 6
REMARK VINA RESULT:      -7.3      2.070      2.941
REMARK  Name = 
REMARK  14 active torsions:
REMARK  status: ('A' for Active; 'I' for Inactive)
REMARK    1  A    between atoms: C_1  and  C_2
REMARK    2  A    between atoms: C_2  and  N_3
REMARK    3  A    between atoms: N_3  and  C_4
REMARK    4  A    between atoms: N_3  and  C_6
REMARK    5  A    between atoms: C_4  and  C_5
REMARK    6  A    between atoms: C_6  and  C_7
REMARK    7  A    between atoms: C_7  and  C_8
REMARK    8  A    between atoms: C_8  and  N_9
REMARK    9  A    between atoms: C_10  and  C_12
REMARK   10  A    between atoms: C_15  and  C_16
REMARK   11  A    between atoms: C_18  and  C_19
REMARK   12  A    between atoms: C_19  and  S_20
REMARK   13  A    between atoms: S_20  and  C_23
REMARK   14  A    between atoms: C_29  and  C_30
REMARK                            x       y       z     vdW  Elec       q    Type
REMARK                         _______ _______ _______ _____ _____    ______ ____
ROOT
ATOM      1  C   UNL     1      -0.063  10.950  21.629  0.00  0.00    +0.000 A 
ATOM      2  C   UNL     1       0.472  11.158  20.354  0.00  0.00    +0.000 A 
ATOM      3  C   UNL     1       1.074  10.103  19.663  0.00  0.00    +0.000 A 
ATOM      4  C   UNL     1       1.173   8.823  20.234  0.00  0.00    +0.000 A 
ATOM      5  C   UNL     1       0.620   8.618  21.505  0.00  0.00    +0.000 A 
ATOM      6  C   UNL     1       0.006   9.674  22.200  0.00  0.00    +0.000 A 
ENDROOT
BRANCH   4   7
ATOM      7  C   UNL     1       1.883   7.753  19.536  0.00  0.00    +0.000 A 
ATOM      8  N   UNL     1       2.003   6.467  19.810  0.00  0.00    +0.000 NA
ATOM      9  C   UNL     1       2.881   5.984  18.845  0.00  0.00    +0.000 A 
ATOM     10  C   UNL     1       3.257   7.030  18.024  0.00  0.00    +0.000 A 
ATOM     11  C   UNL     1       4.158   7.248  16.879  0.00  0.00    +0.000 C 
ATOM     12  O   UNL     1       2.608   8.150  18.450  0.00  0.00    +0.000 OA
BRANCH   9  13
ATOM     13  C   UNL     1       3.317   4.556  18.866  0.00  0.00    +0.000 C 
BRANCH  13  14
ATOM     14  S   UNL     1       5.088   4.375  19.060  0.00  0.00    +0.000 S 
ATOM     15  O   UNL     1       5.631   5.576  19.662  0.00  0.00    +0.000 OA
ATOM     16  O   UNL     1       5.360   3.071  19.630  0.00  0.00    +0.000 OA
BRANCH  14  17
ATOM     17  C   UNL     1       5.742   4.342  17.393  0.00  0.00    +0.000 A 
ATOM     18  C   UNL     1       4.921   3.929  16.340  0.00  0.00    +0.000 A 
ATOM     19  C   UNL     1       5.404   3.966  15.030  0.00  0.00    +0.000 A 
ATOM     20  C   UNL     1       6.695   4.429  14.772  0.00  0.00    +0.000 A 
ATOM     21  C   UNL     1       7.506   4.865  15.820  0.00  0.00    +0.000 A 
ATOM     22  C   UNL     1       7.033   4.823  17.135  0.00  0.00    +0.000 A 
ENDBRANCH  14  17
ENDBRANCH  13  14
ENDBRANCH   9  13
ENDBRANCH   4   7
BRANCH   1  24
ATOM     23  N   UNL     1      -1.915  11.957  22.867  0.00  0.00    +0.000 N 
ATOM     24  C   UNL     1      -0.656  12.122  22.332  0.00  0.00    +0.000 C 
ATOM     25  O   UNL     1      -0.036  13.181  22.384  0.00  0.00    +0.000 OA
ATOM     26  H   UNL     1      -2.437  11.109  22.696  0.00  0.00    +0.000 HD
BRANCH  23  27
ATOM     27  C   UNL     1      -2.623  13.048  23.505  0.00  0.00    +0.000 C 
BRANCH  27  28
ATOM     28  C   UNL     1      -4.143  12.905  23.435  0.00  0.00    +0.000 C 
BRANCH  28  29
ATOM     29  C   UNL     1      -4.729  12.972  22.013  0.00  0.00    +0.000 C 
BRANCH  29  30
ATOM     30  N   UNL     1      -6.038  12.306  21.836  0.00  0.00    +0.000 NA
BRANCH  30  32
ATOM     31  C   UNL     1      -7.709  12.710  23.703  0.00  0.00    +0.000 C 
ATOM     32  C   UNL     1      -7.134  13.144  22.359  0.00  0.00    +0.000 C 
ENDBRANCH  30  32
BRANCH  30  33
ATOM     33  C   UNL     1      -6.242  11.878  20.438  0.00  0.00    +0.000 C 
ATOM     34  C   UNL     1      -5.098  12.145  19.461  0.00  0.00    +0.000 C 
ENDBRANCH  30  33
ENDBRANCH  29  30
ENDBRANCH  28  29
ENDBRANCH  27  28
ENDBRANCH  23  27
ENDBRANCH   1  24
TORSDOF 11
ENDMDL
MODEL 7
REMARK VINA RESULT:      -7.3      3.283      4.676
REMARK  Name = 
REMARK  14 active torsions:
REMARK  status: ('A' for Active; 'I' for Inactive)
REMARK    1  A    between atoms: C_1  and  C_2
REMARK    2  A    between atoms: C_2  and  N_3
REMARK    3  A    between atoms: N_3  and  C_4
REMARK    4  A    between atoms: N_3  and  C_6
REMARK    5  A    between atoms: C_4  and  C_5
REMARK    6  A    between atoms: C_6  and  C_7
REMARK    7  A    between atoms: C_7  and  C_8
REMARK    8  A    between atoms: C_8  and  N_9
REMARK    9  A    between atoms: C_10  and  C_12
REMARK   10  A    between atoms: C_15  and  C_16
REMARK   11  A    between atoms: C_18  and  C_19
REMARK   12  A    between atoms: C_19  and  S_20
REMARK   13  A    between atoms: S_20  and  C_23
REMARK   14  A    between atoms: C_29  and  C_30
REMARK                            x       y       z     vdW  Elec       q    Type
REMARK                         _______ _______ _______ _____ _____    ______ ____
ROOT
ATOM      1  C   UNL     1       0.772   9.879  19.765  0.00  0.00    +0.000 A 
ATOM      2  C   UNL     1       1.044   8.874  20.697  0.00  0.00    +0.000 A 
ATOM      3  C   UNL     1       1.842   7.782  20.343  0.00  0.00    +0.000 A 
ATOM      4  C   UNL     1       2.369   7.660  19.046  0.00  0.00    +0.000 A 
ATOM      5  C   UNL     1       2.106   8.679  18.122  0.00  0.00    +0.000 A 
ATOM      6  C   UNL     1       1.312   9.783  18.477  0.00  0.00    +0.000 A 
ENDROOT
BRANCH   4   7
ATOM      7  C   UNL     1       3.128   6.470  18.664  0.00  0.00    +0.000 A 
ATOM      8  N   UNL     1       3.797   6.182  17.563  0.00  0.00    +0.000 NA
ATOM      9  C   UNL     1       4.218   4.868  17.742  0.00  0.00    +0.000 A 
ATOM     10  C   UNL     1       3.765   4.420  18.969  0.00  0.00    +0.000 A 
ATOM     11  C   UNL     1       3.794   3.174  19.754  0.00  0.00    +0.000 C 
ATOM     12  O   UNL     1       3.090   5.444  19.564  0.00  0.00    +0.000 OA
BRANCH   9  13
ATOM     13  C   UNL     1       4.965   4.159  16.661  0.00  0.00    +0.000 C 
BRANCH  13  14
ATOM     14  S   UNL     1       6.456   5.021  16.171  0.00  0.00    +0.000 S 
ATOM     15  O   UNL     1       6.240   6.450  16.271  0.00  0.00    +0.000 OA
ATOM     16  O   UNL     1       7.588   4.394  16.822  0.00  0.00    +0.000 OA
BRANCH  14  17
ATOM     17  C   UNL     1       6.636   4.690  14.419  0.00  0.00    +0.000 A 
ATOM     18  C   UNL     1       7.609   5.373  13.686  0.00  0.00    +0.000 A 
ATOM     19  C   UNL     1       7.800   5.071  12.336  0.00  0.00    +0.000 A 
ATOM     20  C   UNL     1       7.033   4.078  11.726  0.00  0.00    +0.000 A 
ATOM     21  C   UNL     1       6.078   3.377  12.463  0.00  0.00    +0.000 A 
ATOM     22  C   UNL     1       5.875   3.680  13.813  0.00  0.00    +0.000 A 
ENDBRANCH  14  17
ENDBRANCH  13  14
ENDBRANCH   9  13
ENDBRANCH   4   7
BRANCH   1  24
ATOM     23  N   UNL     1       0.493  12.107  20.732  0.00  0.00    +0.000 N 
ATOM     24  C   UNL     1      -0.117  10.996  20.191  0.00  0.00    +0.000 C 
ATOM     25  O   UNL     1      -1.335  10.885  20.079  0.00  0.00    +0.000 OA
ATOM     26  H   UNL     1       1.486  12.107  20.917  0.00  0.00    +0.000 HD
BRANCH  23  27
ATOM     27  C   UNL     1      -0.273  13.223  21.252  0.00  0.00    +0.000 C 
BRANCH  27  28
ATOM     28  C   UNL     1       0.600  14.372  21.754  0.00  0.00    +0.000 C 
BRANCH  28  29
ATOM     29  C   UNL     1       0.651  15.596  20.821  0.00  0.00    +0.000 C 
BRANCH  29  30
ATOM     30  N   UNL     1       0.908  15.295  19.396  0.00  0.00    +0.000 NA
BRANCH  30  32
ATOM     31  C   UNL     1      -1.008  16.924  19.057  0.00  0.00    +0.000 C 
ATOM     32  C   UNL     1       0.274  16.299  18.520  0.00  0.00    +0.000 C 
ENDBRANCH  30  32
BRANCH  30  33
ATOM     33  C   UNL     1       2.349  15.112  19.134  0.00  0.00    +0.000 C 
ATOM     34  C   UNL     1       2.790  13.735  18.641  0.00  0.00    +0.000 C 
ENDBRANCH  30  33
ENDBRANCH  29  30
ENDBRANCH  28  29
ENDBRANCH  27  28
ENDBRANCH  23  27
ENDBRANCH   1  24
TORSDOF 11
ENDMDL
MODEL 8
REMARK VINA RESULT:      -7.3      2.126      3.158
REMARK  Name = 
REMARK  14 active torsions:
REMARK  status: ('A' for Active; 'I' for Inactive)
REMARK    1  A    between atoms: C_1  and  C_2
REMARK    2  A    between atoms: C_2  and  N_3
REMARK    3  A    between atoms: N_3  and  C_4
REMARK    4  A    between atoms: N_3  and  C_6
REMARK    5  A    between atoms: C_4  and  C_5
REMARK    6  A    between atoms: C_6  and  C_7
REMARK    7  A    between atoms: C_7  and  C_8
REMARK    8  A    between atoms: C_8  and  N_9
REMARK    9  A    between atoms: C_10  and  C_12
REMARK   10  A    between atoms: C_15  and  C_16
REMARK   11  A    between atoms: C_18  and  C_19
REMARK   12  A    between atoms: C_19  and  S_20
REMARK   13  A    between atoms: S_20  and  C_23
REMARK   14  A    between atoms: C_29  and  C_30
REMARK                            x       y       z     vdW  Elec       q    Type
REMARK                         _______ _______ _______ _____ _____    ______ ____
ROOT
ATOM      1  C   UNL     1       0.928   9.681  20.244  0.00  0.00    +0.000 A 
ATOM      2  C   UNL     1       1.331   9.694  18.906  0.00  0.00    +0.000 A 
ATOM      3  C   UNL     1       1.945   8.572  18.344  0.00  0.00    +0.000 A 
ATOM      4  C   UNL     1       2.187   7.418  19.109  0.00  0.00    +0.000 A 
ATOM      5  C   UNL     1       1.766   7.406  20.445  0.00  0.00    +0.000 A 
ATOM      6  C   UNL     1       1.140   8.529  21.011  0.00  0.00    +0.000 A 
ENDROOT
BRANCH   4   7
ATOM      7  C   UNL     1       2.909   6.285  18.533  0.00  0.00    +0.000 A 
ATOM      8  N   UNL     1       4.131   6.191  18.042  0.00  0.00    +0.000 NA
ATOM      9  C   UNL     1       4.212   4.893  17.548  0.00  0.00    +0.000 A 
ATOM     10  C   UNL     1       3.004   4.258  17.769  0.00  0.00    +0.000 A 
ATOM     11  C   UNL     1       2.389   2.952  17.478  0.00  0.00    +0.000 C 
ATOM     12  O   UNL     1       2.182   5.136  18.412  0.00  0.00    +0.000 OA
BRANCH   9  13
ATOM     13  C   UNL     1       5.446   4.425  16.849  0.00  0.00    +0.000 C 
BRANCH  13  14
ATOM     14  S   UNL     1       6.167   5.685  15.802  0.00  0.00    +0.000 S 
ATOM     15  O   UNL     1       5.191   6.730  15.564  0.00  0.00    +0.000 OA
ATOM     16  O   UNL     1       7.488   6.004  16.305  0.00  0.00    +0.000 OA
BRANCH  14  17
ATOM     17  C   UNL     1       6.411   4.893  14.214  0.00  0.00    +0.000 A 
ATOM     18  C   UNL     1       7.524   5.232  13.440  0.00  0.00    +0.000 A 
ATOM     19  C   UNL     1       7.757   4.569  12.232  0.00  0.00    +0.000 A 
ATOM     20  C   UNL     1       6.890   3.561  11.809  0.00  0.00    +0.000 A 
ATOM     21  C   UNL     1       5.793   3.204  12.593  0.00  0.00    +0.000 A 
ATOM     22  C   UNL     1       5.548   3.869  13.799  0.00  0.00    +0.000 A 
ENDBRANCH  14  17
ENDBRANCH  13  14
ENDBRANCH   9  13
ENDBRANCH   4   7
BRANCH   1  24
ATOM     23  N   UNL     1      -0.218  10.843  22.064  0.00  0.00    +0.000 N 
ATOM     24  C   UNL     1       0.316  10.922  20.796  0.00  0.00    +0.000 C 
ATOM     25  O   UNL     1       0.278  11.942  20.113  0.00  0.00    +0.000 OA
ATOM     26  H   UNL     1      -0.274   9.954  22.542  0.00  0.00    +0.000 HD
BRANCH  23  27
ATOM     27  C   UNL     1      -0.907  11.962  22.675  0.00  0.00    +0.000 C 
BRANCH  27  28
ATOM     28  C   UNL     1      -2.386  12.039  22.298  0.00  0.00    +0.000 C 
BRANCH  28  29
ATOM     29  C   UNL     1      -3.155  13.205  22.947  0.00  0.00    +0.000 C 
BRANCH  29  30
ATOM     30  N   UNL     1      -4.479  13.496  22.357  0.00  0.00    +0.000 NA
BRANCH  30  32
ATOM     31  C   UNL     1      -6.128  12.221  20.909  0.00  0.00    +0.000 C 
ATOM     32  C   UNL     1      -4.699  12.704  21.131  0.00  0.00    +0.000 C 
ENDBRANCH  30  32
BRANCH  30  33
ATOM     33  C   UNL     1      -5.559  13.347  23.352  0.00  0.00    +0.000 C 
ATOM     34  C   UNL     1      -6.285  14.623  23.776  0.00  0.00    +0.000 C 
ENDBRANCH  30  33
ENDBRANCH  29  30
ENDBRANCH  28  29
ENDBRANCH  27  28
ENDBRANCH  23  27
ENDBRANCH   1  24
TORSDOF 11
ENDMDL
MODEL 9
REMARK VINA RESULT:      -7.3      1.974      2.874
REMARK  Name = 
REMARK  14 active torsions:
REMARK  status: ('A' for Active; 'I' for Inactive)
REMARK    1  A    between atoms: C_1  and  C_2
REMARK    2  A    between atoms: C_2  and  N_3
REMARK    3  A    between atoms: N_3  and  C_4
REMARK    4  A    between atoms: N_3  and  C_6
REMARK    5  A    between atoms: C_4  and  C_5
REMARK    6  A    between atoms: C_6  and  C_7
REMARK    7  A    between atoms: C_7  and  C_8
REMARK    8  A    between atoms: C_8  and  N_9
REMARK    9  A    between atoms: C_10  and  C_12
REMARK   10  A    between atoms: C_15  and  C_16
REMARK   11  A    between atoms: C_18  and  C_19
REMARK   12  A    between atoms: C_19  and  S_20
REMARK   13  A    between atoms: S_20  and  C_23
REMARK   14  A    between atoms: C_29  and  C_30
REMARK                            x       y       z     vdW  Elec       q    Type
REMARK                         _______ _______ _______ _____ _____    ______ ____
ROOT
ATOM      1  C   UNL     1       0.466  10.429  20.071  0.00  0.00    +0.000 A 
ATOM      2  C   UNL     1       0.437   9.659  21.237  0.00  0.00    +0.000 A 
ATOM      3  C   UNL     1       1.051   8.404  21.268  0.00  0.00    +0.000 A 
ATOM      4  C   UNL     1       1.691   7.881  20.132  0.00  0.00    +0.000 A 
ATOM      5  C   UNL     1       1.730   8.665  18.971  0.00  0.00    +0.000 A 
ATOM      6  C   UNL     1       1.122   9.931  18.938  0.00  0.00    +0.000 A 
ENDROOT
BRANCH   4   7
ATOM      7  C   UNL     1       2.252   6.531  20.152  0.00  0.00    +0.000 A 
ATOM      8  N   UNL     1       3.297   6.014  19.531  0.00  0.00    +0.000 NA
ATOM      9  C   UNL     1       3.267   4.663  19.862  0.00  0.00    +0.000 A 
ATOM     10  C   UNL     1       2.178   4.430  20.681  0.00  0.00    +0.000 A 
ATOM     11  C   UNL     1       1.535   3.280  21.339  0.00  0.00    +0.000 C 
ATOM     12  O   UNL     1       1.544   5.620  20.882  0.00  0.00    +0.000 OA
BRANCH   9  13
ATOM     13  C   UNL     1       4.273   3.722  19.287  0.00  0.00    +0.000 C 
BRANCH  13  14
ATOM     14  S   UNL     1       3.856   3.190  17.629  0.00  0.00    +0.000 S 
ATOM     15  O   UNL     1       3.955   1.747  17.547  0.00  0.00    +0.000 OA
ATOM     16  O   UNL     1       2.649   3.875  17.214  0.00  0.00    +0.000 OA
BRANCH  14  17
ATOM     17  C   UNL     1       5.173   3.817  16.589  0.00  0.00    +0.000 A 
ATOM     18  C   UNL     1       5.123   3.599  15.209  0.00  0.00    +0.000 A 
ATOM     19  C   UNL     1       6.111   4.142  14.385  0.00  0.00    +0.000 A 
ATOM     20  C   UNL     1       7.135   4.915  14.936  0.00  0.00    +0.000 A 
ATOM     21  C   UNL     1       7.172   5.154  16.310  0.00  0.00    +0.000 A 
ATOM     22  C   UNL     1       6.191   4.606  17.142  0.00  0.00    +0.000 A 
ENDBRANCH  14  17
ENDBRANCH  13  14
ENDBRANCH   9  13
ENDBRANCH   4   7
BRANCH   1  24
ATOM     23  N   UNL     1      -1.618  11.705  20.143  0.00  0.00    +0.000 N 
ATOM     24  C   UNL     1      -0.241  11.740  20.088  0.00  0.00    +0.000 C 
ATOM     25  O   UNL     1       0.403  12.784  20.022  0.00  0.00    +0.000 OA
ATOM     26  H   UNL     1      -2.111  10.826  20.074  0.00  0.00    +0.000 HD
BRANCH  23  27
ATOM     27  C   UNL     1      -2.416  12.913  20.087  0.00  0.00    +0.000 C 
BRANCH  27  28
ATOM     28  C   UNL     1      -3.738  12.799  20.845  0.00  0.00    +0.000 C 
BRANCH  28  29
ATOM     29  C   UNL     1      -4.835  13.772  20.374  0.00  0.00    +0.000 C 
BRANCH  29  30
ATOM     30  N   UNL     1      -5.995  13.142  19.708  0.00  0.00    +0.000 NA
BRANCH  30  32
ATOM     31  C   UNL     1      -5.930  12.494  17.255  0.00  0.00    +0.000 C 
ATOM     32  C   UNL     1      -5.558  12.161  18.696  0.00  0.00    +0.000 C 
ENDBRANCH  30  32
BRANCH  30  33
ATOM     33  C   UNL     1      -6.947  12.588  20.690  0.00  0.00    +0.000 C 
ATOM     34  C   UNL     1      -7.299  11.108  20.549  0.00  0.00    +0.000 C 
ENDBRANCH  30  33
ENDBRANCH  29  30
ENDBRANCH  28  29
ENDBRANCH  27  28
ENDBRANCH  23  27
ENDBRANCH   1  24
TORSDOF 11
ENDMDL
