MODEL 1
REMARK VINA RESULT:      -7.6      0.000      0.000
REMARK  Name = 
REMARK  7 active torsions:
REMARK  status: ('A' for Active; 'I' for Inactive)
REMARK    1  A    between atoms: C_1  and  C_2
REMARK    2  A    between atoms: C_7  and  N_8
REMARK    3  A    between atoms: N_11  and  C_12
REMARK    4  A    between atoms: C_12  and  C_13
REMARK    5  A    between atoms: C_13  and  C_14
REMARK    6  A    between atoms: C_14  and  N_15
REMARK    7  A    between atoms: N_18  and  C_19
REMARK                            x       y       z     vdW  Elec       q    Type
REMARK                         _______ _______ _______ _____ _____    ______ ____
ROOT
ATOM      1  C   UNL     1       1.672   3.306  21.784  0.00  0.00    +0.000 C 
ENDROOT
BRANCH   1   5
ATOM      2  N   UNL     1       2.514   6.611  20.473  0.00  0.00    +0.000 N 
ATOM      3  C   UNL     1       1.782   5.482  20.786  0.00  0.00    +0.000 C 
ATOM      4  O   UNL     1       0.608   5.270  20.494  0.00  0.00    +0.000 OA
ATOM      5  N   UNL     1       2.462   4.513  21.525  0.00  0.00    +0.000 N 
ATOM      6  H   UNL     1       3.446   6.685  20.839  0.00  0.00    +0.000 HD
ATOM      7  H   UNL     1       3.443   4.403  21.318  0.00  0.00    +0.000 HD
BRANCH   2  14
ATOM      8  C   UNL     1       0.803   8.769  21.784  0.00  0.00    +0.000 C 
ATOM      9  C   UNL     1       1.209   8.745  20.335  0.00  0.00    +0.000 A 
ATOM     10  C   UNL     1       0.730   9.821  19.542  0.00  0.00    +0.000 A 
ATOM     11  C   UNL     1       1.020   9.917  18.187  0.00  0.00    +0.000 A 
ATOM     12  C   UNL     1       1.791   8.942  17.592  0.00  0.00    +0.000 A 
ATOM     13  C   UNL     1       2.269   7.879  18.355  0.00  0.00    +0.000 A 
ATOM     14  C   UNL     1       2.000   7.738  19.736  0.00  0.00    +0.000 A 
ENDBRANCH   2  14
ENDBRANCH   1   5
BRANCH   1  15
ATOM     15  C   UNL     1       2.157   1.991  21.178  0.00  0.00    +0.000 C 
BRANCH  15  16
ATOM     16  C   UNL     1       1.649   1.916  19.721  0.00  0.00    +0.000 C 
BRANCH  16  17
ATOM     17  N   UNL     1       2.562   2.404  18.719  0.00  0.00    +0.000 NA
ATOM     18  C   UNL     1       2.132   3.226  17.603  0.00  0.00    +0.000 C 
ATOM     19  C   UNL     1       2.894   4.569  17.479  0.00  0.00    +0.000 C 
ATOM     20  N   UNL     1       4.340   4.448  17.730  0.00  0.00    +0.000 N 
ATOM     21  C   UNL     1       4.705   3.646  18.915  0.00  0.00    +0.000 C 
ATOM     22  C   UNL     1       3.998   2.276  18.897  0.00  0.00    +0.000 C 
BRANCH  20  23
ATOM     23  C   UNL     1       5.280   4.574  16.717  0.00  0.00    +0.000 A 
ATOM     24  C   UNL     1       4.884   4.442  15.374  0.00  0.00    +0.000 A 
ATOM     25  C   UNL     1       5.799   4.539  14.321  0.00  0.00    +0.000 A 
ATOM     26  C   UNL     1       7.142   4.775  14.591  0.00  0.00    +0.000 A 
ATOM     27  C   UNL     1       7.562   4.907  15.910  0.00  0.00    +0.000 A 
ATOM     28  C   UNL     1       6.639   4.802  16.959  0.00  0.00    +0.000 A 
ENDBRANCH  20  23
ENDBRANCH  16  17
ENDBRANCH  15  16
ENDBRANCH   1  15
TORSDOF 6
ENDMDL
MODEL 2
REMARK VINA RESULT:      -7.2      6.277      7.998
REMARK  Name = 
REMARK  7 active torsions:
REMARK  status: ('A' for Active; 'I' for Inactive)
REMARK    1  A    between atoms: C_1  and  C_2
REMARK    2  A    between atoms: C_7  and  N_8
REMARK    3  A    between atoms: N_11  and  C_12
REMARK    4  A    between atoms: C_12  and  C_13
REMARK    5  A    between atoms: C_13  and  C_14
REMARK    6  A    between atoms: C_14  and  N_15
REMARK    7  A    between atoms: N_18  and  C_19
REMARK                            x       y       z     vdW  Elec       q    Type
REMARK                         _______ _______ _______ _____ _____    ______ ____
ROOT
ATOM      1  C   UNL     1       7.950   8.574  17.889  0.00  0.00    +0.000 C 
ENDROOT
BRANCH   1   5
ATOM      2  N   UNL     1      10.168  10.807  19.745  0.00  0.00    +0.000 N 
ATOM      3  C   UNL     1       9.223  10.369  18.837  0.00  0.00    +0.000 C 
ATOM      4  O   UNL     1       8.635  11.058  18.007  0.00  0.00    +0.000 OA
ATOM      5  N   UNL     1       8.910   9.011  18.906  0.00  0.00    +0.000 N 
ATOM      6  H   UNL     1      10.515  10.149  20.418  0.00  0.00    +0.000 HD
ATOM      7  H   UNL     1       9.670   8.391  19.140  0.00  0.00    +0.000 HD
BRANCH   2  14
ATOM      8  C   UNL     1       9.092  12.710  21.872  0.00  0.00    +0.000 C 
ATOM      9  C   UNL     1      10.130  13.060  20.841  0.00  0.00    +0.000 A 
ATOM     10  C   UNL     1      10.618  14.393  20.883  0.00  0.00    +0.000 A 
ATOM     11  C   UNL     1      11.570  14.852  19.983  0.00  0.00    +0.000 A 
ATOM     12  C   UNL     1      12.056  13.996  19.020  0.00  0.00    +0.000 A 
ATOM     13  C   UNL     1      11.589  12.685  18.963  0.00  0.00    +0.000 A 
ATOM     14  C   UNL     1      10.621  12.171  19.856  0.00  0.00    +0.000 A 
ENDBRANCH   2  14
ENDBRANCH   1   5
BRANCH   1  15
ATOM     15  C   UNL     1       7.698   7.075  17.744  0.00  0.00    +0.000 C 
BRANCH  15  16
ATOM     16  C   UNL     1       6.541   6.876  16.740  0.00  0.00    +0.000 C 
BRANCH  16  17
ATOM     17  N   UNL     1       5.494   5.983  17.169  0.00  0.00    +0.000 NA
ATOM     18  C   UNL     1       5.728   4.575  17.436  0.00  0.00    +0.000 C 
ATOM     19  C   UNL     1       5.285   4.120  18.850  0.00  0.00    +0.000 C 
ATOM     20  N   UNL     1       4.001   4.700  19.278  0.00  0.00    +0.000 N 
ATOM     21  C   UNL     1       3.854   6.148  19.029  0.00  0.00    +0.000 C 
ATOM     22  C   UNL     1       4.195   6.497  17.566  0.00  0.00    +0.000 C 
BRANCH  20  23
ATOM     23  C   UNL     1       2.846   3.940  19.386  0.00  0.00    +0.000 A 
ATOM     24  C   UNL     1       2.109   3.953  20.584  0.00  0.00    +0.000 A 
ATOM     25  C   UNL     1       0.951   3.187  20.747  0.00  0.00    +0.000 A 
ATOM     26  C   UNL     1       0.499   2.385  19.705  0.00  0.00    +0.000 A 
ATOM     27  C   UNL     1       1.210   2.351  18.510  0.00  0.00    +0.000 A 
ATOM     28  C   UNL     1       2.372   3.117  18.358  0.00  0.00    +0.000 A 
ENDBRANCH  20  23
ENDBRANCH  16  17
ENDBRANCH  15  16
ENDBRANCH   1  15
TORSDOF 6
ENDMDL
MODEL 3
REMARK VINA RESULT:      -7.1      0.440      1.009
REMARK  Name = 
REMARK  7 active torsions:
REMARK  status: ('A' for Active; 'I' for Inactive)
REMARK    1  A    between atoms: C_1  and  C_2
REMARK    2  A    between atoms: C_7  and  N_8
REMARK    3  A    between atoms: N_11  and  C_12
REMARK    4  A    between atoms: C_12  and  C_13
REMARK    5  A    between atoms: C_13  and  C_14
REMARK    6  A    between atoms: C_14  and  N_15
REMARK    7  A    between atoms: N_18  and  C_19
REMARK                            x       y       z     vdW  Elec       q    Type
REMARK                         _______ _______ _______ _____ _____    ______ ____
ROOT
ATOM      1  C   UNL     1       1.631   3.206  21.714  0.00  0.00    +0.000 C 
ENDROOT
BRANCH   1   5
ATOM      2  N   UNL     1       2.564   6.511  20.467  0.00  0.00    +0.000 N 
ATOM      3  C   UNL     1       1.805   5.391  20.746  0.00  0.00    +0.000 C 
ATOM      4  O   UNL     1       0.636   5.202  20.420  0.00  0.00    +0.000 OA
ATOM      5  N   UNL     1       2.448   4.401  21.491  0.00  0.00    +0.000 N 
ATOM      6  H   UNL     1       3.486   6.565  20.860  0.00  0.00    +0.000 HD
ATOM      7  H   UNL     1       3.432   4.277  21.310  0.00  0.00    +0.000 HD
BRANCH   2  14
ATOM      8  C   UNL     1       0.796   8.646  21.739  0.00  0.00    +0.000 C 
ATOM      9  C   UNL     1       1.272   8.652  20.312  0.00  0.00    +0.000 A 
ATOM     10  C   UNL     1       0.836   9.746  19.520  0.00  0.00    +0.000 A 
ATOM     11  C   UNL     1       1.192   9.870  18.183  0.00  0.00    +0.000 A 
ATOM     12  C   UNL     1       1.989   8.906  17.606  0.00  0.00    +0.000 A 
ATOM     13  C   UNL     1       2.426   7.825  18.368  0.00  0.00    +0.000 A 
ATOM     14  C   UNL     1       2.090   7.655  19.731  0.00  0.00    +0.000 A 
ENDBRANCH   2  14
ENDBRANCH   1   5
BRANCH   1  15
ATOM     15  C   UNL     1       0.945   2.574  20.504  0.00  0.00    +0.000 C 
BRANCH  15  16
ATOM     16  C   UNL     1       1.937   1.589  19.847  0.00  0.00    +0.000 C 
BRANCH  16  17
ATOM     17  N   UNL     1       2.829   2.165  18.873  0.00  0.00    +0.000 NA
ATOM     18  C   UNL     1       2.353   2.843  17.680  0.00  0.00    +0.000 C 
ATOM     19  C   UNL     1       2.897   4.284  17.515  0.00  0.00    +0.000 C 
ATOM     20  N   UNL     1       4.322   4.417  17.863  0.00  0.00    +0.000 N 
ATOM     21  C   UNL     1       4.725   3.753  19.118  0.00  0.00    +0.000 C 
ATOM     22  C   UNL     1       4.250   2.286  19.147  0.00  0.00    +0.000 C 
BRANCH  20  23
ATOM     23  C   UNL     1       5.299   4.640  16.903  0.00  0.00    +0.000 A 
ATOM     24  C   UNL     1       6.452   5.373  17.236  0.00  0.00    +0.000 A 
ATOM     25  C   UNL     1       7.453   5.640  16.297  0.00  0.00    +0.000 A 
ATOM     26  C   UNL     1       7.322   5.174  14.994  0.00  0.00    +0.000 A 
ATOM     27  C   UNL     1       6.191   4.447  14.637  0.00  0.00    +0.000 A 
ATOM     28  C   UNL     1       5.191   4.189  15.582  0.00  0.00    +0.000 A 
ENDBRANCH  20  23
ENDBRANCH  16  17
ENDBRANCH  15  16
ENDBRANCH   1  15
TORSDOF 6
ENDMDL
MODEL 4
REMARK VINA RESULT:      -7.1      2.097      5.591
REMARK  Name = 
REMARK  7 active torsions:
REMARK  status: ('A' for Active; 'I' for Inactive)
REMARK    1  A    between atoms: C_1  and  C_2
REMARK    2  A    between atoms: C_7  and  N_8
REMARK    3  A    between atoms: N_11  and  C_12
REMARK    4  A    between atoms: C_12  and  C_13
REMARK    5  A    between atoms: C_13  and  C_14
REMARK    6  A    between atoms: C_14  and  N_15
REMARK    7  A    between atoms: N_18  and  C_19
REMARK                            x       y       z     vdW  Elec       q    Type
REMARK                         _______ _______ _______ _____ _____    ______ ____
ROOT
ATOM      1  C   UNL     1       3.561   1.708  17.918  0.00  0.00    +0.000 C 
ENDROOT
BRANCH   1   5
ATOM      2  N   UNL     1       5.761   4.433  18.958  0.00  0.00    +0.000 N 
ATOM      3  C   UNL     1       4.947   3.647  18.167  0.00  0.00    +0.000 C 
ATOM      4  O   UNL     1       4.680   3.834  16.982  0.00  0.00    +0.000 OA
ATOM      5  N   UNL     1       4.367   2.550  18.805  0.00  0.00    +0.000 N 
ATOM      6  H   UNL     1       5.833   4.204  19.933  0.00  0.00    +0.000 HD
ATOM      7  H   UNL     1       4.930   2.097  19.509  0.00  0.00    +0.000 HD
BRANCH   2  14
ATOM      8  C   UNL     1       8.398   5.366  20.176  0.00  0.00    +0.000 C 
ATOM      9  C   UNL     1       7.664   6.059  19.060  0.00  0.00    +0.000 A 
ATOM     10  C   UNL     1       8.269   7.245  18.565  0.00  0.00    +0.000 A 
ATOM     11  C   UNL     1       7.694   7.989  17.544  0.00  0.00    +0.000 A 
ATOM     12  C   UNL     1       6.502   7.571  16.994  0.00  0.00    +0.000 A 
ATOM     13  C   UNL     1       5.894   6.411  17.467  0.00  0.00    +0.000 A 
ATOM     14  C   UNL     1       6.440   5.620  18.504  0.00  0.00    +0.000 A 
ENDBRANCH   2  14
ENDBRANCH   1   5
BRANCH   1  15
ATOM     15  C   UNL     1       2.043   1.749  18.081  0.00  0.00    +0.000 C 
BRANCH  15  16
ATOM     16  C   UNL     1       1.723   2.340  19.471  0.00  0.00    +0.000 C 
BRANCH  16  17
ATOM     17  N   UNL     1       1.524   3.767  19.508  0.00  0.00    +0.000 NA
ATOM     18  C   UNL     1       1.723   4.553  20.712  0.00  0.00    +0.000 C 
ATOM     19  C   UNL     1       2.716   5.731  20.539  0.00  0.00    +0.000 C 
ATOM     20  N   UNL     1       2.557   6.449  19.264  0.00  0.00    +0.000 N 
ATOM     21  C   UNL     1       2.418   5.588  18.072  0.00  0.00    +0.000 C 
ATOM     22  C   UNL     1       1.324   4.522  18.284  0.00  0.00    +0.000 C 
BRANCH  20  23
ATOM     23  C   UNL     1       2.039   7.735  19.199  0.00  0.00    +0.000 A 
ATOM     24  C   UNL     1       2.149   8.474  18.008  0.00  0.00    +0.000 A 
ATOM     25  C   UNL     1       1.662   9.781  17.902  0.00  0.00    +0.000 A 
ATOM     26  C   UNL     1       1.046  10.380  18.995  0.00  0.00    +0.000 A 
ATOM     27  C   UNL     1       0.925   9.672  20.186  0.00  0.00    +0.000 A 
ATOM     28  C   UNL     1       1.421   8.366  20.284  0.00  0.00    +0.000 A 
ENDBRANCH  20  23
ENDBRANCH  16  17
ENDBRANCH  15  16
ENDBRANCH   1  15
TORSDOF 6
ENDMDL
MODEL 5
REMARK VINA RESULT:      -7.1      6.466      8.275
REMARK  Name = 
REMARK  7 active torsions:
REMARK  status: ('A' for Active; 'I' for Inactive)
REMARK    1  A    between atoms: C_1  and  C_2
REMARK    2  A    between atoms: C_7  and  N_8
REMARK    3  A    between atoms: N_11  and  C_12
REMARK    4  A    between atoms: C_12  and  C_13
REMARK    5  A    between atoms: C_13  and  C_14
REMARK    6  A    between atoms: C_14  and  N_15
REMARK    7  A    between atoms: N_18  and  C_19
REMARK                            x       y       z     vdW  Elec       q    Type
REMARK                         _______ _______ _______ _____ _____    ______ ____
ROOT
ATOM      1  C   UNL     1       8.146   9.097  18.006  0.00  0.00    +0.000 C 
ENDROOT
BRANCH   1   5
ATOM      2  N   UNL     1       9.972  12.161  18.800  0.00  0.00    +0.000 N 
ATOM      3  C   UNL     1       9.032  11.310  18.251  0.00  0.00    +0.000 C 
ATOM      4  O   UNL     1       8.136  11.620  17.470  0.00  0.00    +0.000 OA
ATOM      5  N   UNL     1       9.120   9.978  18.656  0.00  0.00    +0.000 N 
ATOM      6  H   UNL     1      10.603  11.786  19.485  0.00  0.00    +0.000 HD
ATOM      7  H   UNL     1      10.050   9.622  18.816  0.00  0.00    +0.000 HD
BRANCH   2  14
ATOM      8  C   UNL     1      11.668  13.299  16.535  0.00  0.00    +0.000 C 
ATOM      9  C   UNL     1      10.829  14.112  17.483  0.00  0.00    +0.000 A 
ATOM     10  C   UNL     1      10.860  15.517  17.286  0.00  0.00    +0.000 A 
ATOM     11  C   UNL     1      10.141  16.386  18.095  0.00  0.00    +0.000 A 
ATOM     12  C   UNL     1       9.376  15.875  19.120  0.00  0.00    +0.000 A 
ATOM     13  C   UNL     1       9.333  14.499  19.329  0.00  0.00    +0.000 A 
ATOM     14  C   UNL     1      10.048  13.575  18.532  0.00  0.00    +0.000 A 
ENDBRANCH   2  14
ENDBRANCH   1   5
BRANCH   1  15
ATOM     15  C   UNL     1       8.190   7.609  18.348  0.00  0.00    +0.000 C 
BRANCH  15  16
ATOM     16  C   UNL     1       7.349   6.849  17.299  0.00  0.00    +0.000 C 
BRANCH  16  17
ATOM     17  N   UNL     1       6.097   6.318  17.773  0.00  0.00    +0.000 NA
ATOM     18  C   UNL     1       4.899   6.289  16.953  0.00  0.00    +0.000 C 
ATOM     19  C   UNL     1       4.264   4.883  16.814  0.00  0.00    +0.000 C 
ATOM     20  N   UNL     1       4.259   4.114  18.070  0.00  0.00    +0.000 N 
ATOM     21  C   UNL     1       5.529   4.139  18.824  0.00  0.00    +0.000 C 
ATOM     22  C   UNL     1       6.026   5.585  19.025  0.00  0.00    +0.000 C 
BRANCH  20  23
ATOM     23  C   UNL     1       3.092   3.853  18.773  0.00  0.00    +0.000 A 
ATOM     24  C   UNL     1       2.859   4.489  20.005  0.00  0.00    +0.000 A 
ATOM     25  C   UNL     1       1.708   4.240  20.758  0.00  0.00    +0.000 A 
ATOM     26  C   UNL     1       0.754   3.344  20.290  0.00  0.00    +0.000 A 
ATOM     27  C   UNL     1       0.959   2.699  19.075  0.00  0.00    +0.000 A 
ATOM     28  C   UNL     1       2.119   2.949  18.330  0.00  0.00    +0.000 A 
ENDBRANCH  20  23
ENDBRANCH  16  17
ENDBRANCH  15  16
ENDBRANCH   1  15
TORSDOF 6
ENDMDL
MODEL 6
REMARK VINA RESULT:      -7.1      6.555      8.074
REMARK  Name = 
REMARK  7 active torsions:
REMARK  status: ('A' for Active; 'I' for Inactive)
REMARK    1  A    between atoms: C_1  and  C_2
REMARK    2  A    between atoms: C_7  and  N_8
REMARK    3  A    between atoms: N_11  and  C_12
REMARK    4  A    between atoms: C_12  and  C_13
REMARK    5  A    between atoms: C_13  and  C_14
REMARK    6  A    between atoms: C_14  and  N_15
REMARK    7  A    between atoms: N_18  and  C_19
REMARK                            x       y       z     vdW  Elec       q    Type
REMARK                         _______ _______ _______ _____ _____    ______ ____
ROOT
ATOM      1  C   UNL     1       8.271   8.864  18.235  0.00  0.00    +0.000 C 
ENDROOT
BRANCH   1   5
ATOM      2  N   UNL     1      10.252  11.282  20.126  0.00  0.00    +0.000 N 
ATOM      3  C   UNL     1       9.448  10.745  19.139  0.00  0.00    +0.000 C 
ATOM      4  O   UNL     1       9.031  11.327  18.141  0.00  0.00    +0.000 OA
ATOM      5  N   UNL     1       9.071   9.415  19.331  0.00  0.00    +0.000 N 
ATOM      6  H   UNL     1      10.458  10.713  20.927  0.00  0.00    +0.000 HD
ATOM      7  H   UNL     1       9.757   8.817  19.766  0.00  0.00    +0.000 HD
BRANCH   2  14
ATOM      8  C   UNL     1       9.070  13.423  21.948  0.00  0.00    +0.000 C 
ATOM      9  C   UNL     1      10.198  13.638  20.976  0.00  0.00    +0.000 A 
ATOM     10  C   UNL     1      10.723  14.956  20.920  0.00  0.00    +0.000 A 
ATOM     11  C   UNL     1      11.759  15.295  20.060  0.00  0.00    +0.000 A 
ATOM     12  C   UNL     1      12.293  14.331  19.235  0.00  0.00    +0.000 A 
ATOM     13  C   UNL     1      11.791  13.032  19.276  0.00  0.00    +0.000 A 
ATOM     14  C   UNL     1      10.738  12.639  20.133  0.00  0.00    +0.000 A 
ENDBRANCH   2  14
ENDBRANCH   1   5
BRANCH   1  15
ATOM     15  C   UNL     1       8.050   7.353  18.201  0.00  0.00    +0.000 C 
BRANCH  15  16
ATOM     16  C   UNL     1       7.044   7.038  17.073  0.00  0.00    +0.000 C 
BRANCH  16  17
ATOM     17  N   UNL     1       5.871   6.305  17.474  0.00  0.00    +0.000 NA
ATOM     18  C   UNL     1       4.977   5.675  16.518  0.00  0.00    +0.000 C 
ATOM     19  C   UNL     1       4.750   4.163  16.769  0.00  0.00    +0.000 C 
ATOM     20  N   UNL     1       4.590   3.822  18.193  0.00  0.00    +0.000 N 
ATOM     21  C   UNL     1       5.569   4.451  19.102  0.00  0.00    +0.000 C 
ATOM     22  C   UNL     1       5.642   5.974  18.869  0.00  0.00    +0.000 C 
BRANCH  20  23
ATOM     23  C   UNL     1       3.371   3.425  18.726  0.00  0.00    +0.000 A 
ATOM     24  C   UNL     1       2.220   3.425  17.918  0.00  0.00    +0.000 A 
ATOM     25  C   UNL     1       0.968   3.054  18.417  0.00  0.00    +0.000 A 
ATOM     26  C   UNL     1       0.840   2.668  19.745  0.00  0.00    +0.000 A 
ATOM     27  C   UNL     1       1.961   2.660  20.568  0.00  0.00    +0.000 A 
ATOM     28  C   UNL     1       3.210   3.039  20.061  0.00  0.00    +0.000 A 
ENDBRANCH  20  23
ENDBRANCH  16  17
ENDBRANCH  15  16
ENDBRANCH   1  15
TORSDOF 6
ENDMDL
MODEL 7
REMARK VINA RESULT:      -6.9      5.328      7.416
REMARK  Name = 
REMARK  7 active torsions:
REMARK  status: ('A' for Active; 'I' for Inactive)
REMARK    1  A    between atoms: C_1  and  C_2
REMARK    2  A    between atoms: C_7  and  N_8
REMARK    3  A    between atoms: N_11  and  C_12
REMARK    4  A    between atoms: C_12  and  C_13
REMARK    5  A    between atoms: C_13  and  C_14
REMARK    6  A    between atoms: C_14  and  N_15
REMARK    7  A    between atoms: N_18  and  C_19
REMARK                            x       y       z     vdW  Elec       q    Type
REMARK                         _______ _______ _______ _____ _____    ______ ____
ROOT
ATOM      1  C   UNL     1       7.201   7.517  17.253  0.00  0.00    +0.000 C 
ENDROOT
BRANCH   1   5
ATOM      2  N   UNL     1       9.367   9.541  19.389  0.00  0.00    +0.000 N 
ATOM      3  C   UNL     1       8.375   9.201  18.489  0.00  0.00    +0.000 C 
ATOM      4  O   UNL     1       7.625   9.977  17.903  0.00  0.00    +0.000 OA
ATOM      5  N   UNL     1       8.219   7.834  18.257  0.00  0.00    +0.000 N 
ATOM      6  H   UNL     1       9.858   8.798  19.852  0.00  0.00    +0.000 HD
ATOM      7  H   UNL     1       9.063   7.282  18.269  0.00  0.00    +0.000 HD
BRANCH   2  14
ATOM      8  C   UNL     1      10.951  11.435  17.599  0.00  0.00    +0.000 C 
ATOM      9  C   UNL     1      10.412  11.777  18.961  0.00  0.00    +0.000 A 
ATOM     10  C   UNL     1      10.690  13.090  19.424  0.00  0.00    +0.000 A 
ATOM     11  C   UNL     1      10.261  13.534  20.667  0.00  0.00    +0.000 A 
ATOM     12  C   UNL     1       9.547  12.680  21.478  0.00  0.00    +0.000 A 
ATOM     13  C   UNL     1       9.265  11.389  21.041  0.00  0.00    +0.000 A 
ATOM     14  C   UNL     1       9.681  10.890  19.785  0.00  0.00    +0.000 A 
ENDBRANCH   2  14
ENDBRANCH   1   5
BRANCH   1  15
ATOM     15  C   UNL     1       7.451   6.323  16.334  0.00  0.00    +0.000 C 
BRANCH  15  16
ATOM     16  C   UNL     1       7.597   5.061  17.213  0.00  0.00    +0.000 C 
BRANCH  16  17
ATOM     17  N   UNL     1       6.387   4.605  17.849  0.00  0.00    +0.000 NA
ATOM     18  C   UNL     1       6.050   4.941  19.221  0.00  0.00    +0.000 C 
ATOM     19  C   UNL     1       4.663   5.611  19.384  0.00  0.00    +0.000 C 
ATOM     20  N   UNL     1       3.616   5.003  18.545  0.00  0.00    +0.000 N 
ATOM     21  C   UNL     1       4.008   4.743  17.145  0.00  0.00    +0.000 C 
ATOM     22  C   UNL     1       5.337   3.964  17.077  0.00  0.00    +0.000 C 
BRANCH  20  23
ATOM     23  C   UNL     1       2.585   4.246  19.082  0.00  0.00    +0.000 A 
ATOM     24  C   UNL     1       1.802   3.434  18.242  0.00  0.00    +0.000 A 
ATOM     25  C   UNL     1       0.739   2.672  18.735  0.00  0.00    +0.000 A 
ATOM     26  C   UNL     1       0.435   2.702  20.090  0.00  0.00    +0.000 A 
ATOM     27  C   UNL     1       1.191   3.498  20.944  0.00  0.00    +0.000 A 
ATOM     28  C   UNL     1       2.251   4.264  20.441  0.00  0.00    +0.000 A 
ENDBRANCH  20  23
ENDBRANCH  16  17
ENDBRANCH  15  16
ENDBRANCH   1  15
TORSDOF 6
ENDMDL
MODEL 8
REMARK VINA RESULT:      -6.8      6.625      8.380
REMARK  Name = 
REMARK  7 active torsions:
REMARK  status: ('A' for Active; 'I' for Inactive)
REMARK    1  A    between atoms: C_1  and  C_2
REMARK    2  A    between atoms: C_7  and  N_8
REMARK    3  A    between atoms: N_11  and  C_12
REMARK    4  A    between atoms: C_12  and  C_13
REMARK    5  A    between atoms: C_13  and  C_14
REMARK    6  A    between atoms: C_14  and  N_15
REMARK    7  A    between atoms: N_18  and  C_19
REMARK                            x       y       z     vdW  Elec       q    Type
REMARK                         _______ _______ _______ _____ _____    ______ ____
ROOT
ATOM      1  C   UNL     1       8.081   9.351  17.893  0.00  0.00    +0.000 C 
ENDROOT
BRANCH   1   5
ATOM      2  N   UNL     1      10.079  12.265  18.827  0.00  0.00    +0.000 N 
ATOM      3  C   UNL     1       9.092  11.496  18.240  0.00  0.00    +0.000 C 
ATOM      4  O   UNL     1       8.217  11.893  17.475  0.00  0.00    +0.000 OA
ATOM      5  N   UNL     1       9.103  10.143  18.582  0.00  0.00    +0.000 N 
ATOM      6  H   UNL     1      10.687  11.822  19.492  0.00  0.00    +0.000 HD
ATOM      7  H   UNL     1      10.010   9.727  18.724  0.00  0.00    +0.000 HD
BRANCH   2  14
ATOM      8  C   UNL     1      11.647  13.409  16.474  0.00  0.00    +0.000 C 
ATOM      9  C   UNL     1      10.959  14.223  17.536  0.00  0.00    +0.000 A 
ATOM     10  C   UNL     1      11.078  15.632  17.408  0.00  0.00    +0.000 A 
ATOM     11  C   UNL     1      10.501  16.501  18.324  0.00  0.00    +0.000 A 
ATOM     12  C   UNL     1       9.794  15.987  19.388  0.00  0.00    +0.000 A 
ATOM     13  C   UNL     1       9.666  14.607  19.530  0.00  0.00    +0.000 A 
ATOM     14  C   UNL     1      10.236  13.683  18.625  0.00  0.00    +0.000 A 
ENDBRANCH   2  14
ENDBRANCH   1   5
BRANCH   1  15
ATOM     15  C   UNL     1       8.058   7.845  18.141  0.00  0.00    +0.000 C 
BRANCH  15  16
ATOM     16  C   UNL     1       7.376   7.168  16.931  0.00  0.00    +0.000 C 
BRANCH  16  17
ATOM     17  N   UNL     1       6.367   6.191  17.254  0.00  0.00    +0.000 NA
ATOM     18  C   UNL     1       6.581   5.141  18.235  0.00  0.00    +0.000 C 
ATOM     19  C   UNL     1       5.515   5.103  19.359  0.00  0.00    +0.000 C 
ATOM     20  N   UNL     1       4.143   5.326  18.874  0.00  0.00    +0.000 N 
ATOM     21  C   UNL     1       3.988   6.447  17.925  0.00  0.00    +0.000 C 
ATOM     22  C   UNL     1       5.006   6.340  16.771  0.00  0.00    +0.000 C 
BRANCH  20  23
ATOM     23  C   UNL     1       3.196   4.312  18.841  0.00  0.00    +0.000 A 
ATOM     24  C   UNL     1       3.539   3.019  19.275  0.00  0.00    +0.000 A 
ATOM     25  C   UNL     1       2.625   1.962  19.239  0.00  0.00    +0.000 A 
ATOM     26  C   UNL     1       1.335   2.178  18.768  0.00  0.00    +0.000 A 
ATOM     27  C   UNL     1       0.969   3.446  18.331  0.00  0.00    +0.000 A 
ATOM     28  C   UNL     1       1.893   4.498  18.364  0.00  0.00    +0.000 A 
ENDBRANCH  20  23
ENDBRANCH  16  17
ENDBRANCH  15  16
ENDBRANCH   1  15
TORSDOF 6
ENDMDL
MODEL 9
REMARK VINA RESULT:      -6.8      6.013      7.894
REMARK  Name = 
REMARK  7 active torsions:
REMARK  status: ('A' for Active; 'I' for Inactive)
REMARK    1  A    between atoms: C_1  and  C_2
REMARK    2  A    between atoms: C_7  and  N_8
REMARK    3  A    between atoms: N_11  and  C_12
REMARK    4  A    between atoms: C_12  and  C_13
REMARK    5  A    between atoms: C_13  and  C_14
REMARK    6  A    between atoms: C_14  and  N_15
REMARK    7  A    between atoms: N_18  and  C_19
REMARK                            x       y       z     vdW  Elec       q    Type
REMARK                         _______ _______ _______ _____ _____    ______ ____
ROOT
ATOM      1  C   UNL     1       8.365   8.263  18.417  0.00  0.00    +0.000 C 
ENDROOT
BRANCH   1   5
ATOM      2  N   UNL     1       8.510  11.849  17.732  0.00  0.00    +0.000 N 
ATOM      3  C   UNL     1       8.745  10.628  18.333  0.00  0.00    +0.000 C 
ATOM      4  O   UNL     1       9.435  10.425  19.328  0.00  0.00    +0.000 OA
ATOM      5  N   UNL     1       8.143   9.530  17.716  0.00  0.00    +0.000 N 
ATOM      6  H   UNL     1       7.984  11.860  16.877  0.00  0.00    +0.000 HD
ATOM      7  H   UNL     1       7.237   9.693  17.305  0.00  0.00    +0.000 HD
BRANCH   2  14
ATOM      8  C   UNL     1      11.256  12.855  16.867  0.00  0.00    +0.000 C 
ATOM      9  C   UNL     1      10.321  13.579  17.796  0.00  0.00    +0.000 A 
ATOM     10  C   UNL     1      10.790  14.820  18.301  0.00  0.00    +0.000 A 
ATOM     11  C   UNL     1      10.033  15.587  19.177  0.00  0.00    +0.000 A 
ATOM     12  C   UNL     1       8.793  15.134  19.571  0.00  0.00    +0.000 A 
ATOM     13  C   UNL     1       8.317  13.919  19.086  0.00  0.00    +0.000 A 
ATOM     14  C   UNL     1       9.050  13.102  18.194  0.00  0.00    +0.000 A 
ENDBRANCH   2  14
ENDBRANCH   1   5
BRANCH   1  15
ATOM     15  C   UNL     1       7.892   6.979  17.738  0.00  0.00    +0.000 C 
BRANCH  15  16
ATOM     16  C   UNL     1       6.429   7.183  17.288  0.00  0.00    +0.000 C 
BRANCH  16  17
ATOM     17  N   UNL     1       5.440   6.453  18.040  0.00  0.00    +0.000 NA
ATOM     18  C   UNL     1       4.019   6.540  17.755  0.00  0.00    +0.000 C 
ATOM     19  C   UNL     1       3.343   5.170  17.498  0.00  0.00    +0.000 C 
ATOM     20  N   UNL     1       3.800   4.110  18.412  0.00  0.00    +0.000 N 
ATOM     21  C   UNL     1       5.262   4.041  18.611  0.00  0.00    +0.000 C 
ATOM     22  C   UNL     1       5.836   5.423  18.984  0.00  0.00    +0.000 C 
BRANCH  20  23
ATOM     23  C   UNL     1       2.985   3.588  19.406  0.00  0.00    +0.000 A 
ATOM     24  C   UNL     1       1.591   3.756  19.328  0.00  0.00    +0.000 A 
ATOM     25  C   UNL     1       0.732   3.267  20.317  0.00  0.00    +0.000 A 
ATOM     26  C   UNL     1       1.253   2.590  21.413  0.00  0.00    +0.000 A 
ATOM     27  C   UNL     1       2.628   2.410  21.517  0.00  0.00    +0.000 A 
ATOM     28  C   UNL     1       3.482   2.909  20.525  0.00  0.00    +0.000 A 
ENDBRANCH  20  23
ENDBRANCH  16  17
ENDBRANCH  15  16
ENDBRANCH   1  15
TORSDOF 6
ENDMDL
