MODEL 1
REMARK VINA RESULT:      -8.6      0.000      0.000
REMARK  Name = 
REMARK  8 active torsions:
REMARK  status: ('A' for Active; 'I' for Inactive)
REMARK    1  A    between atoms: C_1  and  C_2
REMARK    2  A    between atoms: C_2  and  O_3
REMARK    3  A    between atoms: N_6  and  C_7
REMARK    4  A    between atoms: C_10  and  C_11
REMARK    5  A    between atoms: N_13  and  C_14
REMARK    6  A    between atoms: C_17  and  O_18
REMARK    7  A    between atoms: O_18  and  C_19
REMARK    8  A    between atoms: C_26  and  C_27
REMARK                            x       y       z     vdW  Elec       q    Type
REMARK                         _______ _______ _______ _____ _____    ______ ____
ROOT
ATOM      1  C   UNL     1       4.079   6.197  17.251  0.00  0.00    +0.000 A 
ATOM      2  N   UNL     1       4.227   7.532  17.080  0.00  0.00    +0.000 NA
ATOM      3  C   UNL     1       3.344   8.363  17.693  0.00  0.00    +0.000 A 
ATOM      4  C   UNL     1       2.315   7.935  18.516  0.00  0.00    +0.000 A 
ATOM      5  C   UNL     1       2.169   6.566  18.714  0.00  0.00    +0.000 A 
ATOM      6  C   UNL     1       3.058   5.667  18.090  0.00  0.00    +0.000 A 
ENDROOT
BRANCH   1  11
ATOM      7  C   UNL     1       6.423   3.796  13.744  0.00  0.00    +0.000 C 
ATOM      8  C   UNL     1       6.550   4.752  14.926  0.00  0.00    +0.000 C 
ATOM      9  C   UNL     1       6.807   4.027  16.254  0.00  0.00    +0.000 C 
ATOM     10  C   UNL     1       6.231   5.012  17.275  0.00  0.00    +0.000 C 
ATOM     11  N   UNL     1       4.979   5.355  16.624  0.00  0.00    +0.000 N 
ATOM     12  C   UNL     1       5.244   5.561  15.186  0.00  0.00    +0.000 C 
BRANCH   8  13
ATOM     13  O   UNL     1       7.640   5.641  14.669  0.00  0.00    +0.000 OA
ATOM     14  H   UNL     1       8.400   5.106  14.380  0.00  0.00    +0.000 HD
ENDBRANCH   8  13
ENDBRANCH   1  11
BRANCH   6  15
ATOM     15  C   UNL     1       2.958   4.228  18.395  0.00  0.00    +0.000 A 
ATOM     16  C   UNL     1       2.237   3.211  17.792  0.00  0.00    +0.000 A 
ATOM     17  C   UNL     1       2.503   2.055  18.540  0.00  0.00    +0.000 A 
ATOM     18  N   UNL     1       3.362   2.290  19.531  0.00  0.00    +0.000 NA
ATOM     19  N   UNL     1       3.614   3.605  19.428  0.00  0.00    +0.000 N 
ATOM     20  H   UNL     1       4.243   4.019  20.106  0.00  0.00    +0.000 HD
ENDBRANCH   6  15
BRANCH   4  21
ATOM     21  C   UNL     1       1.396   8.938  19.098  0.00  0.00    +0.000 C 
ATOM     22  O   UNL     1       0.679   9.556  18.322  0.00  0.00    +0.000 OA
ATOM     23  N   UNL     1       1.458   9.121  20.474  0.00  0.00    +0.000 N 
ATOM     24  H   UNL     1       2.243   8.715  20.968  0.00  0.00    +0.000 HD
BRANCH  23  25
ATOM     25  C   UNL     1       0.630   9.987  21.233  0.00  0.00    +0.000 A 
ATOM     26  C   UNL     1       0.502  11.348  20.962  0.00  0.00    +0.000 A 
ATOM     27  C   UNL     1      -0.328  12.158  21.747  0.00  0.00    +0.000 A 
ATOM     28  C   UNL     1      -1.050  11.622  22.812  0.00  0.00    +0.000 A 
ATOM     29  C   UNL     1      -0.907  10.269  23.106  0.00  0.00    +0.000 A 
ATOM     30  C   UNL     1      -0.095   9.450  22.302  0.00  0.00    +0.000 A 
BRANCH  28  31
ATOM     31  O   UNL     1      -1.774  12.524  23.526  0.00  0.00    +0.000 OA
BRANCH  31  32
ATOM     32  C   UNL     1      -3.187  12.569  23.382  0.00  0.00    +0.000 C 
ATOM     33  F   UNL     1      -3.636  12.238  22.155  0.00  0.00    +0.000 F 
ATOM     34  F   UNL     1      -3.747  11.735  24.285  0.00  0.00    +0.000 F 
ATOM     35  F   UNL     1      -3.610  13.825  23.654  0.00  0.00    +0.000 F 
ENDBRANCH  31  32
ENDBRANCH  28  31
ENDBRANCH  23  25
ENDBRANCH   4  21
TORSDOF 7
ENDMDL
MODEL 2
REMARK VINA RESULT:      -8.4      1.301      1.476
REMARK  Name = 
REMARK  8 active torsions:
REMARK  status: ('A' for Active; 'I' for Inactive)
REMARK    1  A    between atoms: C_1  and  C_2
REMARK    2  A    between atoms: C_2  and  O_3
REMARK    3  A    between atoms: N_6  and  C_7
REMARK    4  A    between atoms: C_10  and  C_11
REMARK    5  A    between atoms: N_13  and  C_14
REMARK    6  A    between atoms: C_17  and  O_18
REMARK    7  A    between atoms: O_18  and  C_19
REMARK    8  A    between atoms: C_26  and  C_27
REMARK                            x       y       z     vdW  Elec       q    Type
REMARK                         _______ _______ _______ _____ _____    ______ ____
ROOT
ATOM      1  C   UNL     1       4.315   5.728  17.348  0.00  0.00    +0.000 A 
ATOM      2  N   UNL     1       4.209   7.061  17.134  0.00  0.00    +0.000 NA
ATOM      3  C   UNL     1       3.365   7.776  17.922  0.00  0.00    +0.000 A 
ATOM      4  C   UNL     1       2.625   7.235  18.962  0.00  0.00    +0.000 A 
ATOM      5  C   UNL     1       2.745   5.870  19.201  0.00  0.00    +0.000 A 
ATOM      6  C   UNL     1       3.603   5.088  18.402  0.00  0.00    +0.000 A 
ENDROOT
BRANCH   1  11
ATOM      7  C   UNL     1       6.333   3.800  13.377  0.00  0.00    +0.000 C 
ATOM      8  C   UNL     1       6.554   4.654  14.621  0.00  0.00    +0.000 C 
ATOM      9  C   UNL     1       7.011   3.834  15.835  0.00  0.00    +0.000 C 
ATOM     10  C   UNL     1       6.514   4.686  17.005  0.00  0.00    +0.000 C 
ATOM     11  N   UNL     1       5.175   5.004  16.542  0.00  0.00    +0.000 N 
ATOM     12  C   UNL     1       5.249   5.352  15.110  0.00  0.00    +0.000 C 
BRANCH   8  13
ATOM     13  O   UNL     1       7.556   5.631  14.323  0.00  0.00    +0.000 OA
ATOM     14  H   UNL     1       7.150   6.313  13.761  0.00  0.00    +0.000 HD
ENDBRANCH   8  13
ENDBRANCH   1  11
BRANCH   6  15
ATOM     15  C   UNL     1       3.801   3.667  18.737  0.00  0.00    +0.000 A 
ATOM     16  C   UNL     1       3.176   2.520  18.274  0.00  0.00    +0.000 A 
ATOM     17  C   UNL     1       3.753   1.456  18.981  0.00  0.00    +0.000 A 
ATOM     18  N   UNL     1       4.708   1.870  19.814  0.00  0.00    +0.000 NA
ATOM     19  N   UNL     1       4.711   3.204  19.654  0.00  0.00    +0.000 N 
ATOM     20  H   UNL     1       5.362   3.744  20.213  0.00  0.00    +0.000 HD
ENDBRANCH   6  15
BRANCH   4  21
ATOM     21  C   UNL     1       1.712   8.114  19.727  0.00  0.00    +0.000 C 
ATOM     22  O   UNL     1       1.373   7.734  20.840  0.00  0.00    +0.000 OA
ATOM     23  N   UNL     1       1.287   9.276  19.095  0.00  0.00    +0.000 N 
ATOM     24  H   UNL     1       1.458   9.362  18.102  0.00  0.00    +0.000 HD
BRANCH  23  25
ATOM     25  C   UNL     1       0.461  10.275  19.670  0.00  0.00    +0.000 A 
ATOM     26  C   UNL     1       0.865  11.079  20.735  0.00  0.00    +0.000 A 
ATOM     27  C   UNL     1       0.006  12.048  21.266  0.00  0.00    +0.000 A 
ATOM     28  C   UNL     1      -1.271  12.237  20.739  0.00  0.00    +0.000 A 
ATOM     29  C   UNL     1      -1.693  11.422  19.693  0.00  0.00    +0.000 A 
ATOM     30  C   UNL     1      -0.821  10.467  19.142  0.00  0.00    +0.000 A 
BRANCH  28  31
ATOM     31  O   UNL     1      -2.023  13.171  21.379  0.00  0.00    +0.000 OA
BRANCH  31  32
ATOM     32  C   UNL     1      -3.112  12.764  22.196  0.00  0.00    +0.000 C 
ATOM     33  F   UNL     1      -4.202  12.359  21.515  0.00  0.00    +0.000 F 
ATOM     34  F   UNL     1      -2.706  11.756  22.998  0.00  0.00    +0.000 F 
ATOM     35  F   UNL     1      -3.476  13.803  22.982  0.00  0.00    +0.000 F 
ENDBRANCH  31  32
ENDBRANCH  28  31
ENDBRANCH  23  25
ENDBRANCH   4  21
TORSDOF 7
ENDMDL
MODEL 3
REMARK VINA RESULT:      -8.3      1.334      1.625
REMARK  Name = 
REMARK  8 active torsions:
REMARK  status: ('A' for Active; 'I' for Inactive)
REMARK    1  A    between atoms: C_1  and  C_2
REMARK    2  A    between atoms: C_2  and  O_3
REMARK    3  A    between atoms: N_6  and  C_7
REMARK    4  A    between atoms: C_10  and  C_11
REMARK    5  A    between atoms: N_13  and  C_14
REMARK    6  A    between atoms: C_17  and  O_18
REMARK    7  A    between atoms: O_18  and  C_19
REMARK    8  A    between atoms: C_26  and  C_27
REMARK                            x       y       z     vdW  Elec       q    Type
REMARK                         _______ _______ _______ _____ _____    ______ ____
ROOT
ATOM      1  C   UNL     1       4.324   5.687  17.314  0.00  0.00    +0.000 A 
ATOM      2  N   UNL     1       4.219   7.023  17.117  0.00  0.00    +0.000 NA
ATOM      3  C   UNL     1       3.381   7.729  17.919  0.00  0.00    +0.000 A 
ATOM      4  C   UNL     1       2.645   7.175  18.955  0.00  0.00    +0.000 A 
ATOM      5  C   UNL     1       2.763   5.807  19.176  0.00  0.00    +0.000 A 
ATOM      6  C   UNL     1       3.616   5.034  18.362  0.00  0.00    +0.000 A 
ENDROOT
BRANCH   1  11
ATOM      7  C   UNL     1       6.323   3.814  13.306  0.00  0.00    +0.000 C 
ATOM      8  C   UNL     1       6.551   4.647  14.563  0.00  0.00    +0.000 C 
ATOM      9  C   UNL     1       7.008   3.806  15.763  0.00  0.00    +0.000 C 
ATOM     10  C   UNL     1       6.518   4.642  16.948  0.00  0.00    +0.000 C 
ATOM     11  N   UNL     1       5.179   4.972  16.493  0.00  0.00    +0.000 N 
ATOM     12  C   UNL     1       5.250   5.342  15.066  0.00  0.00    +0.000 C 
BRANCH   8  13
ATOM     13  O   UNL     1       7.556   5.624  14.278  0.00  0.00    +0.000 OA
ATOM     14  H   UNL     1       7.243   6.167  13.534  0.00  0.00    +0.000 HD
ENDBRANCH   8  13
ENDBRANCH   1  11
BRANCH   6  15
ATOM     15  C   UNL     1       3.814   3.608  18.677  0.00  0.00    +0.000 A 
ATOM     16  C   UNL     1       3.168   2.471  18.221  0.00  0.00    +0.000 A 
ATOM     17  C   UNL     1       3.757   1.396  18.901  0.00  0.00    +0.000 A 
ATOM     18  N   UNL     1       4.738   1.794  19.709  0.00  0.00    +0.000 NA
ATOM     19  N   UNL     1       4.746   3.130  19.563  0.00  0.00    +0.000 N 
ATOM     20  H   UNL     1       5.417   3.659  20.108  0.00  0.00    +0.000 HD
ENDBRANCH   6  15
BRANCH   4  21
ATOM     21  C   UNL     1       1.737   8.045  19.736  0.00  0.00    +0.000 C 
ATOM     22  O   UNL     1       1.406   7.653  20.848  0.00  0.00    +0.000 OA
ATOM     23  N   UNL     1       1.306   9.213  19.120  0.00  0.00    +0.000 N 
ATOM     24  H   UNL     1       1.469   9.309  18.126  0.00  0.00    +0.000 HD
BRANCH  23  25
ATOM     25  C   UNL     1       0.483  10.206  19.711  0.00  0.00    +0.000 A 
ATOM     26  C   UNL     1      -0.836  10.434  19.322  0.00  0.00    +0.000 A 
ATOM     27  C   UNL     1      -1.601  11.431  19.938  0.00  0.00    +0.000 A 
ATOM     28  C   UNL     1      -1.065  12.214  20.960  0.00  0.00    +0.000 A 
ATOM     29  C   UNL     1       0.259  12.011  21.337  0.00  0.00    +0.000 A 
ATOM     30  C   UNL     1       1.019  10.992  20.737  0.00  0.00    +0.000 A 
BRANCH  28  31
ATOM     31  O   UNL     1      -1.894  13.181  21.436  0.00  0.00    +0.000 OA
BRANCH  31  32
ATOM     32  C   UNL     1      -2.384  13.100  22.767  0.00  0.00    +0.000 C 
ATOM     33  F   UNL     1      -1.546  13.591  23.703  0.00  0.00    +0.000 F 
ATOM     34  F   UNL     1      -3.555  13.768  22.845  0.00  0.00    +0.000 F 
ATOM     35  F   UNL     1      -2.622  11.802  23.064  0.00  0.00    +0.000 F 
ENDBRANCH  31  32
ENDBRANCH  28  31
ENDBRANCH  23  25
ENDBRANCH   4  21
TORSDOF 7
ENDMDL
MODEL 4
REMARK VINA RESULT:      -8.3      0.608      1.273
REMARK  Name = 
REMARK  8 active torsions:
REMARK  status: ('A' for Active; 'I' for Inactive)
REMARK    1  A    between atoms: C_1  and  C_2
REMARK    2  A    between atoms: C_2  and  O_3
REMARK    3  A    between atoms: N_6  and  C_7
REMARK    4  A    between atoms: C_10  and  C_11
REMARK    5  A    between atoms: N_13  and  C_14
REMARK    6  A    between atoms: C_17  and  O_18
REMARK    7  A    between atoms: O_18  and  C_19
REMARK    8  A    between atoms: C_26  and  C_27
REMARK                            x       y       z     vdW  Elec       q    Type
REMARK                         _______ _______ _______ _____ _____    ______ ____
ROOT
ATOM      1  C   UNL     1       4.029   6.183  17.216  0.00  0.00    +0.000 A 
ATOM      2  N   UNL     1       4.179   7.518  17.038  0.00  0.00    +0.000 NA
ATOM      3  C   UNL     1       3.317   8.354  17.671  0.00  0.00    +0.000 A 
ATOM      4  C   UNL     1       2.307   7.932  18.522  0.00  0.00    +0.000 A 
ATOM      5  C   UNL     1       2.160   6.564  18.726  0.00  0.00    +0.000 A 
ATOM      6  C   UNL     1       3.028   5.660  18.081  0.00  0.00    +0.000 A 
ENDROOT
BRANCH   1  11
ATOM      7  C   UNL     1       6.392   3.897  13.644  0.00  0.00    +0.000 C 
ATOM      8  C   UNL     1       6.518   4.760  14.895  0.00  0.00    +0.000 C 
ATOM      9  C   UNL     1       6.676   3.932  16.178  0.00  0.00    +0.000 C 
ATOM     10  C   UNL     1       6.110   4.876  17.242  0.00  0.00    +0.000 C 
ATOM     11  N   UNL     1       4.909   5.336  16.567  0.00  0.00    +0.000 N 
ATOM     12  C   UNL     1       5.248   5.624  15.160  0.00  0.00    +0.000 C 
BRANCH   8  13
ATOM     13  O   UNL     1       7.667   5.600  14.747  0.00  0.00    +0.000 OA
ATOM     14  H   UNL     1       7.403   6.509  14.973  0.00  0.00    +0.000 HD
ENDBRANCH   8  13
ENDBRANCH   1  11
BRANCH   6  15
ATOM     15  C   UNL     1       2.929   4.222  18.392  0.00  0.00    +0.000 A 
ATOM     16  C   UNL     1       3.455   3.470  19.429  0.00  0.00    +0.000 A 
ATOM     17  C   UNL     1       3.062   2.147  19.182  0.00  0.00    +0.000 A 
ATOM     18  N   UNL     1       2.305   2.047  18.090  0.00  0.00    +0.000 NA
ATOM     19  N   UNL     1       2.247   3.307  17.628  0.00  0.00    +0.000 N 
ATOM     20  H   UNL     1       1.725   3.472  16.775  0.00  0.00    +0.000 HD
ENDBRANCH   6  15
BRANCH   4  21
ATOM     21  C   UNL     1       1.408   8.941  19.125  0.00  0.00    +0.000 C 
ATOM     22  O   UNL     1       0.709   9.595  18.362  0.00  0.00    +0.000 OA
ATOM     23  N   UNL     1       1.468   9.088  20.506  0.00  0.00    +0.000 N 
ATOM     24  H   UNL     1       2.241   8.652  20.992  0.00  0.00    +0.000 HD
BRANCH  23  25
ATOM     25  C   UNL     1       0.657   9.953  21.282  0.00  0.00    +0.000 A 
ATOM     26  C   UNL     1      -0.126   9.512  22.349  0.00  0.00    +0.000 A 
ATOM     27  C   UNL     1      -0.912  10.411  23.079  0.00  0.00    +0.000 A 
ATOM     28  C   UNL     1      -0.926  11.768  22.762  0.00  0.00    +0.000 A 
ATOM     29  C   UNL     1      -0.169  12.213  21.683  0.00  0.00    +0.000 A 
ATOM     30  C   UNL     1       0.642  11.316  20.966  0.00  0.00    +0.000 A 
BRANCH  28  31
ATOM     31  O   UNL     1      -1.771  12.524  23.513  0.00  0.00    +0.000 OA
BRANCH  31  32
ATOM     32  C   UNL     1      -3.154  12.570  23.190  0.00  0.00    +0.000 C 
ATOM     33  F   UNL     1      -3.942  11.827  23.992  0.00  0.00    +0.000 F 
ATOM     34  F   UNL     1      -3.574  13.853  23.242  0.00  0.00    +0.000 F 
ATOM     35  F   UNL     1      -3.318  12.128  21.922  0.00  0.00    +0.000 F 
ENDBRANCH  31  32
ENDBRANCH  28  31
ENDBRANCH  23  25
ENDBRANCH   4  21
TORSDOF 7
ENDMDL
MODEL 5
REMARK VINA RESULT:      -7.9      1.917      2.167
REMARK  Name = 
REMARK  8 active torsions:
REMARK  status: ('A' for Active; 'I' for Inactive)
REMARK    1  A    between atoms: C_1  and  C_2
REMARK    2  A    between atoms: C_2  and  O_3
REMARK    3  A    between atoms: N_6  and  C_7
REMARK    4  A    between atoms: C_10  and  C_11
REMARK    5  A    between atoms: N_13  and  C_14
REMARK    6  A    between atoms: C_17  and  O_18
REMARK    7  A    between atoms: O_18  and  C_19
REMARK    8  A    between atoms: C_26  and  C_27
REMARK                            x       y       z     vdW  Elec       q    Type
REMARK                         _______ _______ _______ _____ _____    ______ ____
ROOT
ATOM      1  C   UNL     1       4.331   5.792  17.295  0.00  0.00    +0.000 A 
ATOM      2  N   UNL     1       4.230   7.122  17.058  0.00  0.00    +0.000 NA
ATOM      3  C   UNL     1       3.374   7.850  17.821  0.00  0.00    +0.000 A 
ATOM      4  C   UNL     1       2.615   7.326  18.855  0.00  0.00    +0.000 A 
ATOM      5  C   UNL     1       2.729   5.964  19.118  0.00  0.00    +0.000 A 
ATOM      6  C   UNL     1       3.599   5.169  18.345  0.00  0.00    +0.000 A 
ENDROOT
BRANCH   1  11
ATOM      7  C   UNL     1       6.384   3.759  13.394  0.00  0.00    +0.000 C 
ATOM      8  C   UNL     1       6.590   4.661  14.607  0.00  0.00    +0.000 C 
ATOM      9  C   UNL     1       7.060   3.892  15.850  0.00  0.00    +0.000 C 
ATOM     10  C   UNL     1       6.548   4.777  16.989  0.00  0.00    +0.000 C 
ATOM     11  N   UNL     1       5.204   5.055  16.515  0.00  0.00    +0.000 N 
ATOM     12  C   UNL     1       5.273   5.352  15.071  0.00  0.00    +0.000 C 
BRANCH   8  13
ATOM     13  O   UNL     1       7.575   5.643  14.275  0.00  0.00    +0.000 OA
ATOM     14  H   UNL     1       7.629   5.695  13.305  0.00  0.00    +0.000 HD
ENDBRANCH   8  13
ENDBRANCH   1  11
BRANCH   6  15
ATOM     15  C   UNL     1       3.790   3.753  18.706  0.00  0.00    +0.000 A 
ATOM     16  C   UNL     1       3.160   2.602  18.263  0.00  0.00    +0.000 A 
ATOM     17  C   UNL     1       3.731   1.547  18.989  0.00  0.00    +0.000 A 
ATOM     18  N   UNL     1       4.687   1.970  19.815  0.00  0.00    +0.000 NA
ATOM     19  N   UNL     1       4.697   3.302  19.632  0.00  0.00    +0.000 N 
ATOM     20  H   UNL     1       5.350   3.848  20.182  0.00  0.00    +0.000 HD
ENDBRANCH   6  15
BRANCH   4  21
ATOM     21  C   UNL     1       1.690   8.217  19.590  0.00  0.00    +0.000 C 
ATOM     22  O   UNL     1       1.365   7.876  20.720  0.00  0.00    +0.000 OA
ATOM     23  N   UNL     1       1.238   9.344  18.915  0.00  0.00    +0.000 N 
ATOM     24  H   UNL     1       1.401   9.392  17.918  0.00  0.00    +0.000 HD
BRANCH  23  25
ATOM     25  C   UNL     1       0.396  10.350  19.455  0.00  0.00    +0.000 A 
ATOM     26  C   UNL     1      -0.907  10.571  19.012  0.00  0.00    +0.000 A 
ATOM     27  C   UNL     1      -1.692  11.582  19.579  0.00  0.00    +0.000 A 
ATOM     28  C   UNL     1      -1.193  12.385  20.604  0.00  0.00    +0.000 A 
ATOM     29  C   UNL     1       0.115  12.188  21.033  0.00  0.00    +0.000 A 
ATOM     30  C   UNL     1       0.895  11.156  20.483  0.00  0.00    +0.000 A 
BRANCH  28  31
ATOM     31  O   UNL     1      -2.037  13.363  21.028  0.00  0.00    +0.000 OA
BRANCH  31  32
ATOM     32  C   UNL     1      -1.729  14.725  20.769  0.00  0.00    +0.000 C 
ATOM     33  F   UNL     1      -0.957  15.313  21.705  0.00  0.00    +0.000 F 
ATOM     34  F   UNL     1      -1.101  14.814  19.576  0.00  0.00    +0.000 F 
ATOM     35  F   UNL     1      -2.885  15.423  20.687  0.00  0.00    +0.000 F 
ENDBRANCH  31  32
ENDBRANCH  28  31
ENDBRANCH  23  25
ENDBRANCH   4  21
TORSDOF 7
ENDMDL
MODEL 6
REMARK VINA RESULT:      -7.9      0.897      1.006
REMARK  Name = 
REMARK  8 active torsions:
REMARK  status: ('A' for Active; 'I' for Inactive)
REMARK    1  A    between atoms: C_1  and  C_2
REMARK    2  A    between atoms: C_2  and  O_3
REMARK    3  A    between atoms: N_6  and  C_7
REMARK    4  A    between atoms: C_10  and  C_11
REMARK    5  A    between atoms: N_13  and  C_14
REMARK    6  A    between atoms: C_17  and  O_18
REMARK    7  A    between atoms: O_18  and  C_19
REMARK    8  A    between atoms: C_26  and  C_27
REMARK                            x       y       z     vdW  Elec       q    Type
REMARK                         _______ _______ _______ _____ _____    ______ ____
ROOT
ATOM      1  C   UNL     1       4.002   6.249  17.363  0.00  0.00    +0.000 A 
ATOM      2  N   UNL     1       4.086   7.574  17.095  0.00  0.00    +0.000 NA
ATOM      3  C   UNL     1       3.171   8.405  17.658  0.00  0.00    +0.000 A 
ATOM      4  C   UNL     1       2.169   7.989  18.522  0.00  0.00    +0.000 A 
ATOM      5  C   UNL     1       2.090   6.633  18.818  0.00  0.00    +0.000 A 
ATOM      6  C   UNL     1       3.014   5.733  18.249  0.00  0.00    +0.000 A 
ENDROOT
BRANCH   1  11
ATOM      7  C   UNL     1       6.466   3.765  13.998  0.00  0.00    +0.000 C 
ATOM      8  C   UNL     1       6.548   4.775  15.138  0.00  0.00    +0.000 C 
ATOM      9  C   UNL     1       6.806   4.118  16.501  0.00  0.00    +0.000 C 
ATOM     10  C   UNL     1       6.187   5.129  17.469  0.00  0.00    +0.000 C 
ATOM     11  N   UNL     1       4.935   5.407  16.786  0.00  0.00    +0.000 N 
ATOM     12  C   UNL     1       5.215   5.556  15.345  0.00  0.00    +0.000 C 
BRANCH   8  13
ATOM     13  O   UNL     1       7.616   5.683  14.857  0.00  0.00    +0.000 OA
ATOM     14  H   UNL     1       7.436   6.513  15.333  0.00  0.00    +0.000 HD
ENDBRANCH   8  13
ENDBRANCH   1  11
BRANCH   6  15
ATOM     15  C   UNL     1       2.984   4.317  18.657  0.00  0.00    +0.000 A 
ATOM     16  C   UNL     1       2.318   3.225  18.127  0.00  0.00    +0.000 A 
ATOM     17  C   UNL     1       2.637   2.140  18.957  0.00  0.00    +0.000 A 
ATOM     18  N   UNL     1       3.478   2.488  19.930  0.00  0.00    +0.000 NA
ATOM     19  N   UNL     1       3.664   3.804  19.733  0.00  0.00    +0.000 N 
ATOM     20  H   UNL     1       4.269   4.296  20.381  0.00  0.00    +0.000 HD
ENDBRANCH   6  15
BRANCH   4  21
ATOM     21  C   UNL     1       1.210   8.988  19.043  0.00  0.00    +0.000 C 
ATOM     22  O   UNL     1       0.634   9.691  18.222  0.00  0.00    +0.000 OA
ATOM     23  N   UNL     1       1.077   9.069  20.423  0.00  0.00    +0.000 N 
ATOM     24  H   UNL     1       1.767   8.595  20.991  0.00  0.00    +0.000 HD
BRANCH  23  25
ATOM     25  C   UNL     1       0.177   9.915  21.120  0.00  0.00    +0.000 A 
ATOM     26  C   UNL     1      -0.456  11.008  20.528  0.00  0.00    +0.000 A 
ATOM     27  C   UNL     1      -1.332  11.812  21.265  0.00  0.00    +0.000 A 
ATOM     28  C   UNL     1      -1.601  11.536  22.605  0.00  0.00    +0.000 A 
ATOM     29  C   UNL     1      -0.954  10.463  23.211  0.00  0.00    +0.000 A 
ATOM     30  C   UNL     1      -0.094   9.639  22.465  0.00  0.00    +0.000 A 
BRANCH  28  31
ATOM     31  O   UNL     1      -2.427  12.423  23.220  0.00  0.00    +0.000 OA
BRANCH  31  32
ATOM     32  C   UNL     1      -1.971  13.740  23.495  0.00  0.00    +0.000 C 
ATOM     33  F   UNL     1      -2.244  14.641  22.529  0.00  0.00    +0.000 F 
ATOM     34  F   UNL     1      -2.527  14.166  24.649  0.00  0.00    +0.000 F 
ATOM     35  F   UNL     1      -0.629  13.708  23.664  0.00  0.00    +0.000 F 
ENDBRANCH  31  32
ENDBRANCH  28  31
ENDBRANCH  23  25
ENDBRANCH   4  21
TORSDOF 7
ENDMDL
MODEL 7
REMARK VINA RESULT:      -7.9      1.028      1.413
REMARK  Name = 
REMARK  8 active torsions:
REMARK  status: ('A' for Active; 'I' for Inactive)
REMARK    1  A    between atoms: C_1  and  C_2
REMARK    2  A    between atoms: C_2  and  O_3
REMARK    3  A    between atoms: N_6  and  C_7
REMARK    4  A    between atoms: C_10  and  C_11
REMARK    5  A    between atoms: N_13  and  C_14
REMARK    6  A    between atoms: C_17  and  O_18
REMARK    7  A    between atoms: O_18  and  C_19
REMARK    8  A    between atoms: C_26  and  C_27
REMARK                            x       y       z     vdW  Elec       q    Type
REMARK                         _______ _______ _______ _____ _____    ______ ____
ROOT
ATOM      1  C   UNL     1       3.956   6.251  17.428  0.00  0.00    +0.000 A 
ATOM      2  N   UNL     1       4.079   7.588  17.251  0.00  0.00    +0.000 NA
ATOM      3  C   UNL     1       3.155   8.402  17.824  0.00  0.00    +0.000 A 
ATOM      4  C   UNL     1       2.105   7.955  18.612  0.00  0.00    +0.000 A 
ATOM      5  C   UNL     1       1.986   6.584  18.815  0.00  0.00    +0.000 A 
ATOM      6  C   UNL     1       2.918   5.703  18.232  0.00  0.00    +0.000 A 
ENDROOT
BRANCH   1  11
ATOM      7  C   UNL     1       6.540   3.945  14.027  0.00  0.00    +0.000 C 
ATOM      8  C   UNL     1       6.584   4.869  15.240  0.00  0.00    +0.000 C 
ATOM      9  C   UNL     1       6.752   4.109  16.563  0.00  0.00    +0.000 C 
ATOM     10  C   UNL     1       6.105   5.067  17.568  0.00  0.00    +0.000 C 
ATOM     11  N   UNL     1       4.900   5.427  16.842  0.00  0.00    +0.000 N 
ATOM     12  C   UNL     1       5.262   5.670  15.432  0.00  0.00    +0.000 C 
BRANCH   8  13
ATOM     13  O   UNL     1       7.688   5.765  15.082  0.00  0.00    +0.000 OA
ATOM     14  H   UNL     1       7.493   6.571  15.590  0.00  0.00    +0.000 HD
ENDBRANCH   8  13
ENDBRANCH   1  11
BRANCH   6  15
ATOM     15  C   UNL     1       2.841   4.264  18.546  0.00  0.00    +0.000 A 
ATOM     16  C   UNL     1       3.310   3.535  19.627  0.00  0.00    +0.000 A 
ATOM     17  C   UNL     1       2.979   2.199  19.361  0.00  0.00    +0.000 A 
ATOM     18  N   UNL     1       2.313   2.068  18.215  0.00  0.00    +0.000 NA
ATOM     19  N   UNL     1       2.250   3.324  17.740  0.00  0.00    +0.000 N 
ATOM     20  H   UNL     1       1.791   3.467  16.848  0.00  0.00    +0.000 HD
ENDBRANCH   6  15
BRANCH   4  21
ATOM     21  C   UNL     1       1.142   8.940  19.151  0.00  0.00    +0.000 C 
ATOM     22  O   UNL     1       0.459   9.554  18.341  0.00  0.00    +0.000 OA
ATOM     23  N   UNL     1       1.127   9.112  20.530  0.00  0.00    +0.000 N 
ATOM     24  H   UNL     1       1.889   8.714  21.062  0.00  0.00    +0.000 HD
BRANCH  23  25
ATOM     25  C   UNL     1       0.247   9.960  21.248  0.00  0.00    +0.000 A 
ATOM     26  C   UNL     1      -0.223   9.664  22.527  0.00  0.00    +0.000 A 
ATOM     27  C   UNL     1      -1.095  10.536  23.189  0.00  0.00    +0.000 A 
ATOM     28  C   UNL     1      -1.508  11.725  22.589  0.00  0.00    +0.000 A 
ATOM     29  C   UNL     1      -1.065  12.016  21.302  0.00  0.00    +0.000 A 
ATOM     30  C   UNL     1      -0.169  11.154  20.648  0.00  0.00    +0.000 A 
BRANCH  28  31
ATOM     31  O   UNL     1      -2.396  12.455  23.315  0.00  0.00    +0.000 OA
BRANCH  31  32
ATOM     32  C   UNL     1      -2.120  13.818  23.607  0.00  0.00    +0.000 C 
ATOM     33  F   UNL     1      -2.502  14.685  22.648  0.00  0.00    +0.000 F 
ATOM     34  F   UNL     1      -2.736  14.153  24.761  0.00  0.00    +0.000 F 
ATOM     35  F   UNL     1      -0.787  13.960  23.788  0.00  0.00    +0.000 F 
ENDBRANCH  31  32
ENDBRANCH  28  31
ENDBRANCH  23  25
ENDBRANCH   4  21
TORSDOF 7
ENDMDL
MODEL 8
REMARK VINA RESULT:      -7.8      1.962      2.243
REMARK  Name = 
REMARK  8 active torsions:
REMARK  status: ('A' for Active; 'I' for Inactive)
REMARK    1  A    between atoms: C_1  and  C_2
REMARK    2  A    between atoms: C_2  and  O_3
REMARK    3  A    between atoms: N_6  and  C_7
REMARK    4  A    between atoms: C_10  and  C_11
REMARK    5  A    between atoms: N_13  and  C_14
REMARK    6  A    between atoms: C_17  and  O_18
REMARK    7  A    between atoms: O_18  and  C_19
REMARK    8  A    between atoms: C_26  and  C_27
REMARK                            x       y       z     vdW  Elec       q    Type
REMARK                         _______ _______ _______ _____ _____    ______ ____
ROOT
ATOM      1  C   UNL     1       4.239   5.813  17.268  0.00  0.00    +0.000 A 
ATOM      2  N   UNL     1       4.213   7.153  17.076  0.00  0.00    +0.000 NA
ATOM      3  C   UNL     1       3.371   7.898  17.838  0.00  0.00    +0.000 A 
ATOM      4  C   UNL     1       2.554   7.379  18.830  0.00  0.00    +0.000 A 
ATOM      5  C   UNL     1       2.590   6.005  19.048  0.00  0.00    +0.000 A 
ATOM      6  C   UNL     1       3.444   5.193  18.274  0.00  0.00    +0.000 A 
ENDROOT
BRANCH   1  11
ATOM      7  C   UNL     1       6.327   3.831  13.360  0.00  0.00    +0.000 C 
ATOM      8  C   UNL     1       6.535   4.664  14.620  0.00  0.00    +0.000 C 
ATOM      9  C   UNL     1       6.908   3.815  15.843  0.00  0.00    +0.000 C 
ATOM     10  C   UNL     1       6.402   4.678  17.001  0.00  0.00    +0.000 C 
ATOM     11  N   UNL     1       5.097   5.059  16.489  0.00  0.00    +0.000 N 
ATOM     12  C   UNL     1       5.243   5.414  15.064  0.00  0.00    +0.000 C 
BRANCH   8  13
ATOM     13  O   UNL     1       7.589   5.598  14.371  0.00  0.00    +0.000 OA
ATOM     14  H   UNL     1       7.546   5.856  13.434  0.00  0.00    +0.000 HD
ENDBRANCH   8  13
ENDBRANCH   1  11
BRANCH   6  15
ATOM     15  C   UNL     1       3.551   3.757  18.589  0.00  0.00    +0.000 A 
ATOM     16  C   UNL     1       4.267   3.084  19.565  0.00  0.00    +0.000 A 
ATOM     17  C   UNL     1       4.014   1.721  19.356  0.00  0.00    +0.000 A 
ATOM     18  N   UNL     1       3.168   1.520  18.346  0.00  0.00    +0.000 NA
ATOM     19  N   UNL     1       2.912   2.760  17.896  0.00  0.00    +0.000 N 
ATOM     20  H   UNL     1       2.291   2.853  17.101  0.00  0.00    +0.000 HD
ENDBRANCH   6  15
BRANCH   4  21
ATOM     21  C   UNL     1       1.652   8.291  19.568  0.00  0.00    +0.000 C 
ATOM     22  O   UNL     1       1.319   7.954  20.697  0.00  0.00    +0.000 OA
ATOM     23  N   UNL     1       1.229   9.432  18.897  0.00  0.00    +0.000 N 
ATOM     24  H   UNL     1       1.393   9.479  17.900  0.00  0.00    +0.000 HD
BRANCH  23  25
ATOM     25  C   UNL     1       0.413  10.457  19.441  0.00  0.00    +0.000 A 
ATOM     26  C   UNL     1       0.817  11.273  20.497  0.00  0.00    +0.000 A 
ATOM     27  C   UNL     1      -0.032  12.267  20.997  0.00  0.00    +0.000 A 
ATOM     28  C   UNL     1      -1.297  12.471  20.446  0.00  0.00    +0.000 A 
ATOM     29  C   UNL     1      -1.718  11.643  19.409  0.00  0.00    +0.000 A 
ATOM     30  C   UNL     1      -0.856  10.662  18.889  0.00  0.00    +0.000 A 
BRANCH  28  31
ATOM     31  O   UNL     1      -2.041  13.430  21.057  0.00  0.00    +0.000 OA
BRANCH  31  32
ATOM     32  C   UNL     1      -1.822  14.799  20.747  0.00  0.00    +0.000 C 
ATOM     33  F   UNL     1      -1.122  15.479  21.677  0.00  0.00    +0.000 F 
ATOM     34  F   UNL     1      -1.166  14.883  19.569  0.00  0.00    +0.000 F 
ATOM     35  F   UNL     1      -3.021  15.408  20.602  0.00  0.00    +0.000 F 
ENDBRANCH  31  32
ENDBRANCH  28  31
ENDBRANCH  23  25
ENDBRANCH   4  21
TORSDOF 7
ENDMDL
MODEL 9
REMARK VINA RESULT:      -7.6      2.348      3.117
REMARK  Name = 
REMARK  8 active torsions:
REMARK  status: ('A' for Active; 'I' for Inactive)
REMARK    1  A    between atoms: C_1  and  C_2
REMARK    2  A    between atoms: C_2  and  O_3
REMARK    3  A    between atoms: N_6  and  C_7
REMARK    4  A    between atoms: C_10  and  C_11
REMARK    5  A    between atoms: N_13  and  C_14
REMARK    6  A    between atoms: C_17  and  O_18
REMARK    7  A    between atoms: O_18  and  C_19
REMARK    8  A    between atoms: C_26  and  C_27
REMARK                            x       y       z     vdW  Elec       q    Type
REMARK                         _______ _______ _______ _____ _____    ______ ____
ROOT
ATOM      1  C   UNL     1       2.424   6.721  19.344  0.00  0.00    +0.000 A 
ATOM      2  N   UNL     1       2.394   8.045  19.061  0.00  0.00    +0.000 NA
ATOM      3  C   UNL     1       1.559   8.840  19.779  0.00  0.00    +0.000 A 
ATOM      4  C   UNL     1       0.753   8.389  20.813  0.00  0.00    +0.000 A 
ATOM      5  C   UNL     1       0.794   7.033  21.123  0.00  0.00    +0.000 A 
ATOM      6  C   UNL     1       1.641   6.171  20.398  0.00  0.00    +0.000 A 
ENDROOT
BRANCH   1  11
ATOM      7  C   UNL     1       6.489   4.565  17.799  0.00  0.00    +0.000 C 
ATOM      8  C   UNL     1       5.072   4.365  18.324  0.00  0.00    +0.000 C 
ATOM      9  C   UNL     1       4.027   4.273  17.203  0.00  0.00    +0.000 C 
ATOM     10  C   UNL     1       2.756   4.756  17.907  0.00  0.00    +0.000 C 
ATOM     11  N   UNL     1       3.275   5.916  18.609  0.00  0.00    +0.000 N 
ATOM     12  C   UNL     1       4.580   5.558  19.198  0.00  0.00    +0.000 C 
BRANCH   8  13
ATOM     13  O   UNL     1       5.041   3.151  19.081  0.00  0.00    +0.000 OA
ATOM     14  H   UNL     1       4.126   3.007  19.377  0.00  0.00    +0.000 HD
ENDBRANCH   8  13
ENDBRANCH   1  11
BRANCH   6  15
ATOM     15  C   UNL     1       1.754   4.760  20.809  0.00  0.00    +0.000 A 
ATOM     16  C   UNL     1       1.031   3.637  20.441  0.00  0.00    +0.000 A 
ATOM     17  C   UNL     1       1.563   2.576  21.187  0.00  0.00    +0.000 A 
ATOM     18  N   UNL     1       2.580   2.966  21.955  0.00  0.00    +0.000 NA
ATOM     19  N   UNL     1       2.669   4.286  21.715  0.00  0.00    +0.000 N 
ATOM     20  H   UNL     1       3.380   4.808  22.214  0.00  0.00    +0.000 HD
ENDBRANCH   6  15
BRANCH   4  21
ATOM     21  C   UNL     1      -0.142   9.348  21.497  0.00  0.00    +0.000 C 
ATOM     22  O   UNL     1      -0.667   8.978  22.539  0.00  0.00    +0.000 OA
ATOM     23  N   UNL     1      -0.341  10.574  20.872  0.00  0.00    +0.000 N 
ATOM     24  H   UNL     1      -0.033  10.668  19.914  0.00  0.00    +0.000 HD
BRANCH  23  25
ATOM     25  C   UNL     1      -1.112  11.648  21.384  0.00  0.00    +0.000 A 
ATOM     26  C   UNL     1      -2.148  12.250  20.672  0.00  0.00    +0.000 A 
ATOM     27  C   UNL     1      -2.873  13.312  21.226  0.00  0.00    +0.000 A 
ATOM     28  C   UNL     1      -2.583  13.786  22.504  0.00  0.00    +0.000 A 
ATOM     29  C   UNL     1      -1.533  13.208  23.212  0.00  0.00    +0.000 A 
ATOM     30  C   UNL     1      -0.822  12.125  22.667  0.00  0.00    +0.000 A 
BRANCH  28  31
ATOM     31  O   UNL     1      -3.325  14.854  22.902  0.00  0.00    +0.000 OA
BRANCH  31  32
ATOM     32  C   UNL     1      -4.197  14.733  24.016  0.00  0.00    +0.000 C 
ATOM     33  F   UNL     1      -4.717  13.501  24.190  0.00  0.00    +0.000 F 
ATOM     34  F   UNL     1      -3.528  15.081  25.137  0.00  0.00    +0.000 F 
ATOM     35  F   UNL     1      -5.225  15.598  23.857  0.00  0.00    +0.000 F 
ENDBRANCH  31  32
ENDBRANCH  28  31
ENDBRANCH  23  25
ENDBRANCH   4  21
TORSDOF 7
ENDMDL
