MODEL 1
REMARK VINA RESULT:      -7.9      0.000      0.000
REMARK  Name = 
REMARK  9 active torsions:
REMARK  status: ('A' for Active; 'I' for Inactive)
REMARK    1  A    between atoms: C_1  and  C_2
REMARK    2  A    between atoms: N_4  and  N_5
REMARK    3  A    between atoms: N_5  and  C_6
REMARK    4  A    between atoms: C_6  and  C_7
REMARK    5  A    between atoms: N_9  and  C_10
REMARK    6  A    between atoms: C_13  and  O_14
REMARK    7  A    between atoms: O_14  and  C_15
REMARK    8  A    between atoms: C_15  and  C_16
REMARK    9  A    between atoms: C_16  and  N_17
REMARK                            x       y       z     vdW  Elec       q    Type
REMARK                         _______ _______ _______ _____ _____    ______ ____
ROOT
ATOM      1  C   UNL     1       2.211   7.867  18.907  0.00  0.00    +0.000 A 
ATOM      2  C   UNL     1       2.041   8.822  17.901  0.00  0.00    +0.000 A 
ATOM      3  C   UNL     1       1.321   9.989  18.143  0.00  0.00    +0.000 A 
ATOM      4  C   UNL     1       0.817  10.251  19.413  0.00  0.00    +0.000 A 
ATOM      5  C   UNL     1       1.007   9.298  20.422  0.00  0.00    +0.000 A 
ATOM      6  F   UNL     1       0.570   9.495  21.678  0.00  0.00    +0.000 F 
ATOM      7  C   UNL     1       1.679   8.108  20.171  0.00  0.00    +0.000 A 
ENDROOT
BRANCH   1  10
ATOM      8  C   UNL     1       3.493   4.477  18.624  0.00  0.00    +0.000 C 
ATOM      9  C   UNL     1       2.914   5.554  19.518  0.00  0.00    +0.000 C 
ATOM     10  N   UNL     1       2.899   6.673  18.637  0.00  0.00    +0.000 N 
ATOM     11  C   UNL     1       3.731   6.449  17.568  0.00  0.00    +0.000 C 
ATOM     12  O   UNL     1       4.038   7.228  16.661  0.00  0.00    +0.000 OA
ATOM     13  O   UNL     1       4.263   5.197  17.651  0.00  0.00    +0.000 OA
BRANCH   8  14
ATOM     14  C   UNL     1       4.360   3.464  19.374  0.00  0.00    +0.000 C 
BRANCH  14  15
ATOM     15  N   UNL     1       5.734   3.476  18.847  0.00  0.00    +0.000 NA
ATOM     16  H   UNL     1       6.279   2.683  19.205  0.00  0.00    +0.000 HD
BRANCH  15  20
ATOM     17  C   UNL     1       8.049   6.395  18.880  0.00  0.00    +0.000 C 
ATOM     18  C   UNL     1       7.412   5.134  18.374  0.00  0.00    +0.000 C 
ATOM     19  O   UNL     1       7.770   4.564  17.344  0.00  0.00    +0.000 OA
ATOM     20  N   UNL     1       6.417   4.653  19.214  0.00  0.00    +0.000 N 
ATOM     21  H   UNL     1       5.976   5.284  19.878  0.00  0.00    +0.000 HD
ENDBRANCH  15  20
ENDBRANCH  14  15
ENDBRANCH   8  14
ENDBRANCH   1  10
BRANCH   4  22
ATOM     22  O   UNL     1       0.166  11.454  19.528  0.00  0.00    +0.000 OA
BRANCH  22  23
ATOM     23  C   UNL     1      -1.243  11.344  19.745  0.00  0.00    +0.000 C 
BRANCH  23  24
ATOM     24  C   UNL     1      -2.015  11.515  18.426  0.00  0.00    +0.000 C 
BRANCH  24  25
ATOM     25  N   UNL     1      -2.733  10.296  17.987  0.00  0.00    +0.000 NA
ATOM     26  C   UNL     1      -2.322   9.796  16.652  0.00  0.00    +0.000 C 
ATOM     27  C   UNL     1      -2.716  10.748  15.512  0.00  0.00    +0.000 C 
ATOM     28  O   UNL     1      -4.138  10.930  15.481  0.00  0.00    +0.000 OA
ATOM     29  C   UNL     1      -4.624  11.428  16.736  0.00  0.00    +0.000 C 
ATOM     30  C   UNL     1      -4.194  10.539  17.920  0.00  0.00    +0.000 C 
ENDBRANCH  24  25
ENDBRANCH  23  24
ENDBRANCH  22  23
ENDBRANCH   4  22
TORSDOF 8
ENDMDL
MODEL 2
REMARK VINA RESULT:      -7.7      2.133      8.870
REMARK  Name = 
REMARK  9 active torsions:
REMARK  status: ('A' for Active; 'I' for Inactive)
REMARK    1  A    between atoms: C_1  and  C_2
REMARK    2  A    between atoms: N_4  and  N_5
REMARK    3  A    between atoms: N_5  and  C_6
REMARK    4  A    between atoms: C_6  and  C_7
REMARK    5  A    between atoms: N_9  and  C_10
REMARK    6  A    between atoms: C_13  and  O_14
REMARK    7  A    between atoms: O_14  and  C_15
REMARK    8  A    between atoms: C_15  and  C_16
REMARK    9  A    between atoms: C_16  and  N_17
REMARK                            x       y       z     vdW  Elec       q    Type
REMARK                         _______ _______ _______ _____ _____    ______ ____
ROOT
ATOM      1  C   UNL     1       1.383   8.336  19.878  0.00  0.00    +0.000 A 
ATOM      2  C   UNL     1       2.085   8.210  18.675  0.00  0.00    +0.000 A 
ATOM      3  C   UNL     1       2.820   7.059  18.398  0.00  0.00    +0.000 A 
ATOM      4  C   UNL     1       2.811   5.991  19.290  0.00  0.00    +0.000 A 
ATOM      5  C   UNL     1       2.090   6.117  20.485  0.00  0.00    +0.000 A 
ATOM      6  F   UNL     1       2.016   5.117  21.379  0.00  0.00    +0.000 F 
ATOM      7  C   UNL     1       1.399   7.283  20.788  0.00  0.00    +0.000 A 
ENDROOT
BRANCH   1  10
ATOM      8  C   UNL     1      -0.889  11.161  20.130  0.00  0.00    +0.000 C 
ATOM      9  C   UNL     1      -0.166  10.180  19.232  0.00  0.00    +0.000 C 
ATOM     10  N   UNL     1       0.684   9.520  20.165  0.00  0.00    +0.000 N 
ATOM     11  C   UNL     1       0.797  10.261  21.314  0.00  0.00    +0.000 C 
ATOM     12  O   UNL     1       1.518  10.049  22.294  0.00  0.00    +0.000 OA
ATOM     13  O   UNL     1       0.008  11.370  21.230  0.00  0.00    +0.000 OA
BRANCH   8  14
ATOM     14  C   UNL     1      -1.231  12.483  19.439  0.00  0.00    +0.000 C 
BRANCH  14  15
ATOM     15  N   UNL     1      -2.547  12.395  18.787  0.00  0.00    +0.000 NA
ATOM     16  H   UNL     1      -3.133  11.673  19.222  0.00  0.00    +0.000 HD
BRANCH  15  20
ATOM     17  C   UNL     1      -3.017  10.837  15.435  0.00  0.00    +0.000 C 
ATOM     18  C   UNL     1      -3.244  11.076  16.900  0.00  0.00    +0.000 C 
ATOM     19  O   UNL     1      -4.041  10.424  17.573  0.00  0.00    +0.000 OA
ATOM     20  N   UNL     1      -2.426  12.069  17.421  0.00  0.00    +0.000 N 
ATOM     21  H   UNL     1      -2.005  12.750  16.794  0.00  0.00    +0.000 HD
ENDBRANCH  15  20
ENDBRANCH  14  15
ENDBRANCH   8  14
ENDBRANCH   1  10
BRANCH   4  22
ATOM     22  O   UNL     1       3.539   4.902  18.878  0.00  0.00    +0.000 OA
BRANCH  22  23
ATOM     23  C   UNL     1       3.322   4.530  17.514  0.00  0.00    +0.000 C 
BRANCH  23  24
ATOM     24  C   UNL     1       4.597   3.926  16.903  0.00  0.00    +0.000 C 
BRANCH  24  25
ATOM     25  N   UNL     1       5.090   4.646  15.705  0.00  0.00    +0.000 NA
ATOM     26  C   UNL     1       6.460   4.262  15.286  0.00  0.00    +0.000 C 
ATOM     27  C   UNL     1       7.534   4.687  16.299  0.00  0.00    +0.000 C 
ATOM     28  O   UNL     1       7.524   6.111  16.471  0.00  0.00    +0.000 OA
ATOM     29  C   UNL     1       6.232   6.571  16.893  0.00  0.00    +0.000 C 
ATOM     30  C   UNL     1       5.110   6.110  15.940  0.00  0.00    +0.000 C 
ENDBRANCH  24  25
ENDBRANCH  23  24
ENDBRANCH  22  23
ENDBRANCH   4  22
TORSDOF 8
ENDMDL
MODEL 3
REMARK VINA RESULT:      -7.6      1.944      2.865
REMARK  Name = 
REMARK  9 active torsions:
REMARK  status: ('A' for Active; 'I' for Inactive)
REMARK    1  A    between atoms: C_1  and  C_2
REMARK    2  A    between atoms: N_4  and  N_5
REMARK    3  A    between atoms: N_5  and  C_6
REMARK    4  A    between atoms: C_6  and  C_7
REMARK    5  A    between atoms: N_9  and  C_10
REMARK    6  A    between atoms: C_13  and  O_14
REMARK    7  A    between atoms: O_14  and  C_15
REMARK    8  A    between atoms: C_15  and  C_16
REMARK    9  A    between atoms: C_16  and  N_17
REMARK                            x       y       z     vdW  Elec       q    Type
REMARK                         _______ _______ _______ _____ _____    ______ ____
ROOT
ATOM      1  C   UNL     1       2.318   6.872  18.856  0.00  0.00    +0.000 A 
ATOM      2  C   UNL     1       2.195   7.892  17.908  0.00  0.00    +0.000 A 
ATOM      3  C   UNL     1       1.628   9.117  18.252  0.00  0.00    +0.000 A 
ATOM      4  C   UNL     1       1.238   9.365  19.564  0.00  0.00    +0.000 A 
ATOM      5  C   UNL     1       1.382   8.344  20.514  0.00  0.00    +0.000 A 
ATOM      6  F   UNL     1       1.050   8.521  21.804  0.00  0.00    +0.000 F 
ATOM      7  C   UNL     1       1.897   7.103  20.162  0.00  0.00    +0.000 A 
ENDROOT
BRANCH   1  10
ATOM      8  C   UNL     1       3.207   3.676  17.370  0.00  0.00    +0.000 C 
ATOM      9  C   UNL     1       2.106   4.627  17.792  0.00  0.00    +0.000 C 
ATOM     10  N   UNL     1       2.848   5.626  18.485  0.00  0.00    +0.000 N 
ATOM     11  C   UNL     1       4.091   5.148  18.823  0.00  0.00    +0.000 C 
ATOM     12  O   UNL     1       4.962   5.696  19.504  0.00  0.00    +0.000 OA
ATOM     13  O   UNL     1       4.250   3.886  18.332  0.00  0.00    +0.000 OA
BRANCH   8  14
ATOM     14  C   UNL     1       2.768   2.210  17.343  0.00  0.00    +0.000 C 
BRANCH  14  15
ATOM     15  N   UNL     1       2.983   1.587  18.659  0.00  0.00    +0.000 NA
ATOM     16  H   UNL     1       2.922   0.564  18.602  0.00  0.00    +0.000 HD
BRANCH  15  20
ATOM     17  C   UNL     1       1.323   2.856  21.744  0.00  0.00    +0.000 C 
ATOM     18  C   UNL     1       2.449   2.420  20.852  0.00  0.00    +0.000 C 
ATOM     19  O   UNL     1       3.622   2.384  21.217  0.00  0.00    +0.000 OA
ATOM     20  N   UNL     1       2.020   2.014  19.595  0.00  0.00    +0.000 N 
ATOM     21  H   UNL     1       1.112   2.320  19.254  0.00  0.00    +0.000 HD
ENDBRANCH  15  20
ENDBRANCH  14  15
ENDBRANCH   8  14
ENDBRANCH   1  10
BRANCH   4  22
ATOM     22  O   UNL     1       0.736  10.625  19.778  0.00  0.00    +0.000 OA
BRANCH  22  23
ATOM     23  C   UNL     1       0.469  11.363  18.583  0.00  0.00    +0.000 C 
BRANCH  23  24
ATOM     24  C   UNL     1      -1.026  11.710  18.478  0.00  0.00    +0.000 C 
BRANCH  24  25
ATOM     25  N   UNL     1      -1.911  10.527  18.358  0.00  0.00    +0.000 NA
ATOM     26  C   UNL     1      -1.915   9.906  17.012  0.00  0.00    +0.000 C 
ATOM     27  C   UNL     1      -2.550  10.808  15.942  0.00  0.00    +0.000 C 
ATOM     28  O   UNL     1      -3.912  11.104  16.280  0.00  0.00    +0.000 OA
ATOM     29  C   UNL     1      -4.000  11.725  17.570  0.00  0.00    +0.000 C 
ATOM     30  C   UNL     1      -3.316  10.886  18.668  0.00  0.00    +0.000 C 
ENDBRANCH  24  25
ENDBRANCH  23  24
ENDBRANCH  22  23
ENDBRANCH   4  22
TORSDOF 8
ENDMDL
MODEL 4
REMARK VINA RESULT:      -7.6      2.935      4.296
REMARK  Name = 
REMARK  9 active torsions:
REMARK  status: ('A' for Active; 'I' for Inactive)
REMARK    1  A    between atoms: C_1  and  C_2
REMARK    2  A    between atoms: N_4  and  N_5
REMARK    3  A    between atoms: N_5  and  C_6
REMARK    4  A    between atoms: C_6  and  C_7
REMARK    5  A    between atoms: N_9  and  C_10
REMARK    6  A    between atoms: C_13  and  O_14
REMARK    7  A    between atoms: O_14  and  C_15
REMARK    8  A    between atoms: C_15  and  C_16
REMARK    9  A    between atoms: C_16  and  N_17
REMARK                            x       y       z     vdW  Elec       q    Type
REMARK                         _______ _______ _______ _____ _____    ______ ____
ROOT
ATOM      1  C   UNL     1       2.409   6.872  18.855  0.00  0.00    +0.000 A 
ATOM      2  C   UNL     1       2.355   7.908  17.917  0.00  0.00    +0.000 A 
ATOM      3  C   UNL     1       1.816   9.147  18.257  0.00  0.00    +0.000 A 
ATOM      4  C   UNL     1       1.384   9.390  19.557  0.00  0.00    +0.000 A 
ATOM      5  C   UNL     1       1.459   8.353  20.497  0.00  0.00    +0.000 A 
ATOM      6  F   UNL     1       1.084   8.524  21.776  0.00  0.00    +0.000 F 
ATOM      7  C   UNL     1       1.946   7.100  20.148  0.00  0.00    +0.000 A 
ENDROOT
BRANCH   1  10
ATOM      8  C   UNL     1       3.225   3.652  17.378  0.00  0.00    +0.000 C 
ATOM      9  C   UNL     1       2.146   4.627  17.803  0.00  0.00    +0.000 C 
ATOM     10  N   UNL     1       2.912   5.614  18.486  0.00  0.00    +0.000 N 
ATOM     11  C   UNL     1       4.147   5.113  18.818  0.00  0.00    +0.000 C 
ATOM     12  O   UNL     1       5.034   5.648  19.490  0.00  0.00    +0.000 OA
ATOM     13  O   UNL     1       4.278   3.847  18.333  0.00  0.00    +0.000 OA
BRANCH   8  14
ATOM     14  C   UNL     1       2.757   2.195  17.362  0.00  0.00    +0.000 C 
BRANCH  14  15
ATOM     15  N   UNL     1       2.978   1.572  18.676  0.00  0.00    +0.000 NA
ATOM     16  H   UNL     1       2.917   0.548  18.620  0.00  0.00    +0.000 HD
BRANCH  15  20
ATOM     17  C   UNL     1       1.330   2.854  21.762  0.00  0.00    +0.000 C 
ATOM     18  C   UNL     1       2.453   2.422  20.865  0.00  0.00    +0.000 C 
ATOM     19  O   UNL     1       3.630   2.404  21.221  0.00  0.00    +0.000 OA
ATOM     20  N   UNL     1       2.018   1.997  19.617  0.00  0.00    +0.000 N 
ATOM     21  H   UNL     1       1.104   2.288  19.281  0.00  0.00    +0.000 HD
ENDBRANCH  15  20
ENDBRANCH  14  15
ENDBRANCH   8  14
ENDBRANCH   1  10
BRANCH   4  22
ATOM     22  O   UNL     1       0.916  10.663  19.770  0.00  0.00    +0.000 OA
BRANCH  22  23
ATOM     23  C   UNL     1      -0.453  10.856  19.405  0.00  0.00    +0.000 C 
BRANCH  23  24
ATOM     24  C   UNL     1      -1.172  11.746  20.433  0.00  0.00    +0.000 C 
BRANCH  24  25
ATOM     25  N   UNL     1      -0.446  11.890  21.716  0.00  0.00    +0.000 NA
ATOM     26  C   UNL     1      -1.117  11.243  22.871  0.00  0.00    +0.000 C 
ATOM     27  C   UNL     1      -2.441  11.926  23.249  0.00  0.00    +0.000 C 
ATOM     28  O   UNL     1      -2.214  13.298  23.601  0.00  0.00    +0.000 OA
ATOM     29  C   UNL     1      -1.576  14.008  22.529  0.00  0.00    +0.000 C 
ATOM     30  C   UNL     1      -0.275  13.320  22.069  0.00  0.00    +0.000 C 
ENDBRANCH  24  25
ENDBRANCH  23  24
ENDBRANCH  22  23
ENDBRANCH   4  22
TORSDOF 8
ENDMDL
MODEL 5
REMARK VINA RESULT:      -7.6      2.792      8.843
REMARK  Name = 
REMARK  9 active torsions:
REMARK  status: ('A' for Active; 'I' for Inactive)
REMARK    1  A    between atoms: C_1  and  C_2
REMARK    2  A    between atoms: N_4  and  N_5
REMARK    3  A    between atoms: N_5  and  C_6
REMARK    4  A    between atoms: C_6  and  C_7
REMARK    5  A    between atoms: N_9  and  C_10
REMARK    6  A    between atoms: C_13  and  O_14
REMARK    7  A    between atoms: O_14  and  C_15
REMARK    8  A    between atoms: C_15  and  C_16
REMARK    9  A    between atoms: C_16  and  N_17
REMARK                            x       y       z     vdW  Elec       q    Type
REMARK                         _______ _______ _______ _____ _____    ______ ____
ROOT
ATOM      1  C   UNL     1       1.137   9.845  19.399  0.00  0.00    +0.000 A 
ATOM      2  C   UNL     1       1.617   9.450  18.147  0.00  0.00    +0.000 A 
ATOM      3  C   UNL     1       2.131   8.170  17.953  0.00  0.00    +0.000 A 
ATOM      4  C   UNL     1       2.112   7.244  18.991  0.00  0.00    +0.000 A 
ATOM      5  C   UNL     1       1.613   7.640  20.238  0.00  0.00    +0.000 A 
ATOM      6  F   UNL     1       1.542   6.791  21.277  0.00  0.00    +0.000 F 
ATOM      7  C   UNL     1       1.149   8.932  20.450  0.00  0.00    +0.000 A 
ENDROOT
BRANCH   1  10
ATOM      8  C   UNL     1       0.607  13.406  19.897  0.00  0.00    +0.000 C 
ATOM      9  C   UNL     1       1.411  12.172  20.251  0.00  0.00    +0.000 C 
ATOM     10  N   UNL     1       0.664  11.153  19.594  0.00  0.00    +0.000 N 
ATOM     11  C   UNL     1      -0.596  11.605  19.290  0.00  0.00    +0.000 C 
ATOM     12  O   UNL     1      -1.540  10.973  18.806  0.00  0.00    +0.000 OA
ATOM     13  O   UNL     1      -0.719  12.912  19.655  0.00  0.00    +0.000 OA
BRANCH   8  14
ATOM     14  C   UNL     1       0.607  14.469  20.998  0.00  0.00    +0.000 C 
BRANCH  14  15
ATOM     15  N   UNL     1       0.445  13.840  22.318  0.00  0.00    +0.000 NA
ATOM     16  H   UNL     1       0.956  12.951  22.374  0.00  0.00    +0.000 HD
BRANCH  15  20
ATOM     17  C   UNL     1      -2.727  12.124  23.253  0.00  0.00    +0.000 C 
ATOM     18  C   UNL     1      -1.259  12.276  22.981  0.00  0.00    +0.000 C 
ATOM     19  O   UNL     1      -0.461  11.343  23.049  0.00  0.00    +0.000 OA
ATOM     20  N   UNL     1      -0.909  13.563  22.595  0.00  0.00    +0.000 N 
ATOM     21  H   UNL     1      -1.527  14.338  22.822  0.00  0.00    +0.000 HD
ENDBRANCH  15  20
ENDBRANCH  14  15
ENDBRANCH   8  14
ENDBRANCH   1  10
BRANCH   4  22
ATOM     22  O   UNL     1       2.607   6.008  18.655  0.00  0.00    +0.000 OA
BRANCH  22  23
ATOM     23  C   UNL     1       3.930   5.753  19.135  0.00  0.00    +0.000 C 
BRANCH  23  24
ATOM     24  C   UNL     1       4.704   4.856  18.154  0.00  0.00    +0.000 C 
BRANCH  24  25
ATOM     25  N   UNL     1       4.771   5.392  16.775  0.00  0.00    +0.000 NA
ATOM     26  C   UNL     1       5.571   4.564  15.839  0.00  0.00    +0.000 C 
ATOM     27  C   UNL     1       7.069   4.557  16.182  0.00  0.00    +0.000 C 
ATOM     28  O   UNL     1       7.600   5.888  16.134  0.00  0.00    +0.000 OA
ATOM     29  C   UNL     1       6.889   6.760  17.026  0.00  0.00    +0.000 C 
ATOM     30  C   UNL     1       5.370   6.748  16.763  0.00  0.00    +0.000 C 
ENDBRANCH  24  25
ENDBRANCH  23  24
ENDBRANCH  22  23
ENDBRANCH   4  22
TORSDOF 8
ENDMDL
MODEL 6
REMARK VINA RESULT:      -7.6      3.508      4.984
REMARK  Name = 
REMARK  9 active torsions:
REMARK  status: ('A' for Active; 'I' for Inactive)
REMARK    1  A    between atoms: C_1  and  C_2
REMARK    2  A    between atoms: N_4  and  N_5
REMARK    3  A    between atoms: N_5  and  C_6
REMARK    4  A    between atoms: C_6  and  C_7
REMARK    5  A    between atoms: N_9  and  C_10
REMARK    6  A    between atoms: C_13  and  O_14
REMARK    7  A    between atoms: O_14  and  C_15
REMARK    8  A    between atoms: C_15  and  C_16
REMARK    9  A    between atoms: C_16  and  N_17
REMARK                            x       y       z     vdW  Elec       q    Type
REMARK                         _______ _______ _______ _____ _____    ______ ____
ROOT
ATOM      1  C   UNL     1       4.425   5.890  18.068  0.00  0.00    +0.000 A 
ATOM      2  C   UNL     1       3.716   7.078  17.861  0.00  0.00    +0.000 A 
ATOM      3  C   UNL     1       2.647   7.421  18.685  0.00  0.00    +0.000 A 
ATOM      4  C   UNL     1       2.311   6.614  19.768  0.00  0.00    +0.000 A 
ATOM      5  C   UNL     1       3.037   5.435  19.981  0.00  0.00    +0.000 A 
ATOM      6  F   UNL     1       2.784   4.622  21.020  0.00  0.00    +0.000 F 
ATOM      7  C   UNL     1       4.070   5.063  19.130  0.00  0.00    +0.000 A 
ENDROOT
BRANCH   1  10
ATOM      8  C   UNL     1       6.887   5.503  15.422  0.00  0.00    +0.000 C 
ATOM      9  C   UNL     1       5.439   5.750  15.795  0.00  0.00    +0.000 C 
ATOM     10  N   UNL     1       5.471   5.534  17.202  0.00  0.00    +0.000 N 
ATOM     11  C   UNL     1       6.603   4.841  17.553  0.00  0.00    +0.000 C 
ATOM     12  O   UNL     1       6.917   4.399  18.662  0.00  0.00    +0.000 OA
ATOM     13  O   UNL     1       7.377   4.631  16.450  0.00  0.00    +0.000 OA
BRANCH   8  14
ATOM     14  C   UNL     1       7.060   4.876  14.037  0.00  0.00    +0.000 C 
BRANCH  14  15
ATOM     15  N   UNL     1       5.905   4.025  13.712  0.00  0.00    +0.000 NA
ATOM     16  H   UNL     1       5.460   3.657  14.561  0.00  0.00    +0.000 HD
BRANCH  15  20
ATOM     17  C   UNL     1       6.028   1.402  11.068  0.00  0.00    +0.000 C 
ATOM     18  C   UNL     1       5.507   2.592  11.821  0.00  0.00    +0.000 C 
ATOM     19  O   UNL     1       4.473   3.183  11.514  0.00  0.00    +0.000 OA
ATOM     20  N   UNL     1       6.284   2.919  12.924  0.00  0.00    +0.000 N 
ATOM     21  H   UNL     1       7.246   2.596  12.971  0.00  0.00    +0.000 HD
ENDBRANCH  15  20
ENDBRANCH  14  15
ENDBRANCH   8  14
ENDBRANCH   1  10
BRANCH   4  22
ATOM     22  O   UNL     1       1.267   7.087  20.524  0.00  0.00    +0.000 OA
BRANCH  22  23
ATOM     23  C   UNL     1       1.411   8.448  20.941  0.00  0.00    +0.000 C 
BRANCH  23  24
ATOM     24  C   UNL     1       0.105   9.229  20.716  0.00  0.00    +0.000 C 
BRANCH  24  25
ATOM     25  N   UNL     1       0.068   9.985  19.442  0.00  0.00    +0.000 NA
ATOM     26  C   UNL     1       1.179  10.954  19.278  0.00  0.00    +0.000 C 
ATOM     27  C   UNL     1       1.101  12.124  20.270  0.00  0.00    +0.000 C 
ATOM     28  O   UNL     1      -0.125  12.847  20.096  0.00  0.00    +0.000 OA
ATOM     29  C   UNL     1      -1.261  11.984  20.254  0.00  0.00    +0.000 C 
ATOM     30  C   UNL     1      -1.193  10.757  19.323  0.00  0.00    +0.000 C 
ENDBRANCH  24  25
ENDBRANCH  23  24
ENDBRANCH  22  23
ENDBRANCH   4  22
TORSDOF 8
ENDMDL
MODEL 7
REMARK VINA RESULT:      -7.5      1.746      2.082
REMARK  Name = 
REMARK  9 active torsions:
REMARK  status: ('A' for Active; 'I' for Inactive)
REMARK    1  A    between atoms: C_1  and  C_2
REMARK    2  A    between atoms: N_4  and  N_5
REMARK    3  A    between atoms: N_5  and  C_6
REMARK    4  A    between atoms: C_6  and  C_7
REMARK    5  A    between atoms: N_9  and  C_10
REMARK    6  A    between atoms: C_13  and  O_14
REMARK    7  A    between atoms: O_14  and  C_15
REMARK    8  A    between atoms: C_15  and  C_16
REMARK    9  A    between atoms: C_16  and  N_17
REMARK                            x       y       z     vdW  Elec       q    Type
REMARK                         _______ _______ _______ _____ _____    ______ ____
ROOT
ATOM      1  C   UNL     1       2.236   7.096  19.448  0.00  0.00    +0.000 A 
ATOM      2  C   UNL     1       2.182   7.900  18.305  0.00  0.00    +0.000 A 
ATOM      3  C   UNL     1       1.528   9.129  18.330  0.00  0.00    +0.000 A 
ATOM      4  C   UNL     1       0.974   9.603  19.516  0.00  0.00    +0.000 A 
ATOM      5  C   UNL     1       1.047   8.801  20.662  0.00  0.00    +0.000 A 
ATOM      6  F   UNL     1       0.557   9.206  21.846  0.00  0.00    +0.000 F 
ATOM      7  C   UNL     1       1.653   7.551  20.628  0.00  0.00    +0.000 A 
ENDROOT
BRANCH   1  10
ATOM      8  C   UNL     1       4.449   4.213  19.440  0.00  0.00    +0.000 C 
ATOM      9  C   UNL     1       4.216   5.646  19.009  0.00  0.00    +0.000 C 
ATOM     10  N   UNL     1       2.860   5.839  19.397  0.00  0.00    +0.000 N 
ATOM     11  C   UNL     1       2.244   4.628  19.598  0.00  0.00    +0.000 C 
ATOM     12  O   UNL     1       1.056   4.406  19.850  0.00  0.00    +0.000 OA
ATOM     13  O   UNL     1       3.143   3.618  19.426  0.00  0.00    +0.000 OA
BRANCH   8  14
ATOM     14  C   UNL     1       5.412   3.451  18.526  0.00  0.00    +0.000 C 
BRANCH  14  15
ATOM     15  N   UNL     1       6.019   4.365  17.546  0.00  0.00    +0.000 NA
ATOM     16  H   UNL     1       5.606   5.303  17.603  0.00  0.00    +0.000 HD
BRANCH  15  20
ATOM     17  C   UNL     1       6.289   3.896  13.860  0.00  0.00    +0.000 C 
ATOM     18  C   UNL     1       6.579   4.485  15.209  0.00  0.00    +0.000 C 
ATOM     19  O   UNL     1       7.362   5.417  15.383  0.00  0.00    +0.000 OA
ATOM     20  N   UNL     1       5.834   3.904  16.227  0.00  0.00    +0.000 N 
ATOM     21  H   UNL     1       5.429   2.983  16.086  0.00  0.00    +0.000 HD
ENDBRANCH  15  20
ENDBRANCH  14  15
ENDBRANCH   8  14
ENDBRANCH   1  10
BRANCH   4  22
ATOM     22  O   UNL     1       0.397  10.845  19.414  0.00  0.00    +0.000 OA
BRANCH  22  23
ATOM     23  C   UNL     1      -0.313  11.067  18.192  0.00  0.00    +0.000 C 
BRANCH  23  24
ATOM     24  C   UNL     1      -1.813  11.273  18.461  0.00  0.00    +0.000 C 
BRANCH  24  25
ATOM     25  N   UNL     1      -2.669  10.167  17.974  0.00  0.00    +0.000 NA
ATOM     26  C   UNL     1      -2.400   9.761  16.573  0.00  0.00    +0.000 C 
ATOM     27  C   UNL     1      -2.784  10.846  15.555  0.00  0.00    +0.000 C 
ATOM     28  O   UNL     1      -4.182  11.150  15.650  0.00  0.00    +0.000 OA
ATOM     29  C   UNL     1      -4.530  11.568  16.978  0.00  0.00    +0.000 C 
ATOM     30  C   UNL     1      -4.103  10.539  18.043  0.00  0.00    +0.000 C 
ENDBRANCH  24  25
ENDBRANCH  23  24
ENDBRANCH  22  23
ENDBRANCH   4  22
TORSDOF 8
ENDMDL
MODEL 8
REMARK VINA RESULT:      -7.5      1.908      8.839
REMARK  Name = 
REMARK  9 active torsions:
REMARK  status: ('A' for Active; 'I' for Inactive)
REMARK    1  A    between atoms: C_1  and  C_2
REMARK    2  A    between atoms: N_4  and  N_5
REMARK    3  A    between atoms: N_5  and  C_6
REMARK    4  A    between atoms: C_6  and  C_7
REMARK    5  A    between atoms: N_9  and  C_10
REMARK    6  A    between atoms: C_13  and  O_14
REMARK    7  A    between atoms: O_14  and  C_15
REMARK    8  A    between atoms: C_15  and  C_16
REMARK    9  A    between atoms: C_16  and  N_17
REMARK                            x       y       z     vdW  Elec       q    Type
REMARK                         _______ _______ _______ _____ _____    ______ ____
ROOT
ATOM      1  C   UNL     1       1.232   9.373  19.274  0.00  0.00    +0.000 A 
ATOM      2  C   UNL     1       1.896   8.950  18.119  0.00  0.00    +0.000 A 
ATOM      3  C   UNL     1       2.557   7.724  18.088  0.00  0.00    +0.000 A 
ATOM      4  C   UNL     1       2.508   6.874  19.189  0.00  0.00    +0.000 A 
ATOM      5  C   UNL     1       1.824   7.297  20.337  0.00  0.00    +0.000 A 
ATOM      6  F   UNL     1       1.714   6.518  21.426  0.00  0.00    +0.000 F 
ATOM      7  C   UNL     1       1.209   8.541  20.390  0.00  0.00    +0.000 A 
ENDROOT
BRANCH   1  10
ATOM      8  C   UNL     1      -0.751  12.353  19.906  0.00  0.00    +0.000 C 
ATOM      9  C   UNL     1      -0.716  10.844  19.786  0.00  0.00    +0.000 C 
ATOM     10  N   UNL     1       0.609  10.632  19.307  0.00  0.00    +0.000 N 
ATOM     11  C   UNL     1       1.123  11.797  18.794  0.00  0.00    +0.000 C 
ATOM     12  O   UNL     1       2.198  11.968  18.213  0.00  0.00    +0.000 OA
ATOM     13  O   UNL     1       0.227  12.810  18.962  0.00  0.00    +0.000 OA
BRANCH   8  14
ATOM     14  C   UNL     1      -2.127  12.955  19.610  0.00  0.00    +0.000 C 
BRANCH  14  15
ATOM     15  N   UNL     1      -2.999  11.953  18.976  0.00  0.00    +0.000 NA
ATOM     16  H   UNL     1      -2.804  11.010  19.330  0.00  0.00    +0.000 HD
BRANCH  15  20
ATOM     17  C   UNL     1      -2.827  10.840  15.424  0.00  0.00    +0.000 C 
ATOM     18  C   UNL     1      -3.047  10.730  16.905  0.00  0.00    +0.000 C 
ATOM     19  O   UNL     1      -3.353   9.678  17.464  0.00  0.00    +0.000 OA
ATOM     20  N   UNL     1      -2.819  11.922  17.578  0.00  0.00    +0.000 N 
ATOM     21  H   UNL     1      -2.847  12.799  17.065  0.00  0.00    +0.000 HD
ENDBRANCH  15  20
ENDBRANCH  14  15
ENDBRANCH   8  14
ENDBRANCH   1  10
BRANCH   4  22
ATOM     22  O   UNL     1       3.162   5.680  19.012  0.00  0.00    +0.000 OA
BRANCH  22  23
ATOM     23  C   UNL     1       2.953   5.076  17.733  0.00  0.00    +0.000 C 
BRANCH  23  24
ATOM     24  C   UNL     1       4.282   4.586  17.136  0.00  0.00    +0.000 C 
BRANCH  24  25
ATOM     25  N   UNL     1       5.148   5.672  16.621  0.00  0.00    +0.000 NA
ATOM     26  C   UNL     1       5.667   5.438  15.251  0.00  0.00    +0.000 C 
ATOM     27  C   UNL     1       6.659   4.267  15.181  0.00  0.00    +0.000 C 
ATOM     28  O   UNL     1       7.789   4.517  16.028  0.00  0.00    +0.000 OA
ATOM     29  C   UNL     1       7.378   4.742  17.385  0.00  0.00    +0.000 C 
ATOM     30  C   UNL     1       6.329   5.866  17.497  0.00  0.00    +0.000 C 
ENDBRANCH  24  25
ENDBRANCH  23  24
ENDBRANCH  22  23
ENDBRANCH   4  22
TORSDOF 8
ENDMDL
MODEL 9
REMARK VINA RESULT:      -7.5      2.926      3.978
REMARK  Name = 
REMARK  9 active torsions:
REMARK  status: ('A' for Active; 'I' for Inactive)
REMARK    1  A    between atoms: C_1  and  C_2
REMARK    2  A    between atoms: N_4  and  N_5
REMARK    3  A    between atoms: N_5  and  C_6
REMARK    4  A    between atoms: C_6  and  C_7
REMARK    5  A    between atoms: N_9  and  C_10
REMARK    6  A    between atoms: C_13  and  O_14
REMARK    7  A    between atoms: O_14  and  C_15
REMARK    8  A    between atoms: C_15  and  C_16
REMARK    9  A    between atoms: C_16  and  N_17
REMARK                            x       y       z     vdW  Elec       q    Type
REMARK                         _______ _______ _______ _____ _____    ______ ____
ROOT
ATOM      1  C   UNL     1       3.195   6.789  18.575  0.00  0.00    +0.000 A 
ATOM      2  C   UNL     1       2.569   6.654  19.818  0.00  0.00    +0.000 A 
ATOM      3  C   UNL     1       1.682   7.624  20.277  0.00  0.00    +0.000 A 
ATOM      4  C   UNL     1       1.356   8.712  19.472  0.00  0.00    +0.000 A 
ATOM      5  C   UNL     1       1.973   8.832  18.220  0.00  0.00    +0.000 A 
ATOM      6  F   UNL     1       1.687   9.842  17.381  0.00  0.00    +0.000 F 
ATOM      7  C   UNL     1       2.899   7.894  17.781  0.00  0.00    +0.000 A 
ENDROOT
BRANCH   1  10
ATOM      8  C   UNL     1       6.061   4.672  17.856  0.00  0.00    +0.000 C 
ATOM      9  C   UNL     1       5.520   6.077  18.022  0.00  0.00    +0.000 C 
ATOM     10  N   UNL     1       4.123   5.827  18.144  0.00  0.00    +0.000 N 
ATOM     11  C   UNL     1       3.821   4.571  17.680  0.00  0.00    +0.000 C 
ATOM     12  O   UNL     1       2.709   4.051  17.547  0.00  0.00    +0.000 OA
ATOM     13  O   UNL     1       4.964   3.929  17.306  0.00  0.00    +0.000 OA
BRANCH   8  14
ATOM     14  C   UNL     1       7.289   4.596  16.946  0.00  0.00    +0.000 C 
BRANCH  14  15
ATOM     15  N   UNL     1       7.202   5.610  15.882  0.00  0.00    +0.000 NA
ATOM     16  H   UNL     1       6.261   6.015  15.828  0.00  0.00    +0.000 HD
BRANCH  15  20
ATOM     17  C   UNL     1       6.908   3.951  12.559  0.00  0.00    +0.000 C 
ATOM     18  C   UNL     1       6.460   4.491  13.886  0.00  0.00    +0.000 C 
ATOM     19  O   UNL     1       5.304   4.398  14.295  0.00  0.00    +0.000 OA
ATOM     20  N   UNL     1       7.494   5.058  14.618  0.00  0.00    +0.000 N 
ATOM     21  H   UNL     1       8.339   5.359  14.140  0.00  0.00    +0.000 HD
ENDBRANCH  15  20
ENDBRANCH  14  15
ENDBRANCH   8  14
ENDBRANCH   1  10
BRANCH   4  22
ATOM     22  O   UNL     1       0.438   9.570  20.024  0.00  0.00    +0.000 OA
BRANCH  22  23
ATOM     23  C   UNL     1       0.965  10.419  21.047  0.00  0.00    +0.000 C 
BRANCH  23  24
ATOM     24  C   UNL     1       0.574  11.885  20.796  0.00  0.00    +0.000 C 
BRANCH  24  25
ATOM     25  N   UNL     1       0.213  12.179  19.389  0.00  0.00    +0.000 NA
ATOM     26  C   UNL     1       1.288  12.843  18.612  0.00  0.00    +0.000 C 
ATOM     27  C   UNL     1       1.582  14.269  19.102  0.00  0.00    +0.000 C 
ATOM     28  O   UNL     1       0.410  15.088  18.995  0.00  0.00    +0.000 OA
ATOM     29  C   UNL     1      -0.684  14.524  19.734  0.00  0.00    +0.000 C 
ATOM     30  C   UNL     1      -0.973  13.066  19.322  0.00  0.00    +0.000 C 
ENDBRANCH  24  25
ENDBRANCH  23  24
ENDBRANCH  22  23
ENDBRANCH   4  22
TORSDOF 8
ENDMDL
