MODEL 1
REMARK VINA RESULT:      -9.0      0.000      0.000
REMARK  Name = 
REMARK  8 active torsions:
REMARK  status: ('A' for Active; 'I' for Inactive)
REMARK    1  A    between atoms: C_1  and  C_2
REMARK    2  A    between atoms: C_2  and  C_3
REMARK    3  A    between atoms: C_2  and  N_11
REMARK    4  A    between atoms: N_5  and  C_6
REMARK    5  A    between atoms: N_11  and  C_28
REMARK    6  A    between atoms: C_12  and  C_14
REMARK    7  A    between atoms: C_14  and  N_15
REMARK    8  A    between atoms: C_18  and  C_19
REMARK                            x       y       z     vdW  Elec       q    Type
REMARK                         _______ _______ _______ _____ _____    ______ ____
ROOT
ATOM      1  N   UNL     1       4.867   5.296  18.145  0.00  0.00    +0.000 N 
ATOM      2  C   UNL     1       3.958   6.347  17.947  0.00  0.00    +0.000 C 
ATOM      3  O   UNL     1       4.338   7.468  17.587  0.00  0.00    +0.000 OA
ENDROOT
BRANCH   1   4
ATOM      4  C   UNL     1       4.442   3.862  18.172  0.00  0.00    +0.000 C 
ATOM      5  C   UNL     1       4.188   3.316  19.590  0.00  0.00    +0.000 C 
ATOM      6  C   UNL     1       2.800   3.626  20.133  0.00  0.00    +0.000 C 
ATOM      7  C   UNL     1       1.679   3.242  19.177  0.00  0.00    +0.000 C 
ATOM      8  C   UNL     1       1.892   3.680  17.728  0.00  0.00    +0.000 C 
ATOM      9  C   UNL     1       3.309   3.454  17.214  0.00  0.00    +0.000 C 
ENDBRANCH   1   4
BRANCH   1  11
ATOM     10  C   UNL     1       7.174   5.579  19.196  0.00  0.00    +0.000 C 
ATOM     11  C   UNL     1       6.309   5.612  17.929  0.00  0.00    +0.000 C 
BRANCH  11  12
ATOM     12  C   UNL     1       6.967   4.821  16.770  0.00  0.00    +0.000 C 
ATOM     13  O   UNL     1       8.005   4.182  16.926  0.00  0.00    +0.000 OA
ATOM     14  N   UNL     1       6.313   4.913  15.563  0.00  0.00    +0.000 N 
ATOM     15  H   UNL     1       5.724   5.741  15.449  0.00  0.00    +0.000 HD
BRANCH  14  16
ATOM     16  C   UNL     1       6.783   4.258  14.372  0.00  0.00    +0.000 C 
ATOM     17  C   UNL     1       5.641   3.672  13.553  0.00  0.00    +0.000 C 
ATOM     18  C   UNL     1       6.276   3.429  12.191  0.00  0.00    +0.000 C 
ATOM     19  C   UNL     1       7.361   4.498  12.045  0.00  0.00    +0.000 C 
ATOM     20  C   UNL     1       7.445   5.216  13.389  0.00  0.00    +0.000 C 
ENDBRANCH  14  16
ENDBRANCH  11  12
ENDBRANCH   1  11
BRANCH   2  21
ATOM     21  C   UNL     1       2.494   6.165  18.290  0.00  0.00    +0.000 C 
BRANCH  21  22
ATOM     22  N   UNL     1       2.006   7.221  19.137  0.00  0.00    +0.000 N 
ATOM     23  N   UNL     1       1.844   7.075  20.461  0.00  0.00    +0.000 NA
ATOM     24  N   UNL     1       1.433   8.260  20.883  0.00  0.00    +0.000 NA
ATOM     25  C   UNL     1       1.334   9.069  19.775  0.00  0.00    +0.000 A 
ATOM     26  N   UNL     1       1.661   8.428  18.642  0.00  0.00    +0.000 NA
BRANCH  25  27
ATOM     27  C   UNL     1       0.954  10.473  19.848  0.00  0.00    +0.000 A 
ATOM     28  C   UNL     1       1.156  11.316  18.746  0.00  0.00    +0.000 A 
ATOM     29  C   UNL     1       0.778  12.660  18.802  0.00  0.00    +0.000 A 
ATOM     30  C   UNL     1       0.197  13.181  19.960  0.00  0.00    +0.000 A 
ATOM     31 CL   UNL     1      -0.242  14.850  19.960  0.00  0.00    +0.000 Cl
ATOM     32  C   UNL     1      -0.007  12.348  21.067  0.00  0.00    +0.000 A 
ATOM     33 CL   UNL     1      -0.723  12.919  22.533  0.00  0.00    +0.000 Cl
ATOM     34  C   UNL     1       0.367  11.002  21.007  0.00  0.00    +0.000 A 
ENDBRANCH  25  27
ENDBRANCH  21  22
ENDBRANCH   2  21
TORSDOF 7
ENDMDL
MODEL 2
REMARK VINA RESULT:      -8.9      1.097      1.450
REMARK  Name = 
REMARK  8 active torsions:
REMARK  status: ('A' for Active; 'I' for Inactive)
REMARK    1  A    between atoms: C_1  and  C_2
REMARK    2  A    between atoms: C_2  and  C_3
REMARK    3  A    between atoms: C_2  and  N_11
REMARK    4  A    between atoms: N_5  and  C_6
REMARK    5  A    between atoms: N_11  and  C_28
REMARK    6  A    between atoms: C_12  and  C_14
REMARK    7  A    between atoms: C_14  and  N_15
REMARK    8  A    between atoms: C_18  and  C_19
REMARK                            x       y       z     vdW  Elec       q    Type
REMARK                         _______ _______ _______ _____ _____    ______ ____
ROOT
ATOM      1  N   UNL     1       5.113   5.542  18.314  0.00  0.00    +0.000 N 
ATOM      2  C   UNL     1       4.283   6.514  17.732  0.00  0.00    +0.000 C 
ATOM      3  O   UNL     1       4.751   7.439  17.056  0.00  0.00    +0.000 OA
ENDROOT
BRANCH   1   4
ATOM      4  C   UNL     1       4.595   4.215  18.773  0.00  0.00    +0.000 C 
ATOM      5  C   UNL     1       3.651   4.304  19.986  0.00  0.00    +0.000 C 
ATOM      6  C   UNL     1       2.207   4.622  19.625  0.00  0.00    +0.000 C 
ATOM      7  C   UNL     1       1.642   3.712  18.542  0.00  0.00    +0.000 C 
ATOM      8  C   UNL     1       2.555   3.509  17.333  0.00  0.00    +0.000 C 
ATOM      9  C   UNL     1       4.019   3.283  17.693  0.00  0.00    +0.000 C 
ENDBRANCH   1   4
BRANCH   1  11
ATOM     10  C   UNL     1       7.437   5.556  19.364  0.00  0.00    +0.000 C 
ATOM     11  C   UNL     1       6.580   5.704  18.100  0.00  0.00    +0.000 C 
BRANCH  11  12
ATOM     12  C   UNL     1       7.148   4.865  16.927  0.00  0.00    +0.000 C 
ATOM     13  O   UNL     1       8.131   4.139  17.062  0.00  0.00    +0.000 OA
ATOM     14  N   UNL     1       6.484   5.018  15.732  0.00  0.00    +0.000 N 
ATOM     15  H   UNL     1       5.965   5.894  15.631  0.00  0.00    +0.000 HD
BRANCH  14  16
ATOM     16  C   UNL     1       6.875   4.331  14.530  0.00  0.00    +0.000 C 
ATOM     17  C   UNL     1       5.674   3.817  13.748  0.00  0.00    +0.000 C 
ATOM     18  C   UNL     1       6.252   3.530  12.370  0.00  0.00    +0.000 C 
ATOM     19  C   UNL     1       7.398   4.526  12.186  0.00  0.00    +0.000 C 
ATOM     20  C   UNL     1       7.568   5.242  13.523  0.00  0.00    +0.000 C 
ENDBRANCH  14  16
ENDBRANCH  11  12
ENDBRANCH   1  11
BRANCH   2  21
ATOM     21  C   UNL     1       2.797   6.521  18.022  0.00  0.00    +0.000 C 
BRANCH  21  22
ATOM     22  N   UNL     1       2.279   7.859  18.141  0.00  0.00    +0.000 N 
ATOM     23  N   UNL     1       2.526   8.817  17.236  0.00  0.00    +0.000 NA
ATOM     24  N   UNL     1       1.849   9.870  17.666  0.00  0.00    +0.000 NA
ATOM     25  C   UNL     1       1.241   9.503  18.844  0.00  0.00    +0.000 A 
ATOM     26  N   UNL     1       1.522   8.237  19.192  0.00  0.00    +0.000 NA
BRANCH  25  27
ATOM     27  C   UNL     1       0.363  10.389  19.595  0.00  0.00    +0.000 A 
ATOM     28  C   UNL     1      -0.223  11.497  18.969  0.00  0.00    +0.000 A 
ATOM     29  C   UNL     1      -1.081  12.342  19.678  0.00  0.00    +0.000 A 
ATOM     30  C   UNL     1      -1.362  12.093  21.023  0.00  0.00    +0.000 A 
ATOM     31 CL   UNL     1      -2.428  13.179  21.837  0.00  0.00    +0.000 Cl
ATOM     32  C   UNL     1      -0.780  10.989  21.658  0.00  0.00    +0.000 A 
ATOM     33 CL   UNL     1      -1.083  10.614  23.318  0.00  0.00    +0.000 Cl
ATOM     34  C   UNL     1       0.074  10.142  20.946  0.00  0.00    +0.000 A 
ENDBRANCH  25  27
ENDBRANCH  21  22
ENDBRANCH   2  21
TORSDOF 7
ENDMDL
MODEL 3
REMARK VINA RESULT:      -8.8      1.141      1.603
REMARK  Name = 
REMARK  8 active torsions:
REMARK  status: ('A' for Active; 'I' for Inactive)
REMARK    1  A    between atoms: C_1  and  C_2
REMARK    2  A    between atoms: C_2  and  C_3
REMARK    3  A    between atoms: C_2  and  N_11
REMARK    4  A    between atoms: N_5  and  C_6
REMARK    5  A    between atoms: N_11  and  C_28
REMARK    6  A    between atoms: C_12  and  C_14
REMARK    7  A    between atoms: C_14  and  N_15
REMARK    8  A    between atoms: C_18  and  C_19
REMARK                            x       y       z     vdW  Elec       q    Type
REMARK                         _______ _______ _______ _____ _____    ______ ____
ROOT
ATOM      1  N   UNL     1       5.013   5.549  18.226  0.00  0.00    +0.000 N 
ATOM      2  C   UNL     1       4.226   6.687  17.987  0.00  0.00    +0.000 C 
ATOM      3  O   UNL     1       4.729   7.750  17.601  0.00  0.00    +0.000 OA
ENDROOT
BRANCH   1   4
ATOM      4  C   UNL     1       4.433   4.172  18.287  0.00  0.00    +0.000 C 
ATOM      5  C   UNL     1       4.052   3.721  19.709  0.00  0.00    +0.000 C 
ATOM      6  C   UNL     1       2.681   4.202  20.164  0.00  0.00    +0.000 C 
ATOM      7  C   UNL     1       1.574   3.896  19.164  0.00  0.00    +0.000 C 
ATOM      8  C   UNL     1       1.904   4.242  17.713  0.00  0.00    +0.000 C 
ATOM      9  C   UNL     1       3.312   3.844  17.286  0.00  0.00    +0.000 C 
ENDBRANCH   1   4
BRANCH   1  11
ATOM     10  C   UNL     1       7.331   5.565  19.291  0.00  0.00    +0.000 C 
ATOM     11  C   UNL     1       6.482   5.701  18.019  0.00  0.00    +0.000 C 
BRANCH  11  12
ATOM     12  C   UNL     1       7.054   4.844  16.860  0.00  0.00    +0.000 C 
ATOM     13  O   UNL     1       8.020   4.100  17.016  0.00  0.00    +0.000 OA
ATOM     14  N   UNL     1       6.412   5.004  15.654  0.00  0.00    +0.000 N 
ATOM     15  H   UNL     1       5.913   5.888  15.539  0.00  0.00    +0.000 HD
BRANCH  14  16
ATOM     16  C   UNL     1       6.810   4.302  14.462  0.00  0.00    +0.000 C 
ATOM     17  C   UNL     1       5.613   3.816  13.657  0.00  0.00    +0.000 C 
ATOM     18  C   UNL     1       6.211   3.509  12.292  0.00  0.00    +0.000 C 
ATOM     19  C   UNL     1       7.386   4.475  12.129  0.00  0.00    +0.000 C 
ATOM     20  C   UNL     1       7.547   5.190  13.467  0.00  0.00    +0.000 C 
ENDBRANCH  14  16
ENDBRANCH  11  12
ENDBRANCH   1  11
BRANCH   2  21
ATOM     21  C   UNL     1       2.748   6.675  18.317  0.00  0.00    +0.000 C 
BRANCH  21  22
ATOM     22  N   UNL     1       2.188   8.002  18.325  0.00  0.00    +0.000 N 
ATOM     23  N   UNL     1       2.297   8.842  17.285  0.00  0.00    +0.000 NA
ATOM     24  N   UNL     1       1.624   9.921  17.652  0.00  0.00    +0.000 NA
ATOM     25  C   UNL     1       1.160   9.691  18.926  0.00  0.00    +0.000 A 
ATOM     26  N   UNL     1       1.529   8.489  19.397  0.00  0.00    +0.000 NA
BRANCH  25  27
ATOM     27  C   UNL     1       0.327  10.640  19.652  0.00  0.00    +0.000 A 
ATOM     28  C   UNL     1       0.847  11.338  20.749  0.00  0.00    +0.000 A 
ATOM     29  C   UNL     1       0.060  12.264  21.440  0.00  0.00    +0.000 A 
ATOM     30  C   UNL     1      -1.258  12.500  21.045  0.00  0.00    +0.000 A 
ATOM     31 CL   UNL     1      -2.173  13.654  21.946  0.00  0.00    +0.000 Cl
ATOM     32  C   UNL     1      -1.788  11.806  19.951  0.00  0.00    +0.000 A 
ATOM     33 CL   UNL     1      -3.409  12.049  19.401  0.00  0.00    +0.000 Cl
ATOM     34  C   UNL     1      -0.998  10.885  19.258  0.00  0.00    +0.000 A 
ENDBRANCH  25  27
ENDBRANCH  21  22
ENDBRANCH   2  21
TORSDOF 7
ENDMDL
MODEL 4
REMARK VINA RESULT:      -8.8      0.919      1.757
REMARK  Name = 
REMARK  8 active torsions:
REMARK  status: ('A' for Active; 'I' for Inactive)
REMARK    1  A    between atoms: C_1  and  C_2
REMARK    2  A    between atoms: C_2  and  C_3
REMARK    3  A    between atoms: C_2  and  N_11
REMARK    4  A    between atoms: N_5  and  C_6
REMARK    5  A    between atoms: N_11  and  C_28
REMARK    6  A    between atoms: C_12  and  C_14
REMARK    7  A    between atoms: C_14  and  N_15
REMARK    8  A    between atoms: C_18  and  C_19
REMARK                            x       y       z     vdW  Elec       q    Type
REMARK                         _______ _______ _______ _____ _____    ______ ____
ROOT
ATOM      1  N   UNL     1       5.059   5.690  18.474  0.00  0.00    +0.000 N 
ATOM      2  C   UNL     1       4.168   6.470  17.718  0.00  0.00    +0.000 C 
ATOM      3  O   UNL     1       4.570   7.218  16.818  0.00  0.00    +0.000 OA
ENDROOT
BRANCH   1   4
ATOM      4  C   UNL     1       4.612   4.499  19.261  0.00  0.00    +0.000 C 
ATOM      5  C   UNL     1       3.216   4.658  19.891  0.00  0.00    +0.000 C 
ATOM      6  C   UNL     1       2.070   4.328  18.945  0.00  0.00    +0.000 C 
ATOM      7  C   UNL     1       2.223   2.977  18.260  0.00  0.00    +0.000 C 
ATOM      8  C   UNL     1       3.609   2.706  17.675  0.00  0.00    +0.000 C 
ATOM      9  C   UNL     1       4.758   3.124  18.586  0.00  0.00    +0.000 C 
ENDBRANCH   1   4
BRANCH   1  11
ATOM     10  C   UNL     1       7.447   5.768  19.367  0.00  0.00    +0.000 C 
ATOM     11  C   UNL     1       6.508   5.837  18.154  0.00  0.00    +0.000 C 
BRANCH  11  12
ATOM     12  C   UNL     1       7.001   4.926  17.001  0.00  0.00    +0.000 C 
ATOM     13  O   UNL     1       8.018   4.244  17.100  0.00  0.00    +0.000 OA
ATOM     14  N   UNL     1       6.227   4.964  15.864  0.00  0.00    +0.000 N 
ATOM     15  H   UNL     1       5.669   5.812  15.745  0.00  0.00    +0.000 HD
BRANCH  14  16
ATOM     16  C   UNL     1       6.536   4.196  14.687  0.00  0.00    +0.000 C 
ATOM     17  C   UNL     1       5.294   3.888  13.863  0.00  0.00    +0.000 C 
ATOM     18  C   UNL     1       5.863   3.479  12.512  0.00  0.00    +0.000 C 
ATOM     19  C   UNL     1       7.174   4.253  12.364  0.00  0.00    +0.000 C 
ATOM     20  C   UNL     1       7.417   4.952  13.699  0.00  0.00    +0.000 C 
ENDBRANCH  14  16
ENDBRANCH  11  12
ENDBRANCH   1  11
BRANCH   2  21
ATOM     21  C   UNL     1       2.696   6.504  18.071  0.00  0.00    +0.000 C 
BRANCH  21  22
ATOM     22  N   UNL     1       2.237   7.844  18.330  0.00  0.00    +0.000 N 
ATOM     23  N   UNL     1       2.263   8.813  17.403  0.00  0.00    +0.000 NA
ATOM     24  N   UNL     1       1.723   9.864  17.998  0.00  0.00    +0.000 NA
ATOM     25  C   UNL     1       1.419   9.485  19.285  0.00  0.00    +0.000 A 
ATOM     26  N   UNL     1       1.764   8.212  19.539  0.00  0.00    +0.000 NA
BRANCH  25  27
ATOM     27  C   UNL     1       0.760  10.367  20.238  0.00  0.00    +0.000 A 
ATOM     28  C   UNL     1      -0.122   9.841  21.191  0.00  0.00    +0.000 A 
ATOM     29  C   UNL     1      -0.745  10.678  22.121  0.00  0.00    +0.000 A 
ATOM     30  C   UNL     1      -0.496  12.052  22.108  0.00  0.00    +0.000 A 
ATOM     31 CL   UNL     1      -1.302  13.026  23.284  0.00  0.00    +0.000 Cl
ATOM     32  C   UNL     1       0.383  12.588  21.160  0.00  0.00    +0.000 A 
ATOM     33 CL   UNL     1       0.742  14.277  21.085  0.00  0.00    +0.000 Cl
ATOM     34  C   UNL     1       1.008  11.748  20.233  0.00  0.00    +0.000 A 
ENDBRANCH  25  27
ENDBRANCH  21  22
ENDBRANCH   2  21
TORSDOF 7
ENDMDL
MODEL 5
REMARK VINA RESULT:      -8.7      4.637      9.869
REMARK  Name = 
REMARK  8 active torsions:
REMARK  status: ('A' for Active; 'I' for Inactive)
REMARK    1  A    between atoms: C_1  and  C_2
REMARK    2  A    between atoms: C_2  and  C_3
REMARK    3  A    between atoms: C_2  and  N_11
REMARK    4  A    between atoms: N_5  and  C_6
REMARK    5  A    between atoms: N_11  and  C_28
REMARK    6  A    between atoms: C_12  and  C_14
REMARK    7  A    between atoms: C_14  and  N_15
REMARK    8  A    between atoms: C_18  and  C_19
REMARK                            x       y       z     vdW  Elec       q    Type
REMARK                         _______ _______ _______ _____ _____    ______ ____
ROOT
ATOM      1  N   UNL     1      -0.651  12.440  21.093  0.00  0.00    +0.000 N 
ATOM      2  C   UNL     1       0.480  11.618  21.226  0.00  0.00    +0.000 C 
ATOM      3  O   UNL     1       1.622  12.093  21.246  0.00  0.00    +0.000 OA
ENDROOT
BRANCH   1   4
ATOM      4  C   UNL     1      -2.024  11.981  21.470  0.00  0.00    +0.000 C 
ATOM      5  C   UNL     1      -2.270  11.942  22.990  0.00  0.00    +0.000 C 
ATOM      6  C   UNL     1      -2.672  13.283  23.586  0.00  0.00    +0.000 C 
ATOM      7  C   UNL     1      -3.827  13.949  22.849  0.00  0.00    +0.000 C 
ATOM      8  C   UNL     1      -3.697  13.959  21.326  0.00  0.00    +0.000 C 
ATOM      9  C   UNL     1      -3.205  12.642  20.738  0.00  0.00    +0.000 C 
ENDBRANCH   1   4
BRANCH   1  11
ATOM     10  C   UNL     1       0.341  14.551  22.124  0.00  0.00    +0.000 C 
ATOM     11  C   UNL     1      -0.399  13.902  20.946  0.00  0.00    +0.000 C 
BRANCH  11  12
ATOM     12  C   UNL     1       0.231  14.306  19.588  0.00  0.00    +0.000 C 
ATOM     13  O   UNL     1      -0.434  14.373  18.557  0.00  0.00    +0.000 OA
ATOM     14  N   UNL     1       1.583  14.557  19.631  0.00  0.00    +0.000 N 
ATOM     15  H   UNL     1       2.085  14.110  20.401  0.00  0.00    +0.000 HD
BRANCH  14  16
ATOM     16  C   UNL     1       2.341  14.932  18.467  0.00  0.00    +0.000 C 
ATOM     17  C   UNL     1       2.448  16.443  18.316  0.00  0.00    +0.000 C 
ATOM     18  C   UNL     1       3.597  16.616  17.334  0.00  0.00    +0.000 C 
ATOM     19  C   UNL     1       4.521  15.419  17.563  0.00  0.00    +0.000 C 
ATOM     20  C   UNL     1       3.800  14.497  18.543  0.00  0.00    +0.000 C 
ENDBRANCH  14  16
ENDBRANCH  11  12
ENDBRANCH   1  11
BRANCH   2  21
ATOM     21  C   UNL     1       0.333  10.111  21.226  0.00  0.00    +0.000 C 
BRANCH  21  22
ATOM     22  N   UNL     1       0.848   9.521  20.018  0.00  0.00    +0.000 N 
ATOM     23  N   UNL     1       0.685  10.080  18.810  0.00  0.00    +0.000 NA
ATOM     24  N   UNL     1       1.331   9.278  17.978  0.00  0.00    +0.000 NA
ATOM     25  C   UNL     1       1.835   8.242  18.729  0.00  0.00    +0.000 A 
ATOM     26  N   UNL     1       1.517   8.349  20.029  0.00  0.00    +0.000 NA
BRANCH  25  27
ATOM     27  C   UNL     1       2.653   7.177  18.165  0.00  0.00    +0.000 A 
ATOM     28  C   UNL     1       3.863   7.481  17.527  0.00  0.00    +0.000 A 
ATOM     29  C   UNL     1       4.664   6.463  17.000  0.00  0.00    +0.000 A 
ATOM     30  C   UNL     1       4.262   5.130  17.100  0.00  0.00    +0.000 A 
ATOM     31 CL   UNL     1       5.298   3.925  16.423  0.00  0.00    +0.000 Cl
ATOM     32  C   UNL     1       3.054   4.816  17.734  0.00  0.00    +0.000 A 
ATOM     33 CL   UNL     1       2.494   3.189  17.898  0.00  0.00    +0.000 Cl
ATOM     34  C   UNL     1       2.258   5.834  18.265  0.00  0.00    +0.000 A 
ENDBRANCH  25  27
ENDBRANCH  21  22
ENDBRANCH   2  21
TORSDOF 7
ENDMDL
MODEL 6
REMARK VINA RESULT:      -8.5      4.728     11.067
REMARK  Name = 
REMARK  8 active torsions:
REMARK  status: ('A' for Active; 'I' for Inactive)
REMARK    1  A    between atoms: C_1  and  C_2
REMARK    2  A    between atoms: C_2  and  C_3
REMARK    3  A    between atoms: C_2  and  N_11
REMARK    4  A    between atoms: N_5  and  C_6
REMARK    5  A    between atoms: N_11  and  C_28
REMARK    6  A    between atoms: C_12  and  C_14
REMARK    7  A    between atoms: C_14  and  N_15
REMARK    8  A    between atoms: C_18  and  C_19
REMARK                            x       y       z     vdW  Elec       q    Type
REMARK                         _______ _______ _______ _____ _____    ______ ____
ROOT
ATOM      1  N   UNL     1      -0.005  11.985  20.109  0.00  0.00    +0.000 N 
ATOM      2  C   UNL     1      -0.055  10.593  19.936  0.00  0.00    +0.000 C 
ATOM      3  O   UNL     1      -0.967  10.055  19.296  0.00  0.00    +0.000 OA
ENDROOT
BRANCH   1   4
ATOM      4  C   UNL     1       1.250  12.701  20.498  0.00  0.00    +0.000 C 
ATOM      5  C   UNL     1       2.250  12.875  19.340  0.00  0.00    +0.000 C 
ATOM      6  C   UNL     1       1.966  14.079  18.454  0.00  0.00    +0.000 C 
ATOM      7  C   UNL     1       1.784  15.374  19.235  0.00  0.00    +0.000 C 
ATOM      8  C   UNL     1       0.865  15.266  20.451  0.00  0.00    +0.000 C 
ATOM      9  C   UNL     1       1.087  14.012  21.287  0.00  0.00    +0.000 C 
ENDBRANCH   1   4
BRANCH   1  11
ATOM     10  C   UNL     1      -1.239  12.666  17.983  0.00  0.00    +0.000 C 
ATOM     11  C   UNL     1      -1.122  12.771  19.510  0.00  0.00    +0.000 C 
BRANCH  11  12
ATOM     12  C   UNL     1      -2.493  12.556  20.200  0.00  0.00    +0.000 C 
ATOM     13  O   UNL     1      -3.497  12.234  19.569  0.00  0.00    +0.000 OA
ATOM     14  N   UNL     1      -2.497  12.777  21.558  0.00  0.00    +0.000 N 
ATOM     15  H   UNL     1      -1.756  13.392  21.902  0.00  0.00    +0.000 HD
BRANCH  14  16
ATOM     16  C   UNL     1      -3.680  12.639  22.366  0.00  0.00    +0.000 C 
ATOM     17  C   UNL     1      -3.351  12.251  23.801  0.00  0.00    +0.000 C 
ATOM     18  C   UNL     1      -4.633  12.576  24.553  0.00  0.00    +0.000 C 
ATOM     19  C   UNL     1      -5.270  13.745  23.799  0.00  0.00    +0.000 C 
ATOM     20  C   UNL     1      -4.437  13.950  22.537  0.00  0.00    +0.000 C 
ENDBRANCH  14  16
ENDBRANCH  11  12
ENDBRANCH   1  11
BRANCH   2  21
ATOM     21  C   UNL     1       0.949   9.701  20.636  0.00  0.00    +0.000 C 
BRANCH  21  22
ATOM     22  N   UNL     1       1.537   8.743  19.736  0.00  0.00    +0.000 N 
ATOM     23  N   UNL     1       2.047   9.085  18.544  0.00  0.00    +0.000 NA
ATOM     24  N   UNL     1       2.528   7.956  18.046  0.00  0.00    +0.000 NA
ATOM     25  C   UNL     1       2.254   6.966  18.961  0.00  0.00    +0.000 A 
ATOM     26  N   UNL     1       1.594   7.428  20.035  0.00  0.00    +0.000 NA
BRANCH  25  27
ATOM     27  C   UNL     1       2.676   5.583  18.785  0.00  0.00    +0.000 A 
ATOM     28  C   UNL     1       2.179   4.582  19.630  0.00  0.00    +0.000 A 
ATOM     29  C   UNL     1       2.565   3.250  19.456  0.00  0.00    +0.000 A 
ATOM     30  C   UNL     1       3.457   2.903  18.440  0.00  0.00    +0.000 A 
ATOM     31 CL   UNL     1       3.893   1.240  18.286  0.00  0.00    +0.000 Cl
ATOM     32  C   UNL     1       3.961   3.896  17.592  0.00  0.00    +0.000 A 
ATOM     33 CL   UNL     1       5.065   3.542  16.310  0.00  0.00    +0.000 Cl
ATOM     34  C   UNL     1       3.570   5.227  17.764  0.00  0.00    +0.000 A 
ENDBRANCH  25  27
ENDBRANCH  21  22
ENDBRANCH   2  21
TORSDOF 7
ENDMDL
MODEL 7
REMARK VINA RESULT:      -8.3      1.742      2.422
REMARK  Name = 
REMARK  8 active torsions:
REMARK  status: ('A' for Active; 'I' for Inactive)
REMARK    1  A    between atoms: C_1  and  C_2
REMARK    2  A    between atoms: C_2  and  C_3
REMARK    3  A    between atoms: C_2  and  N_11
REMARK    4  A    between atoms: N_5  and  C_6
REMARK    5  A    between atoms: N_11  and  C_28
REMARK    6  A    between atoms: C_12  and  C_14
REMARK    7  A    between atoms: C_14  and  N_15
REMARK    8  A    between atoms: C_18  and  C_19
REMARK                            x       y       z     vdW  Elec       q    Type
REMARK                         _______ _______ _______ _____ _____    ______ ____
ROOT
ATOM      1  N   UNL     1       3.752   4.746  18.778  0.00  0.00    +0.000 N 
ATOM      2  C   UNL     1       3.538   6.038  18.271  0.00  0.00    +0.000 C 
ATOM      3  O   UNL     1       3.532   6.260  17.054  0.00  0.00    +0.000 OA
ENDROOT
BRANCH   1   4
ATOM      4  C   UNL     1       3.367   4.357  20.171  0.00  0.00    +0.000 C 
ATOM      5  C   UNL     1       2.054   5.000  20.654  0.00  0.00    +0.000 C 
ATOM      6  C   UNL     1       0.802   4.254  20.215  0.00  0.00    +0.000 C 
ATOM      7  C   UNL     1       0.846   2.765  20.531  0.00  0.00    +0.000 C 
ATOM      8  C   UNL     1       2.151   2.066  20.153  0.00  0.00    +0.000 C 
ATOM      9  C   UNL     1       3.404   2.857  20.509  0.00  0.00    +0.000 C 
ENDBRANCH   1   4
BRANCH   1  11
ATOM     10  C   UNL     1       2.815   3.358  16.855  0.00  0.00    +0.000 C 
ATOM     11  C   UNL     1       4.002   3.671  17.776  0.00  0.00    +0.000 C 
BRANCH  11  12
ATOM     12  C   UNL     1       5.315   3.843  16.971  0.00  0.00    +0.000 C 
ATOM     13  O   UNL     1       6.383   4.115  17.517  0.00  0.00    +0.000 OA
ATOM     14  N   UNL     1       5.182   3.693  15.610  0.00  0.00    +0.000 N 
ATOM     15  H   UNL     1       4.242   3.859  15.243  0.00  0.00    +0.000 HD
BRANCH  14  16
ATOM     16  C   UNL     1       6.289   3.830  14.700  0.00  0.00    +0.000 C 
ATOM     17  C   UNL     1       5.877   3.580  13.256  0.00  0.00    +0.000 C 
ATOM     18  C   UNL     1       7.024   4.178  12.456  0.00  0.00    +0.000 C 
ATOM     19  C   UNL     1       7.570   5.325  13.310  0.00  0.00    +0.000 C 
ATOM     20  C   UNL     1       6.844   5.249  14.651  0.00  0.00    +0.000 C 
ENDBRANCH  14  16
ENDBRANCH  11  12
ENDBRANCH   1  11
BRANCH   2  21
ATOM     21  C   UNL     1       3.429   7.219  19.213  0.00  0.00    +0.000 C 
BRANCH  21  22
ATOM     22  N   UNL     1       2.523   8.221  18.716  0.00  0.00    +0.000 N 
ATOM     23  N   UNL     1       2.611   8.730  17.478  0.00  0.00    +0.000 NA
ATOM     24  N   UNL     1       1.591   9.569  17.385  0.00  0.00    +0.000 NA
ATOM     25  C   UNL     1       0.944   9.550  18.598  0.00  0.00    +0.000 A 
ATOM     26  N   UNL     1       1.531   8.725  19.480  0.00  0.00    +0.000 NA
BRANCH  25  27
ATOM     27  C   UNL     1      -0.266  10.315  18.865  0.00  0.00    +0.000 A 
ATOM     28  C   UNL     1      -1.338  10.276  17.963  0.00  0.00    +0.000 A 
ATOM     29  C   UNL     1      -2.510  10.994  18.221  0.00  0.00    +0.000 A 
ATOM     30  C   UNL     1      -2.623  11.762  19.381  0.00  0.00    +0.000 A 
ATOM     31 CL   UNL     1      -4.097  12.624  19.634  0.00  0.00    +0.000 Cl
ATOM     32  C   UNL     1      -1.558  11.809  20.288  0.00  0.00    +0.000 A 
ATOM     33 CL   UNL     1      -1.627  12.734  21.746  0.00  0.00    +0.000 Cl
ATOM     34  C   UNL     1      -0.389  11.087  20.031  0.00  0.00    +0.000 A 
ENDBRANCH  25  27
ENDBRANCH  21  22
ENDBRANCH   2  21
TORSDOF 7
ENDMDL
MODEL 8
REMARK VINA RESULT:      -8.3      4.755     10.783
REMARK  Name = 
REMARK  8 active torsions:
REMARK  status: ('A' for Active; 'I' for Inactive)
REMARK    1  A    between atoms: C_1  and  C_2
REMARK    2  A    between atoms: C_2  and  C_3
REMARK    3  A    between atoms: C_2  and  N_11
REMARK    4  A    between atoms: N_5  and  C_6
REMARK    5  A    between atoms: N_11  and  C_28
REMARK    6  A    between atoms: C_12  and  C_14
REMARK    7  A    between atoms: C_14  and  N_15
REMARK    8  A    between atoms: C_18  and  C_19
REMARK                            x       y       z     vdW  Elec       q    Type
REMARK                         _______ _______ _______ _____ _____    ______ ____
ROOT
ATOM      1  N   UNL     1      -0.541  11.858  20.425  0.00  0.00    +0.000 N 
ATOM      2  C   UNL     1       0.313  10.970  19.752  0.00  0.00    +0.000 C 
ATOM      3  O   UNL     1       0.351  10.924  18.516  0.00  0.00    +0.000 OA
ENDROOT
BRANCH   1   4
ATOM      4  C   UNL     1      -0.334  12.240  21.857  0.00  0.00    +0.000 C 
ATOM      5  C   UNL     1      -0.384  13.759  22.108  0.00  0.00    +0.000 C 
ATOM      6  C   UNL     1      -1.792  14.312  22.276  0.00  0.00    +0.000 C 
ATOM      7  C   UNL     1      -2.622  13.548  23.300  0.00  0.00    +0.000 C 
ATOM      8  C   UNL     1      -2.563  12.027  23.168  0.00  0.00    +0.000 C 
ATOM      9  C   UNL     1      -1.164  11.481  22.906  0.00  0.00    +0.000 C 
ENDBRANCH   1   4
BRANCH   1  11
ATOM     10  C   UNL     1      -0.713  13.362  18.372  0.00  0.00    +0.000 C 
ATOM     11  C   UNL     1      -1.416  12.715  19.573  0.00  0.00    +0.000 C 
BRANCH  11  12
ATOM     12  C   UNL     1      -2.751  12.047  19.158  0.00  0.00    +0.000 C 
ATOM     13  O   UNL     1      -2.795  11.134  18.336  0.00  0.00    +0.000 OA
ATOM     14  N   UNL     1      -3.871  12.571  19.762  0.00  0.00    +0.000 N 
ATOM     15  H   UNL     1      -3.775  13.531  20.100  0.00  0.00    +0.000 HD
BRANCH  14  16
ATOM     16  C   UNL     1      -5.199  12.088  19.491  0.00  0.00    +0.000 C 
ATOM     17  C   UNL     1      -6.072  12.083  20.738  0.00  0.00    +0.000 C 
ATOM     18  C   UNL     1      -7.482  11.969  20.178  0.00  0.00    +0.000 C 
ATOM     19  C   UNL     1      -7.441  12.654  18.811  0.00  0.00    +0.000 C 
ATOM     20  C   UNL     1      -5.977  12.990  18.540  0.00  0.00    +0.000 C 
ENDBRANCH  14  16
ENDBRANCH  11  12
ENDBRANCH   1  11
BRANCH   2  21
ATOM     21  C   UNL     1       1.124   9.955  20.530  0.00  0.00    +0.000 C 
BRANCH  21  22
ATOM     22  N   UNL     1       1.618   8.900  19.684  0.00  0.00    +0.000 N 
ATOM     23  N   UNL     1       2.080   9.118  18.444  0.00  0.00    +0.000 NA
ATOM     24  N   UNL     1       2.479   7.930  18.019  0.00  0.00    +0.000 NA
ATOM     25  C   UNL     1       2.207   7.032  19.024  0.00  0.00    +0.000 A 
ATOM     26  N   UNL     1       1.629   7.612  20.088  0.00  0.00    +0.000 NA
BRANCH  25  27
ATOM     27  C   UNL     1       2.554   5.619  18.943  0.00  0.00    +0.000 A 
ATOM     28  C   UNL     1       3.102   5.095  17.765  0.00  0.00    +0.000 A 
ATOM     29  C   UNL     1       3.454   3.744  17.685  0.00  0.00    +0.000 A 
ATOM     30  C   UNL     1       3.257   2.900  18.779  0.00  0.00    +0.000 A 
ATOM     31 CL   UNL     1       3.711   1.243  18.609  0.00  0.00    +0.000 Cl
ATOM     32  C   UNL     1       2.708   3.414  19.960  0.00  0.00    +0.000 A 
ATOM     33 CL   UNL     1       2.440   2.431  21.357  0.00  0.00    +0.000 Cl
ATOM     34  C   UNL     1       2.362   4.766  20.040  0.00  0.00    +0.000 A 
ENDBRANCH  25  27
ENDBRANCH  21  22
ENDBRANCH   2  21
TORSDOF 7
ENDMDL
MODEL 9
REMARK VINA RESULT:      -8.3      1.064      1.283
REMARK  Name = 
REMARK  8 active torsions:
REMARK  status: ('A' for Active; 'I' for Inactive)
REMARK    1  A    between atoms: C_1  and  C_2
REMARK    2  A    between atoms: C_2  and  C_3
REMARK    3  A    between atoms: C_2  and  N_11
REMARK    4  A    between atoms: N_5  and  C_6
REMARK    5  A    between atoms: N_11  and  C_28
REMARK    6  A    between atoms: C_12  and  C_14
REMARK    7  A    between atoms: C_14  and  N_15
REMARK    8  A    between atoms: C_18  and  C_19
REMARK                            x       y       z     vdW  Elec       q    Type
REMARK                         _______ _______ _______ _____ _____    ______ ____
ROOT
ATOM      1  N   UNL     1       4.503   5.752  17.757  0.00  0.00    +0.000 N 
ATOM      2  C   UNL     1       3.862   6.979  17.525  0.00  0.00    +0.000 C 
ATOM      3  O   UNL     1       4.506   8.027  17.388  0.00  0.00    +0.000 OA
ENDROOT
BRANCH   1   4
ATOM      4  C   UNL     1       3.829   4.438  17.521  0.00  0.00    +0.000 C 
ATOM      5  C   UNL     1       4.495   3.258  18.253  0.00  0.00    +0.000 C 
ATOM      6  C   UNL     1       4.056   3.101  19.702  0.00  0.00    +0.000 C 
ATOM      7  C   UNL     1       2.543   3.084  19.875  0.00  0.00    +0.000 C 
ATOM      8  C   UNL     1       1.797   4.180  19.114  0.00  0.00    +0.000 C 
ATOM      9  C   UNL     1       2.300   4.399  17.692  0.00  0.00    +0.000 C 
ENDBRANCH   1   4
BRANCH   1  11
ATOM     10  C   UNL     1       6.550   5.485  19.256  0.00  0.00    +0.000 C 
ATOM     11  C   UNL     1       5.991   5.787  17.858  0.00  0.00    +0.000 C 
BRANCH  11  12
ATOM     12  C   UNL     1       6.723   4.968  16.765  0.00  0.00    +0.000 C 
ATOM     13  O   UNL     1       7.778   4.380  16.989  0.00  0.00    +0.000 OA
ATOM     14  N   UNL     1       6.113   4.977  15.531  0.00  0.00    +0.000 N 
ATOM     15  H   UNL     1       5.497   5.774  15.355  0.00  0.00    +0.000 HD
BRANCH  14  16
ATOM     16  C   UNL     1       6.653   4.285  14.392  0.00  0.00    +0.000 C 
ATOM     17  C   UNL     1       5.560   3.710  13.501  0.00  0.00    +0.000 C 
ATOM     18  C   UNL     1       6.288   3.423  12.196  0.00  0.00    +0.000 C 
ATOM     19  C   UNL     1       7.409   4.460  12.110  0.00  0.00    +0.000 C 
ATOM     20  C   UNL     1       7.411   5.205  13.443  0.00  0.00    +0.000 C 
ENDBRANCH  14  16
ENDBRANCH  11  12
ENDBRANCH   1  11
BRANCH   2  21
ATOM     21  C   UNL     1       2.350   7.069  17.560  0.00  0.00    +0.000 C 
BRANCH  21  22
ATOM     22  N   UNL     1       1.885   7.875  18.658  0.00  0.00    +0.000 N 
ATOM     23  N   UNL     1       2.113   7.556  19.941  0.00  0.00    +0.000 NA
ATOM     24  N   UNL     1       1.581   8.550  20.635  0.00  0.00    +0.000 NA
ATOM     25  C   UNL     1       1.021   9.419  19.727  0.00  0.00    +0.000 A 
ATOM     26  N   UNL     1       1.169   9.002  18.460  0.00  0.00    +0.000 NA
BRANCH  25  27
ATOM     27  C   UNL     1       0.380  10.668  20.114  0.00  0.00    +0.000 A 
ATOM     28  C   UNL     1       1.089  11.626  20.849  0.00  0.00    +0.000 A 
ATOM     29  C   UNL     1       0.486  12.835  21.209  0.00  0.00    +0.000 A 
ATOM     30  C   UNL     1      -0.835  13.098  20.843  0.00  0.00    +0.000 A 
ATOM     31 CL   UNL     1      -1.518  14.610  21.324  0.00  0.00    +0.000 Cl
ATOM     32  C   UNL     1      -1.554  12.146  20.110  0.00  0.00    +0.000 A 
ATOM     33 CL   UNL     1      -3.191  12.403  19.617  0.00  0.00    +0.000 Cl
ATOM     34  C   UNL     1      -0.947  10.940  19.747  0.00  0.00    +0.000 A 
ENDBRANCH  25  27
ENDBRANCH  21  22
ENDBRANCH   2  21
TORSDOF 7
ENDMDL
