MODEL 1
REMARK VINA RESULT:      -8.1      0.000      0.000
REMARK  Name = 
REMARK  7 active torsions:
REMARK  status: ('A' for Active; 'I' for Inactive)
REMARK    1  A    between atoms: C_2  and  C_4
REMARK    2  A    between atoms: C_7  and  C_8
REMARK    3  A    between atoms: C_8  and  O_9
REMARK    4  A    between atoms: O_9  and  C_10
REMARK    5  A    between atoms: N_16  and  C_17
REMARK    6  A    between atoms: C_17  and  C_18
REMARK    7  A    between atoms: C_18  and  O_20
REMARK                            x       y       z     vdW  Elec       q    Type
REMARK                         _______ _______ _______ _____ _____    ______ ____
ROOT
ATOM      1  C   UNL     1       7.784   7.925  17.660  0.00  0.00    +0.000 A 
ATOM      2  C   UNL     1       8.156   7.153  18.766  0.00  0.00    +0.000 A 
ATOM      3  C   UNL     1       7.556   5.913  18.998  0.00  0.00    +0.000 A 
ATOM      4  C   UNL     1       6.626   5.434  18.078  0.00  0.00    +0.000 A 
ATOM      5  C   UNL     1       5.642   4.365  18.446  0.00  0.00    +0.000 A 
ATOM      6  O   UNL     1       5.702   3.805  19.538  0.00  0.00    +0.000 OA
ATOM      7  N   UNL     1       4.536   4.239  17.565  0.00  0.00    +0.000 N 
ATOM      8  C   UNL     1       4.765   4.514  16.214  0.00  0.00    +0.000 A 
ATOM      9  C   UNL     1       5.638   5.448  15.830  0.00  0.00    +0.000 A 
ATOM     10  C   UNL     1       6.422   6.108  16.866  0.00  0.00    +0.000 A 
ATOM     11  C   UNL     1       6.962   7.380  16.675  0.00  0.00    +0.000 A 
ENDROOT
BRANCH   1  12
ATOM     12  O   UNL     1       8.301   9.189  17.604  0.00  0.00    +0.000 OA
BRANCH  12  13
ATOM     13  C   UNL     1       8.922   9.643  18.818  0.00  0.00    +0.000 C 
BRANCH  13  17
ATOM     14  C   UNL     1      10.569  13.544  17.943  0.00  0.00    +0.000 A 
ATOM     15  C   UNL     1       9.471  13.432  18.796  0.00  0.00    +0.000 A 
ATOM     16  C   UNL     1       8.941  12.172  19.099  0.00  0.00    +0.000 A 
ATOM     17  C   UNL     1       9.513  11.010  18.554  0.00  0.00    +0.000 A 
ATOM     18  C   UNL     1      10.652  11.134  17.742  0.00  0.00    +0.000 A 
ATOM     19  C   UNL     1      11.175  12.389  17.436  0.00  0.00    +0.000 A 
BRANCH  14  21
ATOM     20  N   UNL     1      11.036  15.255  16.313  0.00  0.00    +0.000 NA
ATOM     21  C   UNL     1      11.079  14.894  17.550  0.00  0.00    +0.000 C 
ATOM     22  N   UNL     1      11.614  15.722  18.495  0.00  0.00    +0.000 N 
ATOM     23  H   UNL     1      11.393  16.208  16.222  0.00  0.00    +0.000 HD
ATOM     24  H   UNL     1      12.242  16.433  18.141  0.00  0.00    +0.000 HD
ATOM     25  H   UNL     1      12.012  15.254  19.303  0.00  0.00    +0.000 HD
ENDBRANCH  14  21
ENDBRANCH  13  17
ENDBRANCH  12  13
ENDBRANCH   1  12
BRANCH   7  26
ATOM     26  C   UNL     1       3.398   5.015  18.126  0.00  0.00    +0.000 C 
BRANCH  26  27
ATOM     27  C   UNL     1       2.118   4.240  18.426  0.00  0.00    +0.000 C 
ATOM     28  O   UNL     1       1.833   3.804  19.532  0.00  0.00    +0.000 OA
BRANCH  27  29
ATOM     29  O   UNL     1       1.367   3.992  17.336  0.00  0.00    +0.000 OA
ATOM     30  H   UNL     1       1.819   3.378  16.722  0.00  0.00    +0.000 HD
ENDBRANCH  27  29
ENDBRANCH  26  27
ENDBRANCH   7  26
TORSDOF 7
ENDMDL
MODEL 2
REMARK VINA RESULT:      -8.1      0.748      1.273
REMARK  Name = 
REMARK  7 active torsions:
REMARK  status: ('A' for Active; 'I' for Inactive)
REMARK    1  A    between atoms: C_2  and  C_4
REMARK    2  A    between atoms: C_7  and  C_8
REMARK    3  A    between atoms: C_8  and  O_9
REMARK    4  A    between atoms: O_9  and  C_10
REMARK    5  A    between atoms: N_16  and  C_17
REMARK    6  A    between atoms: C_17  and  C_18
REMARK    7  A    between atoms: C_18  and  O_20
REMARK                            x       y       z     vdW  Elec       q    Type
REMARK                         _______ _______ _______ _____ _____    ______ ____
ROOT
ATOM      1  C   UNL     1       7.589   7.712  17.603  0.00  0.00    +0.000 A 
ATOM      2  C   UNL     1       8.072   6.944  18.669  0.00  0.00    +0.000 A 
ATOM      3  C   UNL     1       7.440   5.750  19.023  0.00  0.00    +0.000 A 
ATOM      4  C   UNL     1       6.360   5.308  18.261  0.00  0.00    +0.000 A 
ATOM      5  C   UNL     1       5.379   4.312  18.800  0.00  0.00    +0.000 A 
ATOM      6  O   UNL     1       5.564   3.774  19.889  0.00  0.00    +0.000 OA
ATOM      7  N   UNL     1       4.151   4.235  18.090  0.00  0.00    +0.000 N 
ATOM      8  C   UNL     1       4.198   4.464  16.713  0.00  0.00    +0.000 A 
ATOM      9  C   UNL     1       5.060   5.333  16.179  0.00  0.00    +0.000 A 
ATOM     10  C   UNL     1       6.023   5.966  17.070  0.00  0.00    +0.000 A 
ATOM     11  C   UNL     1       6.603   7.198  16.764  0.00  0.00    +0.000 A 
ENDROOT
BRANCH   1  12
ATOM     12  O   UNL     1       8.166   8.940  17.435  0.00  0.00    +0.000 OA
BRANCH  12  13
ATOM     13  C   UNL     1       8.711   9.522  18.630  0.00  0.00    +0.000 C 
BRANCH  13  17
ATOM     14  C   UNL     1      10.721  13.216  17.624  0.00  0.00    +0.000 A 
ATOM     15  C   UNL     1      11.472  12.091  17.966  0.00  0.00    +0.000 A 
ATOM     16  C   UNL     1      10.830  10.885  18.277  0.00  0.00    +0.000 A 
ATOM     17  C   UNL     1       9.429  10.795  18.241  0.00  0.00    +0.000 A 
ATOM     18  C   UNL     1       8.689  11.919  17.840  0.00  0.00    +0.000 A 
ATOM     19  C   UNL     1       9.328  13.121  17.537  0.00  0.00    +0.000 A 
BRANCH  14  21
ATOM     20  N   UNL     1      12.328  14.922  18.182  0.00  0.00    +0.000 NA
ATOM     21  C   UNL     1      11.402  14.525  17.378  0.00  0.00    +0.000 C 
ATOM     22  N   UNL     1      11.018  15.305  16.325  0.00  0.00    +0.000 N 
ATOM     23  H   UNL     1      12.705  15.814  17.857  0.00  0.00    +0.000 HD
ATOM     24  H   UNL     1      11.244  16.288  16.411  0.00  0.00    +0.000 HD
ATOM     25  H   UNL     1      10.059  15.175  16.019  0.00  0.00    +0.000 HD
ENDBRANCH  14  21
ENDBRANCH  13  17
ENDBRANCH  12  13
ENDBRANCH   1  12
BRANCH   7  26
ATOM     26  C   UNL     1       3.154   5.093  18.784  0.00  0.00    +0.000 C 
BRANCH  26  27
ATOM     27  C   UNL     1       2.146   4.385  19.684  0.00  0.00    +0.000 C 
ATOM     28  O   UNL     1       2.195   4.407  20.905  0.00  0.00    +0.000 OA
BRANCH  27  29
ATOM     29  O   UNL     1       1.242   3.648  19.010  0.00  0.00    +0.000 OA
ATOM     30  H   UNL     1       1.381   3.709  18.043  0.00  0.00    +0.000 HD
ENDBRANCH  27  29
ENDBRANCH  26  27
ENDBRANCH   7  26
TORSDOF 7
ENDMDL
MODEL 3
REMARK VINA RESULT:      -8.0      6.052      9.169
REMARK  Name = 
REMARK  7 active torsions:
REMARK  status: ('A' for Active; 'I' for Inactive)
REMARK    1  A    between atoms: C_2  and  C_4
REMARK    2  A    between atoms: C_7  and  C_8
REMARK    3  A    between atoms: C_8  and  O_9
REMARK    4  A    between atoms: O_9  and  C_10
REMARK    5  A    between atoms: N_16  and  C_17
REMARK    6  A    between atoms: C_17  and  C_18
REMARK    7  A    between atoms: C_18  and  O_20
REMARK                            x       y       z     vdW  Elec       q    Type
REMARK                         _______ _______ _______ _____ _____    ______ ____
ROOT
ATOM      1  C   UNL     1       1.746   8.341  19.393  0.00  0.00    +0.000 A 
ATOM      2  C   UNL     1       2.194   8.665  18.107  0.00  0.00    +0.000 A 
ATOM      3  C   UNL     1       3.063   7.810  17.425  0.00  0.00    +0.000 A 
ATOM      4  C   UNL     1       3.427   6.605  18.022  0.00  0.00    +0.000 A 
ATOM      5  C   UNL     1       4.648   5.854  17.585  0.00  0.00    +0.000 A 
ATOM      6  O   UNL     1       5.301   6.227  16.613  0.00  0.00    +0.000 OA
ATOM      7  N   UNL     1       5.106   4.869  18.499  0.00  0.00    +0.000 N 
ATOM      8  C   UNL     1       4.136   4.205  19.256  0.00  0.00    +0.000 A 
ATOM      9  C   UNL     1       3.025   4.822  19.662  0.00  0.00    +0.000 A 
ATOM     10  C   UNL     1       2.805   6.190  19.208  0.00  0.00    +0.000 A 
ATOM     11  C   UNL     1       2.001   7.077  19.922  0.00  0.00    +0.000 A 
ENDROOT
BRANCH   1  12
ATOM     12  O   UNL     1       1.035   9.309  20.046  0.00  0.00    +0.000 OA
BRANCH  12  13
ATOM     13  C   UNL     1       0.970  10.575  19.368  0.00  0.00    +0.000 C 
BRANCH  13  17
ATOM     14  C   UNL     1      -3.099  11.349  18.128  0.00  0.00    +0.000 A 
ATOM     15  C   UNL     1      -2.363  10.345  17.498  0.00  0.00    +0.000 A 
ATOM     16  C   UNL     1      -1.049  10.075  17.905  0.00  0.00    +0.000 A 
ATOM     17  C   UNL     1      -0.464  10.806  18.952  0.00  0.00    +0.000 A 
ATOM     18  C   UNL     1      -1.237  11.774  19.614  0.00  0.00    +0.000 A 
ATOM     19  C   UNL     1      -2.541  12.047  19.205  0.00  0.00    +0.000 A 
BRANCH  14  21
ATOM     20  N   UNL     1      -4.893  11.192  16.528  0.00  0.00    +0.000 NA
ATOM     21  C   UNL     1      -4.468  11.696  17.636  0.00  0.00    +0.000 C 
ATOM     22  N   UNL     1      -5.246  12.565  18.345  0.00  0.00    +0.000 N 
ATOM     23  H   UNL     1      -5.849  11.506  16.354  0.00  0.00    +0.000 HD
ATOM     24  H   UNL     1      -5.976  13.024  17.814  0.00  0.00    +0.000 HD
ATOM     25  H   UNL     1      -4.737  13.232  18.918  0.00  0.00    +0.000 HD
ENDBRANCH  14  21
ENDBRANCH  13  17
ENDBRANCH  12  13
ENDBRANCH   1  12
BRANCH   7  26
ATOM     26  C   UNL     1       6.180   5.467  19.336  0.00  0.00    +0.000 C 
BRANCH  26  27
ATOM     27  C   UNL     1       7.600   5.403  18.782  0.00  0.00    +0.000 C 
ATOM     28  O   UNL     1       8.040   4.452  18.153  0.00  0.00    +0.000 OA
BRANCH  27  29
ATOM     29  O   UNL     1       8.365   6.455  19.131  0.00  0.00    +0.000 OA
ATOM     30  H   UNL     1       7.884   7.301  19.020  0.00  0.00    +0.000 HD
ENDBRANCH  27  29
ENDBRANCH  26  27
ENDBRANCH   7  26
TORSDOF 7
ENDMDL
MODEL 4
REMARK VINA RESULT:      -8.0      6.698      9.286
REMARK  Name = 
REMARK  7 active torsions:
REMARK  status: ('A' for Active; 'I' for Inactive)
REMARK    1  A    between atoms: C_2  and  C_4
REMARK    2  A    between atoms: C_7  and  C_8
REMARK    3  A    between atoms: C_8  and  O_9
REMARK    4  A    between atoms: O_9  and  C_10
REMARK    5  A    between atoms: N_16  and  C_17
REMARK    6  A    between atoms: C_17  and  C_18
REMARK    7  A    between atoms: C_18  and  O_20
REMARK                            x       y       z     vdW  Elec       q    Type
REMARK                         _______ _______ _______ _____ _____    ______ ____
ROOT
ATOM      1  C   UNL     1       1.586   9.076  18.678  0.00  0.00    +0.000 A 
ATOM      2  C   UNL     1       1.365   8.685  20.003  0.00  0.00    +0.000 A 
ATOM      3  C   UNL     1       1.804   7.438  20.455  0.00  0.00    +0.000 A 
ATOM      4  C   UNL     1       2.517   6.620  19.581  0.00  0.00    +0.000 A 
ATOM      5  C   UNL     1       2.643   5.145  19.820  0.00  0.00    +0.000 A 
ATOM      6  O   UNL     1       2.213   4.637  20.852  0.00  0.00    +0.000 OA
ATOM      7  N   UNL     1       3.058   4.388  18.692  0.00  0.00    +0.000 N 
ATOM      8  C   UNL     1       3.935   5.009  17.798  0.00  0.00    +0.000 A 
ATOM      9  C   UNL     1       3.874   6.320  17.557  0.00  0.00    +0.000 A 
ATOM     10  C   UNL     1       2.923   7.108  18.331  0.00  0.00    +0.000 A 
ATOM     11  C   UNL     1       2.417   8.317  17.856  0.00  0.00    +0.000 A 
ENDROOT
BRANCH   1  12
ATOM     12  O   UNL     1       0.980  10.236  18.282  0.00  0.00    +0.000 OA
BRANCH  12  13
ATOM     13  C   UNL     1       0.348  10.980  19.337  0.00  0.00    +0.000 C 
BRANCH  13  17
ATOM     14  C   UNL     1      -3.790  11.551  18.219  0.00  0.00    +0.000 A 
ATOM     15  C   UNL     1      -3.293  12.166  19.369  0.00  0.00    +0.000 A 
ATOM     16  C   UNL     1      -1.949  12.001  19.729  0.00  0.00    +0.000 A 
ATOM     17  C   UNL     1      -1.090  11.222  18.937  0.00  0.00    +0.000 A 
ATOM     18  C   UNL     1      -1.590  10.656  17.753  0.00  0.00    +0.000 A 
ATOM     19  C   UNL     1      -2.929  10.815  17.397  0.00  0.00    +0.000 A 
BRANCH  14  21
ATOM     20  N   UNL     1      -6.067  10.774  18.339  0.00  0.00    +0.000 NA
ATOM     21  C   UNL     1      -5.244  11.654  17.883  0.00  0.00    +0.000 C 
ATOM     22  N   UNL     1      -5.685  12.661  17.072  0.00  0.00    +0.000 N 
ATOM     23  H   UNL     1      -7.016  11.006  18.041  0.00  0.00    +0.000 HD
ATOM     24  H   UNL     1      -6.566  12.484  16.605  0.00  0.00    +0.000 HD
ATOM     25  H   UNL     1      -4.994  13.026  16.423  0.00  0.00    +0.000 HD
ENDBRANCH  14  21
ENDBRANCH  13  17
ENDBRANCH  12  13
ENDBRANCH   1  12
BRANCH   7  26
ATOM     26  C   UNL     1       1.848   3.839  18.024  0.00  0.00    +0.000 C 
BRANCH  26  27
ATOM     27  C   UNL     1       1.417   2.434  18.430  0.00  0.00    +0.000 C 
ATOM     28  O   UNL     1       0.282   2.148  18.784  0.00  0.00    +0.000 OA
BRANCH  27  29
ATOM     29  O   UNL     1       2.427   1.543  18.455  0.00  0.00    +0.000 OA
ATOM     30  H   UNL     1       2.239   0.772  17.883  0.00  0.00    +0.000 HD
ENDBRANCH  27  29
ENDBRANCH  26  27
ENDBRANCH   7  26
TORSDOF 7
ENDMDL
MODEL 5
REMARK VINA RESULT:      -8.0      6.837      9.902
REMARK  Name = 
REMARK  7 active torsions:
REMARK  status: ('A' for Active; 'I' for Inactive)
REMARK    1  A    between atoms: C_2  and  C_4
REMARK    2  A    between atoms: C_7  and  C_8
REMARK    3  A    between atoms: C_8  and  O_9
REMARK    4  A    between atoms: O_9  and  C_10
REMARK    5  A    between atoms: N_16  and  C_17
REMARK    6  A    between atoms: C_17  and  C_18
REMARK    7  A    between atoms: C_18  and  O_20
REMARK                            x       y       z     vdW  Elec       q    Type
REMARK                         _______ _______ _______ _____ _____    ______ ____
ROOT
ATOM      1  C   UNL     1       1.041   9.721  18.755  0.00  0.00    +0.000 A 
ATOM      2  C   UNL     1       0.889   9.294  20.080  0.00  0.00    +0.000 A 
ATOM      3  C   UNL     1       1.461   8.092  20.504  0.00  0.00    +0.000 A 
ATOM      4  C   UNL     1       2.233   7.360  19.604  0.00  0.00    +0.000 A 
ATOM      5  C   UNL     1       2.511   5.903  19.819  0.00  0.00    +0.000 A 
ATOM      6  O   UNL     1       2.158   5.341  20.854  0.00  0.00    +0.000 OA
ATOM      7  N   UNL     1       2.974   5.205  18.673  0.00  0.00    +0.000 N 
ATOM      8  C   UNL     1       3.765   5.920  17.769  0.00  0.00    +0.000 A 
ATOM      9  C   UNL     1       3.567   7.222  17.548  0.00  0.00    +0.000 A 
ATOM     10  C   UNL     1       2.560   7.901  18.353  0.00  0.00    +0.000 A 
ATOM     11  C   UNL     1       1.925   9.059  17.906  0.00  0.00    +0.000 A 
ENDROOT
BRANCH   1  12
ATOM     12  O   UNL     1       0.313  10.819  18.389  0.00  0.00    +0.000 OA
BRANCH  12  13
ATOM     13  C   UNL     1      -0.437  11.431  19.451  0.00  0.00    +0.000 C 
BRANCH  13  17
ATOM     14  C   UNL     1      -4.612  11.393  18.330  0.00  0.00    +0.000 A 
ATOM     15  C   UNL     1      -3.719  10.525  17.701  0.00  0.00    +0.000 A 
ATOM     16  C   UNL     1      -2.368  10.518  18.070  0.00  0.00    +0.000 A 
ATOM     17  C   UNL     1      -1.901  11.377  19.078  0.00  0.00    +0.000 A 
ATOM     18  C   UNL     1      -2.822  12.205  19.741  0.00  0.00    +0.000 A 
ATOM     19  C   UNL     1      -4.165  12.217  19.369  0.00  0.00    +0.000 A 
BRANCH  14  21
ATOM     20  N   UNL     1      -6.356  12.250  16.906  0.00  0.00    +0.000 NA
ATOM     21  C   UNL     1      -6.036  11.463  17.875  0.00  0.00    +0.000 C 
ATOM     22  N   UNL     1      -6.990  10.718  18.507  0.00  0.00    +0.000 N 
ATOM     23  H   UNL     1      -7.353  12.155  16.704  0.00  0.00    +0.000 HD
ATOM     24  H   UNL     1      -7.939  11.057  18.407  0.00  0.00    +0.000 HD
ATOM     25  H   UNL     1      -6.785  10.485  19.474  0.00  0.00    +0.000 HD
ENDBRANCH  14  21
ENDBRANCH  13  17
ENDBRANCH  12  13
ENDBRANCH   1  12
BRANCH   7  26
ATOM     26  C   UNL     1       1.810   4.545  18.023  0.00  0.00    +0.000 C 
BRANCH  26  27
ATOM     27  C   UNL     1       1.605   3.063  18.321  0.00  0.00    +0.000 C 
ATOM     28  O   UNL     1       2.030   2.163  17.612  0.00  0.00    +0.000 OA
BRANCH  27  29
ATOM     29  O   UNL     1       0.824   2.830  19.394  0.00  0.00    +0.000 OA
ATOM     30  H   UNL     1       0.004   3.364  19.362  0.00  0.00    +0.000 HD
ENDBRANCH  27  29
ENDBRANCH  26  27
ENDBRANCH   7  26
TORSDOF 7
ENDMDL
MODEL 6
REMARK VINA RESULT:      -7.9      0.902      1.029
REMARK  Name = 
REMARK  7 active torsions:
REMARK  status: ('A' for Active; 'I' for Inactive)
REMARK    1  A    between atoms: C_2  and  C_4
REMARK    2  A    between atoms: C_7  and  C_8
REMARK    3  A    between atoms: C_8  and  O_9
REMARK    4  A    between atoms: O_9  and  C_10
REMARK    5  A    between atoms: N_16  and  C_17
REMARK    6  A    between atoms: C_17  and  C_18
REMARK    7  A    between atoms: C_18  and  O_20
REMARK                            x       y       z     vdW  Elec       q    Type
REMARK                         _______ _______ _______ _____ _____    ______ ____
ROOT
ATOM      1  C   UNL     1       7.746   7.745  17.644  0.00  0.00    +0.000 A 
ATOM      2  C   UNL     1       7.976   7.025  18.822  0.00  0.00    +0.000 A 
ATOM      3  C   UNL     1       7.418   5.756  18.994  0.00  0.00    +0.000 A 
ATOM      4  C   UNL     1       6.681   5.198  17.951  0.00  0.00    +0.000 A 
ATOM      5  C   UNL     1       5.713   4.079  18.190  0.00  0.00    +0.000 A 
ATOM      6  O   UNL     1       5.626   3.549  19.296  0.00  0.00    +0.000 OA
ATOM      7  N   UNL     1       4.775   3.863  17.146  0.00  0.00    +0.000 N 
ATOM      8  C   UNL     1       5.207   4.120  15.842  0.00  0.00    +0.000 A 
ATOM      9  C   UNL     1       6.075   5.097  15.574  0.00  0.00    +0.000 A 
ATOM     10  C   UNL     1       6.640   5.830  16.701  0.00  0.00    +0.000 A 
ATOM     11  C   UNL     1       7.129   7.128  16.558  0.00  0.00    +0.000 A 
ENDROOT
BRANCH   1  12
ATOM     12  O   UNL     1       8.191   9.038  17.631  0.00  0.00    +0.000 OA
BRANCH  12  13
ATOM     13  C   UNL     1       8.915   9.441  18.806  0.00  0.00    +0.000 C 
BRANCH  13  17
ATOM     14  C   UNL     1      10.277  13.502  18.212  0.00  0.00    +0.000 A 
ATOM     15  C   UNL     1      10.983  12.653  19.065  0.00  0.00    +0.000 A 
ATOM     16  C   UNL     1      10.559  11.331  19.250  0.00  0.00    +0.000 A 
ATOM     17  C   UNL     1       9.427  10.845  18.576  0.00  0.00    +0.000 A 
ATOM     18  C   UNL     1       8.759  11.694  17.678  0.00  0.00    +0.000 A 
ATOM     19  C   UNL     1       9.177  13.012  17.498  0.00  0.00    +0.000 A 
BRANCH  14  21
ATOM     20  N   UNL     1       9.937  15.745  17.403  0.00  0.00    +0.000 NA
ATOM     21  C   UNL     1      10.677  14.938  18.082  0.00  0.00    +0.000 C 
ATOM     22  N   UNL     1      11.835  15.376  18.658  0.00  0.00    +0.000 N 
ATOM     23  H   UNL     1      10.335  16.685  17.439  0.00  0.00    +0.000 HD
ATOM     24  H   UNL     1      12.223  16.221  18.257  0.00  0.00    +0.000 HD
ATOM     25  H   UNL     1      12.551  14.667  18.781  0.00  0.00    +0.000 HD
ENDBRANCH  14  21
ENDBRANCH  13  17
ENDBRANCH  12  13
ENDBRANCH   1  12
BRANCH   7  26
ATOM     26  C   UNL     1       3.518   4.580  17.489  0.00  0.00    +0.000 C 
BRANCH  26  27
ATOM     27  C   UNL     1       2.238   3.750  17.513  0.00  0.00    +0.000 C 
ATOM     28  O   UNL     1       2.222   2.532  17.617  0.00  0.00    +0.000 OA
BRANCH  27  29
ATOM     29  O   UNL     1       1.120   4.473  17.312  0.00  0.00    +0.000 OA
ATOM     30  H   UNL     1       0.824   4.423  16.380  0.00  0.00    +0.000 HD
ENDBRANCH  27  29
ENDBRANCH  26  27
ENDBRANCH   7  26
TORSDOF 7
ENDMDL
MODEL 7
REMARK VINA RESULT:      -7.9      1.223      1.560
REMARK  Name = 
REMARK  7 active torsions:
REMARK  status: ('A' for Active; 'I' for Inactive)
REMARK    1  A    between atoms: C_2  and  C_4
REMARK    2  A    between atoms: C_7  and  C_8
REMARK    3  A    between atoms: C_8  and  O_9
REMARK    4  A    between atoms: O_9  and  C_10
REMARK    5  A    between atoms: N_16  and  C_17
REMARK    6  A    between atoms: C_17  and  C_18
REMARK    7  A    between atoms: C_18  and  O_20
REMARK                            x       y       z     vdW  Elec       q    Type
REMARK                         _______ _______ _______ _____ _____    ______ ____
ROOT
ATOM      1  C   UNL     1       8.043   7.242  18.436  0.00  0.00    +0.000 A 
ATOM      2  C   UNL     1       8.117   6.250  19.421  0.00  0.00    +0.000 A 
ATOM      3  C   UNL     1       7.285   5.130  19.360  0.00  0.00    +0.000 A 
ATOM      4  C   UNL     1       6.425   4.990  18.272  0.00  0.00    +0.000 A 
ATOM      5  C   UNL     1       5.229   4.089  18.333  0.00  0.00    +0.000 A 
ATOM      6  O   UNL     1       5.037   3.364  19.307  0.00  0.00    +0.000 OA
ATOM      7  N   UNL     1       4.252   4.319  17.329  0.00  0.00    +0.000 N 
ATOM      8  C   UNL     1       4.712   4.752  16.082  0.00  0.00    +0.000 A 
ATOM      9  C   UNL     1       5.779   5.546  15.970  0.00  0.00    +0.000 A 
ATOM     10  C   UNL     1       6.513   5.872  17.186  0.00  0.00    +0.000 A 
ATOM     11  C   UNL     1       7.286   7.028  17.287  0.00  0.00    +0.000 A 
ENDROOT
BRANCH   1  12
ATOM     12  O   UNL     1       8.774   8.375  18.665  0.00  0.00    +0.000 OA
BRANCH  12  13
ATOM     13  C   UNL     1       8.297   9.550  17.989  0.00  0.00    +0.000 C 
BRANCH  13  17
ATOM     14  C   UNL     1      10.383  12.998  19.557  0.00  0.00    +0.000 A 
ATOM     15  C   UNL     1      10.520  11.760  20.188  0.00  0.00    +0.000 A 
ATOM     16  C   UNL     1       9.862  10.635  19.677  0.00  0.00    +0.000 A 
ATOM     17  C   UNL     1       9.066  10.737  18.525  0.00  0.00    +0.000 A 
ATOM     18  C   UNL     1       8.982  11.977  17.869  0.00  0.00    +0.000 A 
ATOM     19  C   UNL     1       9.632  13.099  18.381  0.00  0.00    +0.000 A 
BRANCH  14  21
ATOM     20  N   UNL     1      10.492  14.756  21.201  0.00  0.00    +0.000 NA
ATOM     21  C   UNL     1      11.014  14.217  20.153  0.00  0.00    +0.000 C 
ATOM     22  N   UNL     1      12.118  14.768  19.567  0.00  0.00    +0.000 N 
ATOM     23  H   UNL     1      11.058  15.555  21.492  0.00  0.00    +0.000 HD
ATOM     24  H   UNL     1      12.279  15.744  19.782  0.00  0.00    +0.000 HD
ATOM     25  H   UNL     1      12.210  14.593  18.571  0.00  0.00    +0.000 HD
ENDBRANCH  14  21
ENDBRANCH  13  17
ENDBRANCH  12  13
ENDBRANCH   1  12
BRANCH   7  26
ATOM     26  C   UNL     1       3.198   5.204  17.893  0.00  0.00    +0.000 C 
BRANCH  26  27
ATOM     27  C   UNL     1       1.891   4.538  18.311  0.00  0.00    +0.000 C 
ATOM     28  O   UNL     1       1.510   4.459  19.470  0.00  0.00    +0.000 OA
BRANCH  27  29
ATOM     29  O   UNL     1       1.231   3.952  17.292  0.00  0.00    +0.000 OA
ATOM     30  H   UNL     1       1.768   3.247  16.877  0.00  0.00    +0.000 HD
ENDBRANCH  27  29
ENDBRANCH  26  27
ENDBRANCH   7  26
TORSDOF 7
ENDMDL
MODEL 8
REMARK VINA RESULT:      -7.8      6.359      8.001
REMARK  Name = 
REMARK  7 active torsions:
REMARK  status: ('A' for Active; 'I' for Inactive)
REMARK    1  A    between atoms: C_2  and  C_4
REMARK    2  A    between atoms: C_7  and  C_8
REMARK    3  A    between atoms: C_8  and  O_9
REMARK    4  A    between atoms: O_9  and  C_10
REMARK    5  A    between atoms: N_16  and  C_17
REMARK    6  A    between atoms: C_17  and  C_18
REMARK    7  A    between atoms: C_18  and  O_20
REMARK                            x       y       z     vdW  Elec       q    Type
REMARK                         _______ _______ _______ _____ _____    ______ ____
ROOT
ATOM      1  C   UNL     1       1.790   5.842  20.421  0.00  0.00    +0.000 A 
ATOM      2  C   UNL     1       1.276   4.543  20.336  0.00  0.00    +0.000 A 
ATOM      3  C   UNL     1       2.011   3.532  19.713  0.00  0.00    +0.000 A 
ATOM      4  C   UNL     1       3.286   3.826  19.232  0.00  0.00    +0.000 A 
ATOM      5  C   UNL     1       3.949   2.966  18.200  0.00  0.00    +0.000 A 
ATOM      6  O   UNL     1       3.431   1.915  17.830  0.00  0.00    +0.000 OA
ATOM      7  N   UNL     1       5.051   3.566  17.536  0.00  0.00    +0.000 N 
ATOM      8  C   UNL     1       5.830   4.458  18.277  0.00  0.00    +0.000 A 
ATOM      9  C   UNL     1       5.293   5.240  19.216  0.00  0.00    +0.000 A 
ATOM     10  C   UNL     1       3.877   5.065  19.515  0.00  0.00    +0.000 A 
ATOM     11  C   UNL     1       3.113   6.094  20.066  0.00  0.00    +0.000 A 
ENDROOT
BRANCH   1  12
ATOM     12  O   UNL     1       0.936   6.798  20.898  0.00  0.00    +0.000 OA
BRANCH  12  13
ATOM     13  C   UNL     1       1.556   8.050  21.237  0.00  0.00    +0.000 C 
BRANCH  13  17
ATOM     14  C   UNL     1      -0.718  11.114  19.204  0.00  0.00    +0.000 A 
ATOM     15  C   UNL     1      -0.903  10.908  20.572  0.00  0.00    +0.000 A 
ATOM     16  C   UNL     1      -0.158   9.929  21.242  0.00  0.00    +0.000 A 
ATOM     17  C   UNL     1       0.784   9.152  20.549  0.00  0.00    +0.000 A 
ATOM     18  C   UNL     1       0.999   9.409  19.184  0.00  0.00    +0.000 A 
ATOM     19  C   UNL     1       0.253  10.378  18.516  0.00  0.00    +0.000 A 
BRANCH  14  21
ATOM     20  N   UNL     1      -2.783  12.309  18.869  0.00  0.00    +0.000 NA
ATOM     21  C   UNL     1      -1.576  12.096  18.471  0.00  0.00    +0.000 C 
ATOM     22  N   UNL     1      -1.086  12.739  17.369  0.00  0.00    +0.000 N 
ATOM     23  H   UNL     1      -3.216  13.023  18.281  0.00  0.00    +0.000 HD
ATOM     24  H   UNL     1      -1.786  13.097  16.732  0.00  0.00    +0.000 HD
ATOM     25  H   UNL     1      -0.356  12.241  16.869  0.00  0.00    +0.000 HD
ENDBRANCH  14  21
ENDBRANCH  13  17
ENDBRANCH  12  13
ENDBRANCH   1  12
BRANCH   7  26
ATOM     26  C   UNL     1       4.567   4.150  16.256  0.00  0.00    +0.000 C 
BRANCH  26  27
ATOM     27  C   UNL     1       5.630   4.566  15.244  0.00  0.00    +0.000 C 
ATOM     28  O   UNL     1       5.871   5.729  14.953  0.00  0.00    +0.000 OA
BRANCH  27  29
ATOM     29  O   UNL     1       6.222   3.528  14.622  0.00  0.00    +0.000 OA
ATOM     30  H   UNL     1       6.747   3.825  13.851  0.00  0.00    +0.000 HD
ENDBRANCH  27  29
ENDBRANCH  26  27
ENDBRANCH   7  26
TORSDOF 7
ENDMDL
MODEL 9
REMARK VINA RESULT:      -7.8      6.397      9.073
REMARK  Name = 
REMARK  7 active torsions:
REMARK  status: ('A' for Active; 'I' for Inactive)
REMARK    1  A    between atoms: C_2  and  C_4
REMARK    2  A    between atoms: C_7  and  C_8
REMARK    3  A    between atoms: C_8  and  O_9
REMARK    4  A    between atoms: O_9  and  C_10
REMARK    5  A    between atoms: N_16  and  C_17
REMARK    6  A    between atoms: C_17  and  C_18
REMARK    7  A    between atoms: C_18  and  O_20
REMARK                            x       y       z     vdW  Elec       q    Type
REMARK                         _______ _______ _______ _____ _____    ______ ____
ROOT
ATOM      1  C   UNL     1       1.798   8.664  18.373  0.00  0.00    +0.000 A 
ATOM      2  C   UNL     1       1.579   8.242  19.689  0.00  0.00    +0.000 A 
ATOM      3  C   UNL     1       2.186   7.079  20.169  0.00  0.00    +0.000 A 
ATOM      4  C   UNL     1       3.057   6.382  19.333  0.00  0.00    +0.000 A 
ATOM      5  C   UNL     1       3.401   4.945  19.587  0.00  0.00    +0.000 A 
ATOM      6  O   UNL     1       3.008   4.375  20.603  0.00  0.00    +0.000 OA
ATOM      7  N   UNL     1       3.979   4.263  18.484  0.00  0.00    +0.000 N 
ATOM      8  C   UNL     1       4.789   5.012  17.627  0.00  0.00    +0.000 A 
ATOM      9  C   UNL     1       4.535   6.298  17.375  0.00  0.00    +0.000 A 
ATOM     10  C   UNL     1       3.439   6.928  18.100  0.00  0.00    +0.000 A 
ATOM     11  C   UNL     1       2.773   8.044  17.595  0.00  0.00    +0.000 A 
ENDROOT
BRANCH   1  12
ATOM     12  O   UNL     1       1.037   9.716  17.942  0.00  0.00    +0.000 OA
BRANCH  12  13
ATOM     13  C   UNL     1       0.579  10.597  18.981  0.00  0.00    +0.000 C 
BRANCH  13  17
ATOM     14  C   UNL     1      -3.573  11.537  18.223  0.00  0.00    +0.000 A 
ATOM     15  C   UNL     1      -2.944  10.535  17.482  0.00  0.00    +0.000 A 
ATOM     16  C   UNL     1      -1.604  10.212  17.733  0.00  0.00    +0.000 A 
ATOM     17  C   UNL     1      -0.885  10.886  18.733  0.00  0.00    +0.000 A 
ATOM     18  C   UNL     1      -1.547  11.852  19.508  0.00  0.00    +0.000 A 
ATOM     19  C   UNL     1      -2.878  12.178  19.254  0.00  0.00    +0.000 A 
BRANCH  14  21
ATOM     20  N   UNL     1      -5.608  11.339  16.949  0.00  0.00    +0.000 NA
ATOM     21  C   UNL     1      -4.976  11.942  17.896  0.00  0.00    +0.000 C 
ATOM     22  N   UNL     1      -5.565  12.967  18.580  0.00  0.00    +0.000 N 
ATOM     23  H   UNL     1      -6.555  11.714  16.877  0.00  0.00    +0.000 HD
ATOM     24  H   UNL     1      -6.336  13.417  18.103  0.00  0.00    +0.000 HD
ATOM     25  H   UNL     1      -4.924  13.652  18.966  0.00  0.00    +0.000 HD
ENDBRANCH  14  21
ENDBRANCH  13  17
ENDBRANCH  12  13
ENDBRANCH   1  12
BRANCH   7  26
ATOM     26  C   UNL     1       2.900   3.532  17.766  0.00  0.00    +0.000 C 
BRANCH  26  27
ATOM     27  C   UNL     1       2.706   2.063  18.128  0.00  0.00    +0.000 C 
ATOM     28  O   UNL     1       3.605   1.235  18.109  0.00  0.00    +0.000 OA
BRANCH  27  29
ATOM     29  O   UNL     1       1.425   1.732  18.381  0.00  0.00    +0.000 OA
ATOM     30  H   UNL     1       0.805   2.388  18.002  0.00  0.00    +0.000 HD
ENDBRANCH  27  29
ENDBRANCH  26  27
ENDBRANCH   7  26
TORSDOF 7
ENDMDL
