MODEL 1
REMARK VINA RESULT:      -8.3      0.000      0.000
REMARK  Name = 
REMARK  4 active torsions:
REMARK  status: ('A' for Active; 'I' for Inactive)
REMARK    1  A    between atoms: C_2  and  C_3
REMARK    2  A    between atoms: C_3  and  O_4
REMARK    3  A    between atoms: C_19  and  C_20
REMARK    4  A    between atoms: C_28  and  C_29
REMARK                            x       y       z     vdW  Elec       q    Type
REMARK                         _______ _______ _______ _____ _____    ______ ____
ROOT
ATOM      1  C   UNL     1       2.655   2.771  20.499  0.00  0.00    +0.000 C 
ATOM      2  C   UNL     1       1.106   2.583  20.617  0.00  0.00    +0.000 C 
ATOM      3  C   UNL     1       0.523   3.478  19.526  0.00  0.00    +0.000 C 
ATOM      4  C   UNL     1       1.562   4.585  19.314  0.00  0.00    +0.000 C 
ATOM      5  C   UNL     1       2.037   4.887  17.805  0.00  0.00    +0.000 C 
ATOM      6  C   UNL     1       2.219   3.747  16.793  0.00  0.00    +0.000 C 
ATOM      7  C   UNL     1       3.664   3.295  16.649  0.00  0.00    +0.000 C 
ATOM      8  C   UNL     1       4.644   4.390  16.355  0.00  0.00    +0.000 C 
ATOM      9  C   UNL     1       5.855   4.040  15.886  0.00  0.00    +0.000 C 
ATOM     10  C   UNL     1       6.955   5.021  15.810  0.00  0.00    +0.000 C 
ATOM     11  O   UNL     1       8.106   4.638  15.624  0.00  0.00    +0.000 OA
ATOM     12  C   UNL     1       6.578   6.469  15.904  0.00  0.00    +0.000 C 
ATOM     13  C   UNL     1       5.554   6.650  17.013  0.00  0.00    +0.000 C 
ATOM     14  C   UNL     1       4.368   5.694  16.951  0.00  0.00    +0.000 C 
ATOM     15  C   UNL     1       3.270   5.830  17.744  0.00  0.00    +0.000 C 
ATOM     16  C   UNL     1       3.425   6.609  19.044  0.00  0.00    +0.000 C 
ATOM     17  C   UNL     1       3.892   5.310  19.927  0.00  0.00    +0.000 C 
ATOM     18  C   UNL     1       2.718   4.358  20.340  0.00  0.00    +0.000 C 
ATOM     19  C   UNL     1       2.527   4.847  21.823  0.00  0.00    +0.000 C 
ENDROOT
BRANCH  16  20
ATOM     20  C   UNL     1       2.189   7.506  19.329  0.00  0.00    +0.000 A 
ATOM     21  C   UNL     1       1.619   8.355  18.366  0.00  0.00    +0.000 A 
ATOM     22  C   UNL     1       0.839   9.453  18.747  0.00  0.00    +0.000 A 
ATOM     23  C   UNL     1       0.499   9.635  20.082  0.00  0.00    +0.000 A 
ATOM     24  F   UNL     1      -0.169  10.734  20.458  0.00  0.00    +0.000 F 
ATOM     25  C   UNL     1       0.849   8.686  21.024  0.00  0.00    +0.000 A 
ATOM     26  C   UNL     1       1.656   7.607  20.640  0.00  0.00    +0.000 A 
ENDBRANCH  16  20
BRANCH   1  28
ATOM     27  C   UNL     1       3.582   1.052  18.658  0.00  0.00    +0.000 C 
ATOM     28  C   UNL     1       3.039   1.814  19.434  0.00  0.00    +0.000 C 
ENDBRANCH   1  28
BRANCH   1  29
ATOM     29  O   UNL     1       3.312   2.306  21.669  0.00  0.00    +0.000 OA
ATOM     30  H   UNL     1       4.051   1.736  21.400  0.00  0.00    +0.000 HD
ENDBRANCH   1  29
TORSDOF 3
ENDMDL
MODEL 2
REMARK VINA RESULT:      -6.7      2.981      5.860
REMARK  Name = 
REMARK  4 active torsions:
REMARK  status: ('A' for Active; 'I' for Inactive)
REMARK    1  A    between atoms: C_2  and  C_3
REMARK    2  A    between atoms: C_3  and  O_4
REMARK    3  A    between atoms: C_19  and  C_20
REMARK    4  A    between atoms: C_28  and  C_29
REMARK                            x       y       z     vdW  Elec       q    Type
REMARK                         _______ _______ _______ _____ _____    ______ ____
ROOT
ATOM      1  C   UNL     1       1.798   2.356  19.031  0.00  0.00    +0.000 C 
ATOM      2  C   UNL     1       2.962   1.365  19.364  0.00  0.00    +0.000 C 
ATOM      3  C   UNL     1       4.190   2.254  19.541  0.00  0.00    +0.000 C 
ATOM      4  C   UNL     1       3.912   3.500  18.692  0.00  0.00    +0.000 C 
ATOM      5  C   UNL     1       4.104   4.940  19.389  0.00  0.00    +0.000 C 
ATOM      6  C   UNL     1       3.713   5.163  20.857  0.00  0.00    +0.000 C 
ATOM      7  C   UNL     1       2.341   5.798  21.024  0.00  0.00    +0.000 C 
ATOM      8  C   UNL     1       2.130   7.063  20.250  0.00  0.00    +0.000 C 
ATOM      9  C   UNL     1       1.097   7.849  20.600  0.00  0.00    +0.000 C 
ATOM     10  C   UNL     1       0.668   8.971  19.742  0.00  0.00    +0.000 C 
ATOM     11  O   UNL     1      -0.414   9.515  19.939  0.00  0.00    +0.000 OA
ATOM     12  C   UNL     1       1.637   9.430  18.693  0.00  0.00    +0.000 C 
ATOM     13  C   UNL     1       2.247   8.217  18.008  0.00  0.00    +0.000 C 
ATOM     14  C   UNL     1       2.799   7.159  18.955  0.00  0.00    +0.000 C 
ATOM     15  C   UNL     1       3.542   6.101  18.525  0.00  0.00    +0.000 C 
ATOM     16  C   UNL     1       3.398   5.677  17.069  0.00  0.00    +0.000 C 
ATOM     17  C   UNL     1       2.136   4.668  17.345  0.00  0.00    +0.000 C 
ATOM     18  C   UNL     1       2.541   3.291  17.972  0.00  0.00    +0.000 C 
ATOM     19  C   UNL     1       2.494   2.413  16.666  0.00  0.00    +0.000 C 
ENDROOT
BRANCH  16  20
ATOM     20  C   UNL     1       4.764   5.277  16.447  0.00  0.00    +0.000 A 
ATOM     21  C   UNL     1       5.981   5.868  16.824  0.00  0.00    +0.000 A 
ATOM     22  C   UNL     1       7.090   5.839  15.970  0.00  0.00    +0.000 A 
ATOM     23  C   UNL     1       7.044   5.097  14.796  0.00  0.00    +0.000 A 
ATOM     24  F   UNL     1       8.070   5.143  13.935  0.00  0.00    +0.000 F 
ATOM     25  C   UNL     1       5.941   4.314  14.512  0.00  0.00    +0.000 A 
ATOM     26  C   UNL     1       4.824   4.374  15.354  0.00  0.00    +0.000 A 
ENDBRANCH  16  20
BRANCH   1  28
ATOM     27  C   UNL     1       1.033   2.959  21.531  0.00  0.00    +0.000 C 
ATOM     28  C   UNL     1       1.341   2.814  20.365  0.00  0.00    +0.000 C 
ENDBRANCH   1  28
BRANCH   1  29
ATOM     29  O   UNL     1       0.688   1.666  18.476  0.00  0.00    +0.000 OA
ATOM     30  H   UNL     1       0.265   2.243  17.820  0.00  0.00    +0.000 HD
ENDBRANCH   1  29
TORSDOF 3
ENDMDL
MODEL 3
REMARK VINA RESULT:      -6.7      9.780     12.250
REMARK  Name = 
REMARK  4 active torsions:
REMARK  status: ('A' for Active; 'I' for Inactive)
REMARK    1  A    between atoms: C_2  and  C_3
REMARK    2  A    between atoms: C_3  and  O_4
REMARK    3  A    between atoms: C_19  and  C_20
REMARK    4  A    between atoms: C_28  and  C_29
REMARK                            x       y       z     vdW  Elec       q    Type
REMARK                         _______ _______ _______ _____ _____    ______ ____
ROOT
ATOM      1  C   UNL     1       7.319  17.338  20.576  0.00  0.00    +0.000 C 
ATOM      2  C   UNL     1       7.098  18.076  21.938  0.00  0.00    +0.000 C 
ATOM      3  C   UNL     1       8.002  17.345  22.927  0.00  0.00    +0.000 C 
ATOM      4  C   UNL     1       8.146  15.925  22.368  0.00  0.00    +0.000 C 
ATOM      5  C   UNL     1       9.635  15.325  22.221  0.00  0.00    +0.000 C 
ATOM      6  C   UNL     1      10.806  16.220  21.789  0.00  0.00    +0.000 C 
ATOM      7  C   UNL     1      11.131  16.109  20.307  0.00  0.00    +0.000 C 
ATOM      8  C   UNL     1      11.353  14.714  19.810  0.00  0.00    +0.000 C 
ATOM      9  C   UNL     1      11.967  14.561  18.623  0.00  0.00    +0.000 C 
ATOM     10  C   UNL     1      12.000  13.250  17.946  0.00  0.00    +0.000 C 
ATOM     11  O   UNL     1      12.333  13.176  16.766  0.00  0.00    +0.000 OA
ATOM     12  C   UNL     1      11.676  12.048  18.782  0.00  0.00    +0.000 C 
ATOM     13  C   UNL     1      10.470  12.355  19.656  0.00  0.00    +0.000 C 
ATOM     14  C   UNL     1      10.563  13.660  20.439  0.00  0.00    +0.000 C 
ATOM     15  C   UNL     1       9.668  14.004  21.406  0.00  0.00    +0.000 C 
ATOM     16  C   UNL     1       8.292  13.354  21.364  0.00  0.00    +0.000 C 
ATOM     17  C   UNL     1       7.638  14.482  20.371  0.00  0.00    +0.000 C 
ATOM     18  C   UNL     1       7.263  15.825  21.083  0.00  0.00    +0.000 C 
ATOM     19  C   UNL     1       5.716  15.586  21.240  0.00  0.00    +0.000 C 
ENDROOT
BRANCH  16  20
ATOM     20  C   UNL     1       7.783  12.989  22.786  0.00  0.00    +0.000 A 
ATOM     21  C   UNL     1       8.643  12.730  23.866  0.00  0.00    +0.000 A 
ATOM     22  C   UNL     1       8.210  11.981  24.966  0.00  0.00    +0.000 A 
ATOM     23  C   UNL     1       6.876  11.605  25.070  0.00  0.00    +0.000 A 
ATOM     24  F   UNL     1       6.482  10.811  26.075  0.00  0.00    +0.000 F 
ATOM     25  C   UNL     1       5.956  12.046  24.139  0.00  0.00    +0.000 A 
ATOM     26  C   UNL     1       6.402  12.768  23.025  0.00  0.00    +0.000 A 
ENDBRANCH  16  20
BRANCH   1  28
ATOM     27  C   UNL     1       9.378  18.584  19.389  0.00  0.00    +0.000 C 
ATOM     28  C   UNL     1       8.534  17.985  20.026  0.00  0.00    +0.000 C 
ENDBRANCH   1  28
BRANCH   1  29
ATOM     29  O   UNL     1       6.283  17.651  19.656  0.00  0.00    +0.000 OA
ATOM     30  H   UNL     1       5.627  16.935  19.678  0.00  0.00    +0.000 HD
ENDBRANCH   1  29
TORSDOF 3
ENDMDL
MODEL 4
REMARK VINA RESULT:      -6.6      9.958     13.011
REMARK  Name = 
REMARK  4 active torsions:
REMARK  status: ('A' for Active; 'I' for Inactive)
REMARK    1  A    between atoms: C_2  and  C_3
REMARK    2  A    between atoms: C_3  and  O_4
REMARK    3  A    between atoms: C_19  and  C_20
REMARK    4  A    between atoms: C_28  and  C_29
REMARK                            x       y       z     vdW  Elec       q    Type
REMARK                         _______ _______ _______ _____ _____    ______ ____
ROOT
ATOM      1  C   UNL     1       9.251  17.656  21.347  0.00  0.00    +0.000 C 
ATOM      2  C   UNL     1       9.190  18.146  19.862  0.00  0.00    +0.000 C 
ATOM      3  C   UNL     1       8.660  16.948  19.079  0.00  0.00    +0.000 C 
ATOM      4  C   UNL     1       9.072  15.718  19.897  0.00  0.00    +0.000 C 
ATOM      5  C   UNL     1       7.934  14.630  20.238  0.00  0.00    +0.000 C 
ATOM      6  C   UNL     1       6.500  15.067  20.568  0.00  0.00    +0.000 C 
ATOM      7  C   UNL     1       6.218  15.126  22.062  0.00  0.00    +0.000 C 
ATOM      8  C   UNL     1       6.549  13.877  22.819  0.00  0.00    +0.000 C 
ATOM      9  C   UNL     1       6.024  13.729  24.048  0.00  0.00    +0.000 C 
ATOM     10  C   UNL     1       6.495  12.663  24.954  0.00  0.00    +0.000 C 
ATOM     11  O   UNL     1       6.196  12.694  26.145  0.00  0.00    +0.000 OA
ATOM     12  C   UNL     1       7.277  11.544  24.334  0.00  0.00    +0.000 C 
ATOM     13  C   UNL     1       8.282  12.119  23.349  0.00  0.00    +0.000 C 
ATOM     14  C   UNL     1       7.700  13.110  22.348  0.00  0.00    +0.000 C 
ATOM     15  C   UNL     1       8.405  13.581  21.282  0.00  0.00    +0.000 C 
ATOM     16  C   UNL     1       9.925  13.534  21.361  0.00  0.00    +0.000 C 
ATOM     17  C   UNL     1      10.069  14.995  22.091  0.00  0.00    +0.000 C 
ATOM     18  C   UNL     1       9.902  16.216  21.123  0.00  0.00    +0.000 C 
ATOM     19  C   UNL     1      11.422  16.568  20.921  0.00  0.00    +0.000 C 
ENDROOT
BRANCH  16  20
ATOM     20  C   UNL     1      10.561  13.130  20.002  0.00  0.00    +0.000 A 
ATOM     21  C   UNL     1      11.854  13.519  19.615  0.00  0.00    +0.000 A 
ATOM     22  C   UNL     1      12.223  13.545  18.265  0.00  0.00    +0.000 A 
ATOM     23  C   UNL     1      11.358  13.046  17.298  0.00  0.00    +0.000 A 
ATOM     24  F   UNL     1      11.673  13.154  16.000  0.00  0.00    +0.000 F 
ATOM     25  C   UNL     1      10.174  12.440  17.672  0.00  0.00    +0.000 A 
ATOM     26  C   UNL     1       9.798  12.447  19.021  0.00  0.00    +0.000 A 
ENDBRANCH  16  20
BRANCH   1  28
ATOM     27  C   UNL     1       6.830  18.272  22.327  0.00  0.00    +0.000 C 
ATOM     28  C   UNL     1       7.870  17.875  21.841  0.00  0.00    +0.000 C 
ENDBRANCH   1  28
BRANCH   1  29
ATOM     29  O   UNL     1      10.066  18.515  22.131  0.00  0.00    +0.000 OA
ATOM     30  H   UNL     1      10.997  18.301  21.954  0.00  0.00    +0.000 HD
ENDBRANCH   1  29
TORSDOF 3
ENDMDL
MODEL 5
REMARK VINA RESULT:      -6.5      6.957      9.607
REMARK  Name = 
REMARK  4 active torsions:
REMARK  status: ('A' for Active; 'I' for Inactive)
REMARK    1  A    between atoms: C_2  and  C_3
REMARK    2  A    between atoms: C_3  and  O_4
REMARK    3  A    between atoms: C_19  and  C_20
REMARK    4  A    between atoms: C_28  and  C_29
REMARK                            x       y       z     vdW  Elec       q    Type
REMARK                         _______ _______ _______ _____ _____    ______ ____
ROOT
ATOM      1  C   UNL     1       2.032  13.950  18.908  0.00  0.00    +0.000 C 
ATOM      2  C   UNL     1       2.938  13.980  20.183  0.00  0.00    +0.000 C 
ATOM      3  C   UNL     1       2.207  13.107  21.200  0.00  0.00    +0.000 C 
ATOM      4  C   UNL     1       0.727  13.181  20.806  0.00  0.00    +0.000 C 
ATOM      5  C   UNL     1      -0.076  11.794  20.648  0.00  0.00    +0.000 C 
ATOM      6  C   UNL     1       0.602  10.554  20.048  0.00  0.00    +0.000 C 
ATOM      7  C   UNL     1       0.287  10.350  18.574  0.00  0.00    +0.000 C 
ATOM      8  C   UNL     1      -1.171  10.340  18.233  0.00  0.00    +0.000 C 
ATOM      9  C   UNL     1      -1.534   9.836  17.041  0.00  0.00    +0.000 C 
ATOM     10  C   UNL     1      -2.905  10.015  16.523  0.00  0.00    +0.000 C 
ATOM     11  O   UNL     1      -3.151   9.778  15.344  0.00  0.00    +0.000 OA
ATOM     12  C   UNL     1      -3.954  10.427  17.512  0.00  0.00    +0.000 C 
ATOM     13  C   UNL     1      -3.395  11.520  18.410  0.00  0.00    +0.000 C 
ATOM     14  C   UNL     1      -2.036  11.210  19.026  0.00  0.00    +0.000 C 
ATOM     15  C   UNL     1      -1.472  11.983  19.994  0.00  0.00    +0.000 C 
ATOM     16  C   UNL     1      -1.935  13.430  20.107  0.00  0.00    +0.000 C 
ATOM     17  C   UNL     1      -0.847  14.006  19.025  0.00  0.00    +0.000 C 
ATOM     18  C   UNL     1       0.605  14.159  19.593  0.00  0.00    +0.000 C 
ATOM     19  C   UNL     1       0.592  15.709  19.863  0.00  0.00    +0.000 C 
ENDROOT
BRANCH  16  20
ATOM     20  C   UNL     1      -2.070  13.879  21.588  0.00  0.00    +0.000 A 
ATOM     21  C   UNL     1      -2.383  12.994  22.632  0.00  0.00    +0.000 A 
ATOM     22  C   UNL     1      -2.939  13.461  23.829  0.00  0.00    +0.000 A 
ATOM     23  C   UNL     1      -3.053  14.828  24.055  0.00  0.00    +0.000 A 
ATOM     24  F   UNL     1      -3.667  15.273  25.160  0.00  0.00    +0.000 F 
ATOM     25  C   UNL     1      -2.537  15.728  23.143  0.00  0.00    +0.000 A 
ATOM     26  C   UNL     1      -2.012  15.254  21.934  0.00  0.00    +0.000 A 
ENDBRANCH  16  20
BRANCH   1  28
ATOM     27  C   UNL     1       2.951  11.834  17.537  0.00  0.00    +0.000 C 
ATOM     28  C   UNL     1       2.447  12.705  18.218  0.00  0.00    +0.000 C 
ENDBRANCH   1  28
BRANCH   1  29
ATOM     29  O   UNL     1       2.376  15.001  18.017  0.00  0.00    +0.000 OA
ATOM     30  H   UNL     1       1.557  15.381  17.661  0.00  0.00    +0.000 HD
ENDBRANCH   1  29
TORSDOF 3
ENDMDL
MODEL 6
REMARK VINA RESULT:      -6.5      8.776     11.838
REMARK  Name = 
REMARK  4 active torsions:
REMARK  status: ('A' for Active; 'I' for Inactive)
REMARK    1  A    between atoms: C_2  and  C_3
REMARK    2  A    between atoms: C_3  and  O_4
REMARK    3  A    between atoms: C_19  and  C_20
REMARK    4  A    between atoms: C_28  and  C_29
REMARK                            x       y       z     vdW  Elec       q    Type
REMARK                         _______ _______ _______ _____ _____    ______ ____
ROOT
ATOM      1  C   UNL     1      -6.400  12.541  23.671  0.00  0.00    +0.000 C 
ATOM      2  C   UNL     1      -7.045  13.846  24.245  0.00  0.00    +0.000 C 
ATOM      3  C   UNL     1      -6.391  14.980  23.461  0.00  0.00    +0.000 C 
ATOM      4  C   UNL     1      -5.026  14.435  23.026  0.00  0.00    +0.000 C 
ATOM      5  C   UNL     1      -4.624  14.574  21.472  0.00  0.00    +0.000 C 
ATOM      6  C   UNL     1      -5.676  14.396  20.367  0.00  0.00    +0.000 C 
ATOM      7  C   UNL     1      -5.671  13.006  19.751  0.00  0.00    +0.000 C 
ATOM      8  C   UNL     1      -4.337  12.537  19.256  0.00  0.00    +0.000 C 
ATOM      9  C   UNL     1      -4.313  11.491  18.410  0.00  0.00    +0.000 C 
ATOM     10  C   UNL     1      -3.046  10.811  18.076  0.00  0.00    +0.000 C 
ATOM     11  O   UNL     1      -3.065   9.719  17.515  0.00  0.00    +0.000 OA
ATOM     12  C   UNL     1      -1.778  11.546  18.395  0.00  0.00    +0.000 C 
ATOM     13  C   UNL     1      -1.894  12.171  19.776  0.00  0.00    +0.000 C 
ATOM     14  C   UNL     1      -3.166  12.980  20.007  0.00  0.00    +0.000 C 
ATOM     15  C   UNL     1      -3.354  13.758  21.109  0.00  0.00    +0.000 C 
ATOM     16  C   UNL     1      -2.539  13.435  22.354  0.00  0.00    +0.000 C 
ATOM     17  C   UNL     1      -3.617  12.352  22.946  0.00  0.00    +0.000 C 
ATOM     18  C   UNL     1      -4.871  13.000  23.624  0.00  0.00    +0.000 C 
ATOM     19  C   UNL     1      -4.434  12.846  25.128  0.00  0.00    +0.000 C 
ENDROOT
BRANCH  16  20
ATOM     20  C   UNL     1      -2.052  14.722  23.075  0.00  0.00    +0.000 A 
ATOM     21  C   UNL     1      -1.874  14.800  24.467  0.00  0.00    +0.000 A 
ATOM     22  C   UNL     1      -1.888  16.035  25.125  0.00  0.00    +0.000 A 
ATOM     23  C   UNL     1      -1.933  17.214  24.390  0.00  0.00    +0.000 A 
ATOM     24  F   UNL     1      -2.038  18.392  25.021  0.00  0.00    +0.000 F 
ATOM     25  C   UNL     1      -1.872  17.175  23.010  0.00  0.00    +0.000 A 
ATOM     26  C   UNL     1      -1.891  15.936  22.359  0.00  0.00    +0.000 A 
ENDBRANCH  16  20
BRANCH   1  28
ATOM     27  C   UNL     1      -7.872  11.778  21.561  0.00  0.00    +0.000 C 
ATOM     28  C   UNL     1      -7.216  12.252  22.468  0.00  0.00    +0.000 C 
ENDBRANCH   1  28
BRANCH   1  29
ATOM     29  O   UNL     1      -6.620  11.441  24.542  0.00  0.00    +0.000 OA
ATOM     30  H   UNL     1      -6.841  11.786  25.422  0.00  0.00    +0.000 HD
ENDBRANCH   1  29
TORSDOF 3
ENDMDL
MODEL 7
REMARK VINA RESULT:      -6.5      8.553     11.658
REMARK  Name = 
REMARK  4 active torsions:
REMARK  status: ('A' for Active; 'I' for Inactive)
REMARK    1  A    between atoms: C_2  and  C_3
REMARK    2  A    between atoms: C_3  and  O_4
REMARK    3  A    between atoms: C_19  and  C_20
REMARK    4  A    between atoms: C_28  and  C_29
REMARK                            x       y       z     vdW  Elec       q    Type
REMARK                         _______ _______ _______ _____ _____    ______ ____
ROOT
ATOM      1  C   UNL     1      -6.475  12.573  23.475  0.00  0.00    +0.000 C 
ATOM      2  C   UNL     1      -7.120  13.902  23.993  0.00  0.00    +0.000 C 
ATOM      3  C   UNL     1      -6.409  15.007  23.217  0.00  0.00    +0.000 C 
ATOM      4  C   UNL     1      -5.036  14.428  22.856  0.00  0.00    +0.000 C 
ATOM      5  C   UNL     1      -4.562  14.526  21.319  0.00  0.00    +0.000 C 
ATOM      6  C   UNL     1      -5.566  14.346  20.171  0.00  0.00    +0.000 C 
ATOM      7  C   UNL     1      -5.561  12.943  19.583  0.00  0.00    +0.000 C 
ATOM      8  C   UNL     1      -4.216  12.439  19.158  0.00  0.00    +0.000 C 
ATOM      9  C   UNL     1      -4.175  11.376  18.336  0.00  0.00    +0.000 C 
ATOM     10  C   UNL     1      -2.908  10.665  18.073  0.00  0.00    +0.000 C 
ATOM     11  O   UNL     1      -2.924   9.563  17.533  0.00  0.00    +0.000 OA
ATOM     12  C   UNL     1      -1.641  11.382  18.434  0.00  0.00    +0.000 C 
ATOM     13  C   UNL     1      -1.807  12.038  19.796  0.00  0.00    +0.000 C 
ATOM     14  C   UNL     1      -3.071  12.875  19.954  0.00  0.00    +0.000 C 
ATOM     15  C   UNL     1      -3.293  13.680  21.030  0.00  0.00    +0.000 C 
ATOM     16  C   UNL     1      -2.541  13.367  22.317  0.00  0.00    +0.000 C 
ATOM     17  C   UNL     1      -3.667  12.317  22.881  0.00  0.00    +0.000 C 
ATOM     18  C   UNL     1      -4.937  13.003  23.488  0.00  0.00    +0.000 C 
ATOM     19  C   UNL     1      -4.571  12.871  25.013  0.00  0.00    +0.000 C 
ENDROOT
BRANCH  16  20
ATOM     20  C   UNL     1      -2.062  14.659  23.034  0.00  0.00    +0.000 A 
ATOM     21  C   UNL     1      -1.734  15.840  22.348  0.00  0.00    +0.000 A 
ATOM     22  C   UNL     1      -0.897  16.800  22.929  0.00  0.00    +0.000 A 
ATOM     23  C   UNL     1      -0.497  16.663  24.253  0.00  0.00    +0.000 A 
ATOM     24  F   UNL     1       0.377  17.532  24.781  0.00  0.00    +0.000 F 
ATOM     25  C   UNL     1      -0.995  15.632  25.027  0.00  0.00    +0.000 A 
ATOM     26  C   UNL     1      -1.805  14.658  24.429  0.00  0.00    +0.000 A 
ENDBRANCH  16  20
BRANCH   1  28
ATOM     27  C   UNL     1      -7.876  11.798  21.322  0.00  0.00    +0.000 C 
ATOM     28  C   UNL     1      -7.242  12.275  22.242  0.00  0.00    +0.000 C 
ENDBRANCH   1  28
BRANCH   1  29
ATOM     29  O   UNL     1      -6.755  11.496  24.356  0.00  0.00    +0.000 OA
ATOM     30  H   UNL     1      -6.363  11.697  25.221  0.00  0.00    +0.000 HD
ENDBRANCH   1  29
TORSDOF 3
ENDMDL
MODEL 8
REMARK VINA RESULT:      -6.4      7.004      9.686
REMARK  Name = 
REMARK  4 active torsions:
REMARK  status: ('A' for Active; 'I' for Inactive)
REMARK    1  A    between atoms: C_2  and  C_3
REMARK    2  A    between atoms: C_3  and  O_4
REMARK    3  A    between atoms: C_19  and  C_20
REMARK    4  A    between atoms: C_28  and  C_29
REMARK                            x       y       z     vdW  Elec       q    Type
REMARK                         _______ _______ _______ _____ _____    ______ ____
ROOT
ATOM      1  C   UNL     1       2.197  14.043  18.873  0.00  0.00    +0.000 C 
ATOM      2  C   UNL     1       3.120  14.139  20.133  0.00  0.00    +0.000 C 
ATOM      3  C   UNL     1       2.369  13.379  21.223  0.00  0.00    +0.000 C 
ATOM      4  C   UNL     1       0.888  13.478  20.838  0.00  0.00    +0.000 C 
ATOM      5  C   UNL     1       0.031  12.114  20.800  0.00  0.00    +0.000 C 
ATOM      6  C   UNL     1       0.655  10.805  20.294  0.00  0.00    +0.000 C 
ATOM      7  C   UNL     1       0.315  10.497  18.844  0.00  0.00    +0.000 C 
ATOM      8  C   UNL     1      -1.147  10.516  18.519  0.00  0.00    +0.000 C 
ATOM      9  C   UNL     1      -1.544   9.932  17.374  0.00  0.00    +0.000 C 
ATOM     10  C   UNL     1      -2.913  10.123  16.857  0.00  0.00    +0.000 C 
ATOM     11  O   UNL     1      -3.183   9.802  15.703  0.00  0.00    +0.000 OA
ATOM     12  C   UNL     1      -3.933  10.652  17.820  0.00  0.00    +0.000 C 
ATOM     13  C   UNL     1      -3.323  11.791  18.622  0.00  0.00    +0.000 C 
ATOM     14  C   UNL     1      -1.969  11.478  19.248  0.00  0.00    +0.000 C 
ATOM     15  C   UNL     1      -1.364  12.304  20.146  0.00  0.00    +0.000 C 
ATOM     16  C   UNL     1      -1.771  13.772  20.146  0.00  0.00    +0.000 C 
ATOM     17  C   UNL     1      -0.676  14.218  19.012  0.00  0.00    +0.000 C 
ATOM     18  C   UNL     1       0.788  14.360  19.552  0.00  0.00    +0.000 C 
ATOM     19  C   UNL     1       0.836  15.926  19.698  0.00  0.00    +0.000 C 
ENDROOT
BRANCH  16  20
ATOM     20  C   UNL     1      -1.871  14.343  21.588  0.00  0.00    +0.000 A 
ATOM     21  C   UNL     1      -1.578  15.679  21.905  0.00  0.00    +0.000 A 
ATOM     22  C   UNL     1      -1.233  16.049  23.210  0.00  0.00    +0.000 A 
ATOM     23  C   UNL     1      -1.318  15.121  24.241  0.00  0.00    +0.000 A 
ATOM     24  F   UNL     1      -0.901  15.450  25.472  0.00  0.00    +0.000 F 
ATOM     25  C   UNL     1      -1.828  13.860  24.001  0.00  0.00    +0.000 A 
ATOM     26  C   UNL     1      -2.140  13.487  22.687  0.00  0.00    +0.000 A 
ENDBRANCH  16  20
BRANCH   1  28
ATOM     27  C   UNL     1       2.924  11.795  17.600  0.00  0.00    +0.000 C 
ATOM     28  C   UNL     1       2.557  12.732  18.280  0.00  0.00    +0.000 C 
ENDBRANCH   1  28
BRANCH   1  29
ATOM     29  O   UNL     1       2.569  15.005  17.897  0.00  0.00    +0.000 OA
ATOM     30  H   UNL     1       1.761  15.404  17.536  0.00  0.00    +0.000 HD
ENDBRANCH   1  29
TORSDOF 3
ENDMDL
MODEL 9
REMARK VINA RESULT:      -6.4      6.939      9.508
REMARK  Name = 
REMARK  4 active torsions:
REMARK  status: ('A' for Active; 'I' for Inactive)
REMARK    1  A    between atoms: C_2  and  C_3
REMARK    2  A    between atoms: C_3  and  O_4
REMARK    3  A    between atoms: C_19  and  C_20
REMARK    4  A    between atoms: C_28  and  C_29
REMARK                            x       y       z     vdW  Elec       q    Type
REMARK                         _______ _______ _______ _____ _____    ______ ____
ROOT
ATOM      1  C   UNL     1       1.697  13.526  19.151  0.00  0.00    +0.000 C 
ATOM      2  C   UNL     1       2.422  13.400  20.532  0.00  0.00    +0.000 C 
ATOM      3  C   UNL     1       1.474  12.571  21.394  0.00  0.00    +0.000 C 
ATOM      4  C   UNL     1       0.077  12.827  20.819  0.00  0.00    +0.000 C 
ATOM      5  C   UNL     1      -0.840  11.546  20.480  0.00  0.00    +0.000 C 
ATOM      6  C   UNL     1      -0.222  10.264  19.902  0.00  0.00    +0.000 C 
ATOM      7  C   UNL     1      -0.356  10.161  18.391  0.00  0.00    +0.000 C 
ATOM      8  C   UNL     1      -1.749  10.328  17.865  0.00  0.00    +0.000 C 
ATOM      9  C   UNL     1      -2.000   9.920  16.609  0.00  0.00    +0.000 C 
ATOM     10  C   UNL     1      -3.262  10.273  15.931  0.00  0.00    +0.000 C 
ATOM     11  O   UNL     1      -3.372  10.116  14.718  0.00  0.00    +0.000 OA
ATOM     12  C   UNL     1      -4.385  10.757  16.799  0.00  0.00    +0.000 C 
ATOM     13  C   UNL     1      -3.840  11.741  17.822  0.00  0.00    +0.000 C 
ATOM     14  C   UNL     1      -2.616  11.254  18.589  0.00  0.00    +0.000 C 
ATOM     15  C   UNL     1      -2.108  11.918  19.665  0.00  0.00    +0.000 C 
ATOM     16  C   UNL     1      -2.427  13.401  19.799  0.00  0.00    +0.000 C 
ATOM     17  C   UNL     1      -1.150  13.898  18.901  0.00  0.00    +0.000 C 
ATOM     18  C   UNL     1       0.221  13.863  19.658  0.00  0.00    +0.000 C 
ATOM     19  C   UNL     1       0.334  15.392  20.013  0.00  0.00    +0.000 C 
ENDROOT
BRANCH  16  20
ATOM     20  C   UNL     1      -2.712  13.798  21.274  0.00  0.00    +0.000 A 
ATOM     21  C   UNL     1      -2.538  15.103  21.763  0.00  0.00    +0.000 A 
ATOM     22  C   UNL     1      -2.354  15.340  23.130  0.00  0.00    +0.000 A 
ATOM     23  C   UNL     1      -2.486  14.298  24.040  0.00  0.00    +0.000 A 
ATOM     24  F   UNL     1      -2.220  14.506  25.337  0.00  0.00    +0.000 F 
ATOM     25  C   UNL     1      -2.888  13.048  23.611  0.00  0.00    +0.000 A 
ATOM     26  C   UNL     1      -3.039  12.811  22.239  0.00  0.00    +0.000 A 
ENDBRANCH  16  20
BRANCH   1  28
ATOM     27  C   UNL     1       2.584  11.368  17.825  0.00  0.00    +0.000 C 
ATOM     28  C   UNL     1       2.068  12.273  18.450  0.00  0.00    +0.000 C 
ENDBRANCH   1  28
BRANCH   1  29
ATOM     29  O   UNL     1       2.265  14.569  18.373  0.00  0.00    +0.000 OA
ATOM     30  H   UNL     1       2.868  15.080  18.938  0.00  0.00    +0.000 HD
ENDBRANCH   1  29
TORSDOF 3
ENDMDL
