MODEL 1
REMARK VINA RESULT:      -6.7      0.000      0.000
REMARK  Name = 
REMARK  5 active torsions:
REMARK  status: ('A' for Active; 'I' for Inactive)
REMARK    1  A    between atoms: C_1  and  C_2
REMARK    2  A    between atoms: C_2  and  N_3
REMARK    3  A    between atoms: C_5  and  C_6
REMARK    4  A    between atoms: C_6  and  O_8
REMARK    5  A    between atoms: C_16  and  N_17
REMARK                            x       y       z     vdW  Elec       q    Type
REMARK                         _______ _______ _______ _____ _____    ______ ____
ROOT
ATOM      1  N   UNL     1       2.097   5.742  20.642  0.00  0.00    +0.000 N 
ATOM      2  C   UNL     1       1.263   6.663  21.264  0.00  0.00    +0.000 A 
ATOM      3  C   UNL     1       0.985   7.902  20.836  0.00  0.00    +0.000 A 
ATOM      4  C   UNL     1       1.629   8.333  19.581  0.00  0.00    +0.000 A 
ATOM      5  O   UNL     1       1.363   9.444  19.128  0.00  0.00    +0.000 OA
ATOM      6  C   UNL     1       2.570   7.402  18.918  0.00  0.00    +0.000 A 
ATOM      7  C   UNL     1       3.233   7.813  17.760  0.00  0.00    +0.000 A 
ATOM      8  F   UNL     1       3.041   9.036  17.245  0.00  0.00    +0.000 F 
ATOM      9  C   UNL     1       4.105   6.953  17.100  0.00  0.00    +0.000 A 
ATOM     10  F   UNL     1       4.670   7.387  15.961  0.00  0.00    +0.000 F 
ATOM     11  C   UNL     1       4.346   5.654  17.560  0.00  0.00    +0.000 A 
ATOM     12  C   UNL     1       3.682   5.284  18.756  0.00  0.00    +0.000 A 
ATOM     13  F   UNL     1       3.979   4.073  19.258  0.00  0.00    +0.000 F 
ATOM     14  C   UNL     1       2.781   6.118  19.457  0.00  0.00    +0.000 A 
ENDROOT
BRANCH  11  15
ATOM     15  N   UNL     1       5.171   4.757  16.899  0.00  0.00    +0.000 N 
ATOM     16  C   UNL     1       6.625   4.667  17.103  0.00  0.00    +0.000 C 
ATOM     17  C   UNL     1       7.365   4.878  15.775  0.00  0.00    +0.000 C 
ATOM     18  O   UNL     1       6.883   3.988  14.750  0.00  0.00    +0.000 OA
ATOM     19  C   UNL     1       5.483   4.203  14.524  0.00  0.00    +0.000 C 
ATOM     20  C   UNL     1       4.659   3.932  15.791  0.00  0.00    +0.000 C 
ENDBRANCH  11  15
BRANCH   1  22
ATOM     21  C   UNL     1       1.105   3.472  20.794  0.00  0.00    +0.000 C 
ATOM     22  C   UNL     1       2.255   4.382  21.203  0.00  0.00    +0.000 C 
ENDBRANCH   1  22
BRANCH   3  23
ATOM     23  C   UNL     1       0.059   8.753  21.615  0.00  0.00    +0.000 C 
ATOM     24  O   UNL     1      -0.907   8.313  22.218  0.00  0.00    +0.000 OA
BRANCH  23  25
ATOM     25  O   UNL     1       0.366  10.068  21.611  0.00  0.00    +0.000 OA
ATOM     26  H   UNL     1       0.803  10.382  20.780  0.00  0.00    +0.000 HD
ENDBRANCH  23  25
ENDBRANCH   3  23
TORSDOF 4
ENDMDL
MODEL 2
REMARK VINA RESULT:      -6.7      2.951      3.955
REMARK  Name = 
REMARK  5 active torsions:
REMARK  status: ('A' for Active; 'I' for Inactive)
REMARK    1  A    between atoms: C_1  and  C_2
REMARK    2  A    between atoms: C_2  and  N_3
REMARK    3  A    between atoms: C_5  and  C_6
REMARK    4  A    between atoms: C_6  and  O_8
REMARK    5  A    between atoms: C_16  and  N_17
REMARK                            x       y       z     vdW  Elec       q    Type
REMARK                         _______ _______ _______ _____ _____    ______ ____
ROOT
ATOM      1  N   UNL     1       0.780   8.930  20.815  0.00  0.00    +0.000 N 
ATOM      2  C   UNL     1       0.685  10.273  20.471  0.00  0.00    +0.000 A 
ATOM      3  C   UNL     1       1.160  10.844  19.356  0.00  0.00    +0.000 A 
ATOM      4  C   UNL     1       1.857   9.963  18.401  0.00  0.00    +0.000 A 
ATOM      5  O   UNL     1       2.266  10.438  17.344  0.00  0.00    +0.000 OA
ATOM      6  C   UNL     1       2.031   8.537  18.757  0.00  0.00    +0.000 A 
ATOM      7  C   UNL     1       2.737   7.699  17.892  0.00  0.00    +0.000 A 
ATOM      8  F   UNL     1       3.266   8.164  16.752  0.00  0.00    +0.000 F 
ATOM      9  C   UNL     1       2.895   6.349  18.187  0.00  0.00    +0.000 A 
ATOM     10  F   UNL     1       3.537   5.583  17.289  0.00  0.00    +0.000 F 
ATOM     11  C   UNL     1       2.357   5.780  19.346  0.00  0.00    +0.000 A 
ATOM     12  C   UNL     1       1.677   6.667  20.216  0.00  0.00    +0.000 A 
ATOM     13  F   UNL     1       1.237   6.152  21.377  0.00  0.00    +0.000 F 
ATOM     14  C   UNL     1       1.480   8.043  19.957  0.00  0.00    +0.000 A 
ENDROOT
BRANCH  11  15
ATOM     15  N   UNL     1       2.458   4.430  19.645  0.00  0.00    +0.000 N 
ATOM     16  C   UNL     1       3.721   3.744  19.955  0.00  0.00    +0.000 C 
ATOM     17  C   UNL     1       3.952   2.582  18.978  0.00  0.00    +0.000 C 
ATOM     18  O   UNL     1       2.822   1.690  18.935  0.00  0.00    +0.000 OA
ATOM     19  C   UNL     1       1.646   2.400  18.520  0.00  0.00    +0.000 C 
ATOM     20  C   UNL     1       1.298   3.534  19.496  0.00  0.00    +0.000 C 
ENDBRANCH  11  15
BRANCH   1  22
ATOM     21  C   UNL     1      -0.004   9.538  23.090  0.00  0.00    +0.000 C 
ATOM     22  C   UNL     1       0.145   8.431  22.054  0.00  0.00    +0.000 C 
ENDBRANCH   1  22
BRANCH   3  23
ATOM     23  C   UNL     1       0.958  12.293  19.137  0.00  0.00    +0.000 C 
ATOM     24  O   UNL     1       1.344  13.149  19.917  0.00  0.00    +0.000 OA
BRANCH  23  25
ATOM     25  O   UNL     1       0.309  12.604  17.993  0.00  0.00    +0.000 OA
ATOM     26  H   UNL     1      -0.382  11.947  17.726  0.00  0.00    +0.000 HD
ENDBRANCH  23  25
ENDBRANCH   3  23
TORSDOF 4
ENDMDL
MODEL 3
REMARK VINA RESULT:      -6.5      3.090      6.521
REMARK  Name = 
REMARK  5 active torsions:
REMARK  status: ('A' for Active; 'I' for Inactive)
REMARK    1  A    between atoms: C_1  and  C_2
REMARK    2  A    between atoms: C_2  and  N_3
REMARK    3  A    between atoms: C_5  and  C_6
REMARK    4  A    between atoms: C_6  and  O_8
REMARK    5  A    between atoms: C_16  and  N_17
REMARK                            x       y       z     vdW  Elec       q    Type
REMARK                         _______ _______ _______ _____ _____    ______ ____
ROOT
ATOM      1  N   UNL     1       4.122   5.492  17.604  0.00  0.00    +0.000 N 
ATOM      2  C   UNL     1       4.476   4.241  18.095  0.00  0.00    +0.000 A 
ATOM      3  C   UNL     1       4.028   3.673  19.223  0.00  0.00    +0.000 A 
ATOM      4  C   UNL     1       3.068   4.452  20.026  0.00  0.00    +0.000 A 
ATOM      5  O   UNL     1       2.597   3.948  21.042  0.00  0.00    +0.000 OA
ATOM      6  C   UNL     1       2.709   5.813  19.567  0.00  0.00    +0.000 A 
ATOM      7  C   UNL     1       1.845   6.589  20.343  0.00  0.00    +0.000 A 
ATOM      8  F   UNL     1       1.344   6.127  21.497  0.00  0.00    +0.000 F 
ATOM      9  C   UNL     1       1.470   7.862  19.926  0.00  0.00    +0.000 A 
ATOM     10  F   UNL     1       0.593   8.536  20.689  0.00  0.00    +0.000 F 
ATOM     11  C   UNL     1       1.932   8.410  18.725  0.00  0.00    +0.000 A 
ATOM     12  C   UNL     1       2.834   7.608  17.982  0.00  0.00    +0.000 A 
ATOM     13  F   UNL     1       3.358   8.161  16.875  0.00  0.00    +0.000 F 
ATOM     14  C   UNL     1       3.238   6.306  18.357  0.00  0.00    +0.000 A 
ENDROOT
BRANCH  11  15
ATOM     15  N   UNL     1       1.540   9.655  18.261  0.00  0.00    +0.000 N 
ATOM     16  C   UNL     1       2.396  10.852  18.279  0.00  0.00    +0.000 C 
ATOM     17  C   UNL     1       1.721  11.979  19.074  0.00  0.00    +0.000 C 
ATOM     18  O   UNL     1       0.390  12.246  18.593  0.00  0.00    +0.000 OA
ATOM     19  C   UNL     1      -0.423  11.068  18.704  0.00  0.00    +0.000 C 
ATOM     20  C   UNL     1       0.144   9.911  17.868  0.00  0.00    +0.000 C 
ENDBRANCH  11  15
BRANCH   1  22
ATOM     21  C   UNL     1       5.455   4.872  15.605  0.00  0.00    +0.000 C 
ATOM     22  C   UNL     1       4.651   5.959  16.304  0.00  0.00    +0.000 C 
ENDBRANCH   1  22
BRANCH   3  23
ATOM     23  C   UNL     1       4.498   2.320  19.594  0.00  0.00    +0.000 C 
ATOM     24  O   UNL     1       5.168   2.094  20.589  0.00  0.00    +0.000 OA
BRANCH  23  25
ATOM     25  O   UNL     1       4.126   1.341  18.740  0.00  0.00    +0.000 OA
ATOM     26  H   UNL     1       4.880   0.813  18.373  0.00  0.00    +0.000 HD
ENDBRANCH  23  25
ENDBRANCH   3  23
TORSDOF 4
ENDMDL
MODEL 4
REMARK VINA RESULT:      -6.4      3.381      7.323
REMARK  Name = 
REMARK  5 active torsions:
REMARK  status: ('A' for Active; 'I' for Inactive)
REMARK    1  A    between atoms: C_1  and  C_2
REMARK    2  A    between atoms: C_2  and  N_3
REMARK    3  A    between atoms: C_5  and  C_6
REMARK    4  A    between atoms: C_6  and  O_8
REMARK    5  A    between atoms: C_16  and  N_17
REMARK                            x       y       z     vdW  Elec       q    Type
REMARK                         _______ _______ _______ _____ _____    ______ ____
ROOT
ATOM      1  N   UNL     1       7.030   5.254  17.068  0.00  0.00    +0.000 N 
ATOM      2  C   UNL     1       7.559   5.327  15.785  0.00  0.00    +0.000 A 
ATOM      3  C   UNL     1       6.962   4.927  14.654  0.00  0.00    +0.000 A 
ATOM      4  C   UNL     1       5.612   4.348  14.782  0.00  0.00    +0.000 A 
ATOM      5  O   UNL     1       5.010   4.013  13.764  0.00  0.00    +0.000 OA
ATOM      6  C   UNL     1       5.036   4.200  16.138  0.00  0.00    +0.000 A 
ATOM      7  C   UNL     1       3.782   3.603  16.285  0.00  0.00    +0.000 A 
ATOM      8  F   UNL     1       3.097   3.155  15.223  0.00  0.00    +0.000 F 
ATOM      9  C   UNL     1       3.204   3.471  17.543  0.00  0.00    +0.000 A 
ATOM     10  F   UNL     1       1.973   2.938  17.613  0.00  0.00    +0.000 F 
ATOM     11  C   UNL     1       3.843   3.930  18.699  0.00  0.00    +0.000 A 
ATOM     12  C   UNL     1       5.128   4.499  18.515  0.00  0.00    +0.000 A 
ATOM     13  F   UNL     1       5.791   4.858  19.627  0.00  0.00    +0.000 F 
ATOM     14  C   UNL     1       5.754   4.664  17.258  0.00  0.00    +0.000 A 
ENDROOT
BRANCH  11  15
ATOM     15  N   UNL     1       3.273   3.856  19.960  0.00  0.00    +0.000 N 
ATOM     16  C   UNL     1       3.383   2.690  20.850  0.00  0.00    +0.000 C 
ATOM     17  C   UNL     1       1.988   2.166  21.219  0.00  0.00    +0.000 C 
ATOM     18  O   UNL     1       1.153   3.209  21.756  0.00  0.00    +0.000 OA
ATOM     19  C   UNL     1       0.998   4.265  20.797  0.00  0.00    +0.000 C 
ATOM     20  C   UNL     1       2.348   4.900  20.435  0.00  0.00    +0.000 C 
ENDBRANCH  11  15
BRANCH   1  22
ATOM     21  C   UNL     1       7.897   7.317  18.142  0.00  0.00    +0.000 C 
ATOM     22  C   UNL     1       7.784   5.800  18.217  0.00  0.00    +0.000 C 
ENDBRANCH   1  22
BRANCH   3  23
ATOM     23  C   UNL     1       7.664   5.091  13.362  0.00  0.00    +0.000 C 
ATOM     24  O   UNL     1       8.561   5.900  13.185  0.00  0.00    +0.000 OA
BRANCH  23  25
ATOM     25  O   UNL     1       7.234   4.269  12.380  0.00  0.00    +0.000 OA
ATOM     26  H   UNL     1       6.259   4.308  12.214  0.00  0.00    +0.000 HD
ENDBRANCH  23  25
ENDBRANCH   3  23
TORSDOF 4
ENDMDL
MODEL 5
REMARK VINA RESULT:      -6.3      3.176      4.493
REMARK  Name = 
REMARK  5 active torsions:
REMARK  status: ('A' for Active; 'I' for Inactive)
REMARK    1  A    between atoms: C_1  and  C_2
REMARK    2  A    between atoms: C_2  and  N_3
REMARK    3  A    between atoms: C_5  and  C_6
REMARK    4  A    between atoms: C_6  and  O_8
REMARK    5  A    between atoms: C_16  and  N_17
REMARK                            x       y       z     vdW  Elec       q    Type
REMARK                         _______ _______ _______ _____ _____    ______ ____
ROOT
ATOM      1  N   UNL     1       0.680   9.037  20.761  0.00  0.00    +0.000 N 
ATOM      2  C   UNL     1       0.606  10.392  20.458  0.00  0.00    +0.000 A 
ATOM      3  C   UNL     1       1.134  10.998  19.386  0.00  0.00    +0.000 A 
ATOM      4  C   UNL     1       1.871  10.146  18.435  0.00  0.00    +0.000 A 
ATOM      5  O   UNL     1       2.329  10.654  17.414  0.00  0.00    +0.000 OA
ATOM      6  C   UNL     1       2.022   8.707  18.750  0.00  0.00    +0.000 A 
ATOM      7  C   UNL     1       2.763   7.895  17.890  0.00  0.00    +0.000 A 
ATOM      8  F   UNL     1       3.347   8.396  16.792  0.00  0.00    +0.000 F 
ATOM      9  C   UNL     1       2.903   6.535  18.146  0.00  0.00    +0.000 A 
ATOM     10  F   UNL     1       3.582   5.797  17.252  0.00  0.00    +0.000 F 
ATOM     11  C   UNL     1       2.309   5.930  19.258  0.00  0.00    +0.000 A 
ATOM     12  C   UNL     1       1.594   6.792  20.126  0.00  0.00    +0.000 A 
ATOM     13  F   UNL     1       1.099   6.239  21.247  0.00  0.00    +0.000 F 
ATOM     14  C   UNL     1       1.415   8.176  19.905  0.00  0.00    +0.000 A 
ENDROOT
BRANCH  11  15
ATOM     15  N   UNL     1       2.391   4.571  19.515  0.00  0.00    +0.000 N 
ATOM     16  C   UNL     1       1.593   3.549  18.821  0.00  0.00    +0.000 C 
ATOM     17  C   UNL     1       0.771   2.735  19.831  0.00  0.00    +0.000 C 
ATOM     18  O   UNL     1       1.600   2.189  20.875  0.00  0.00    +0.000 OA
ATOM     19  C   UNL     1       2.266   3.245  21.583  0.00  0.00    +0.000 C 
ATOM     20  C   UNL     1       3.176   4.061  20.653  0.00  0.00    +0.000 C 
ENDBRANCH  11  15
BRANCH   1  22
ATOM     21  C   UNL     1      -0.200   9.571  23.019  0.00  0.00    +0.000 C 
ATOM     22  C   UNL     1      -0.014   8.501  21.952  0.00  0.00    +0.000 C 
ENDBRANCH   1  22
BRANCH   3  23
ATOM     23  C   UNL     1       0.949  12.455  19.208  0.00  0.00    +0.000 C 
ATOM     24  O   UNL     1       1.114  13.266  20.105  0.00  0.00    +0.000 OA
BRANCH  23  25
ATOM     25  O   UNL     1       0.580  12.826  17.962  0.00  0.00    +0.000 OA
ATOM     26  H   UNL     1      -0.276  13.322  17.922  0.00  0.00    +0.000 HD
ENDBRANCH  23  25
ENDBRANCH   3  23
TORSDOF 4
ENDMDL
MODEL 6
REMARK VINA RESULT:      -6.1      2.361      6.494
REMARK  Name = 
REMARK  5 active torsions:
REMARK  status: ('A' for Active; 'I' for Inactive)
REMARK    1  A    between atoms: C_1  and  C_2
REMARK    2  A    between atoms: C_2  and  N_3
REMARK    3  A    between atoms: C_5  and  C_6
REMARK    4  A    between atoms: C_6  and  O_8
REMARK    5  A    between atoms: C_16  and  N_17
REMARK                            x       y       z     vdW  Elec       q    Type
REMARK                         _______ _______ _______ _____ _____    ______ ____
ROOT
ATOM      1  N   UNL     1       2.526   5.127  20.031  0.00  0.00    +0.000 N 
ATOM      2  C   UNL     1       3.289   4.195  19.339  0.00  0.00    +0.000 A 
ATOM      3  C   UNL     1       3.940   4.397  18.185  0.00  0.00    +0.000 A 
ATOM      4  C   UNL     1       3.834   5.740  17.587  0.00  0.00    +0.000 A 
ATOM      5  O   UNL     1       4.454   5.982  16.554  0.00  0.00    +0.000 OA
ATOM      6  C   UNL     1       2.982   6.746  18.263  0.00  0.00    +0.000 A 
ATOM      7  C   UNL     1       2.824   8.006  17.683  0.00  0.00    +0.000 A 
ATOM      8  F   UNL     1       3.420   8.317  16.523  0.00  0.00    +0.000 F 
ATOM      9  C   UNL     1       2.051   8.980  18.306  0.00  0.00    +0.000 A 
ATOM     10  F   UNL     1       1.982  10.190  17.726  0.00  0.00    +0.000 F 
ATOM     11  C   UNL     1       1.412   8.743  19.528  0.00  0.00    +0.000 A 
ATOM     12  C   UNL     1       1.567   7.443  20.069  0.00  0.00    +0.000 A 
ATOM     13  F   UNL     1       0.882   7.174  21.193  0.00  0.00    +0.000 F 
ATOM     14  C   UNL     1       2.349   6.423  19.480  0.00  0.00    +0.000 A 
ENDROOT
BRANCH  11  15
ATOM     15  N   UNL     1       0.674   9.707  20.197  0.00  0.00    +0.000 N 
ATOM     16  C   UNL     1      -0.718  10.054  19.874  0.00  0.00    +0.000 C 
ATOM     17  C   UNL     1      -0.833  11.547  19.537  0.00  0.00    +0.000 C 
ATOM     18  O   UNL     1      -0.273  12.372  20.577  0.00  0.00    +0.000 OA
ATOM     19  C   UNL     1       1.114  12.058  20.766  0.00  0.00    +0.000 C 
ATOM     20  C   UNL     1       1.309  10.594  21.187  0.00  0.00    +0.000 C 
ENDBRANCH  11  15
BRANCH   1  22
ATOM     21  C   UNL     1       1.938   3.271  21.569  0.00  0.00    +0.000 C 
ATOM     22  C   UNL     1       1.919   4.775  21.333  0.00  0.00    +0.000 C 
ENDBRANCH   1  22
BRANCH   3  23
ATOM     23  C   UNL     1       4.723   3.294  17.587  0.00  0.00    +0.000 C 
ATOM     24  O   UNL     1       4.308   2.149  17.497  0.00  0.00    +0.000 OA
BRANCH  23  25
ATOM     25  O   UNL     1       5.947   3.651  17.140  0.00  0.00    +0.000 OA
ATOM     26  H   UNL     1       6.019   4.599  16.864  0.00  0.00    +0.000 HD
ENDBRANCH  23  25
ENDBRANCH   3  23
TORSDOF 4
ENDMDL
MODEL 7
REMARK VINA RESULT:      -6.1      2.723      3.996
REMARK  Name = 
REMARK  5 active torsions:
REMARK  status: ('A' for Active; 'I' for Inactive)
REMARK    1  A    between atoms: C_1  and  C_2
REMARK    2  A    between atoms: C_2  and  N_3
REMARK    3  A    between atoms: C_5  and  C_6
REMARK    4  A    between atoms: C_6  and  O_8
REMARK    5  A    between atoms: C_16  and  N_17
REMARK                            x       y       z     vdW  Elec       q    Type
REMARK                         _______ _______ _______ _____ _____    ______ ____
ROOT
ATOM      1  N   UNL     1       0.078   9.651  21.220  0.00  0.00    +0.000 N 
ATOM      2  C   UNL     1      -0.372  10.963  21.137  0.00  0.00    +0.000 A 
ATOM      3  C   UNL     1      -0.125  11.827  20.144  0.00  0.00    +0.000 A 
ATOM      4  C   UNL     1       0.711  11.342  19.030  0.00  0.00    +0.000 A 
ATOM      5  O   UNL     1       0.921  12.087  18.076  0.00  0.00    +0.000 OA
ATOM      6  C   UNL     1       1.258   9.968  19.108  0.00  0.00    +0.000 A 
ATOM      7  C   UNL     1       2.097   9.509  18.091  0.00  0.00    +0.000 A 
ATOM      8  F   UNL     1       2.421  10.291  17.052  0.00  0.00    +0.000 F 
ATOM      9  C   UNL     1       2.607   8.215  18.123  0.00  0.00    +0.000 A 
ATOM     10  F   UNL     1       3.363   7.815  17.088  0.00  0.00    +0.000 F 
ATOM     11  C   UNL     1       2.300   7.329  19.161  0.00  0.00    +0.000 A 
ATOM     12  C   UNL     1       1.475   7.841  20.193  0.00  0.00    +0.000 A 
ATOM     13  F   UNL     1       1.251   7.030  21.241  0.00  0.00    +0.000 F 
ATOM     14  C   UNL     1       0.924   9.143  20.201  0.00  0.00    +0.000 A 
ENDROOT
BRANCH  11  15
ATOM     15  N   UNL     1       2.755   6.020  19.199  0.00  0.00    +0.000 N 
ATOM     16  C   UNL     1       4.140   5.634  19.505  0.00  0.00    +0.000 C 
ATOM     17  C   UNL     1       4.735   4.815  18.351  0.00  0.00    +0.000 C 
ATOM     18  O   UNL     1       3.899   3.692  18.009  0.00  0.00    +0.000 OA
ATOM     19  C   UNL     1       2.596   4.145  17.616  0.00  0.00    +0.000 C 
ATOM     20  C   UNL     1       1.897   4.909  18.751  0.00  0.00    +0.000 C 
ENDBRANCH  11  15
BRANCH   1  22
ATOM     21  C   UNL     1      -0.053   9.460  23.691  0.00  0.00    +0.000 C 
ATOM     22  C   UNL     1      -0.334   8.792  22.352  0.00  0.00    +0.000 C 
ENDBRANCH   1  22
BRANCH   3  23
ATOM     23  C   UNL     1      -0.696  13.191  20.204  0.00  0.00    +0.000 C 
ATOM     24  O   UNL     1      -0.538  13.941  21.154  0.00  0.00    +0.000 OA
BRANCH  23  25
ATOM     25  O   UNL     1      -1.414  13.549  19.117  0.00  0.00    +0.000 OA
ATOM     26  H   UNL     1      -0.945  14.173  18.508  0.00  0.00    +0.000 HD
ENDBRANCH  23  25
ENDBRANCH   3  23
TORSDOF 4
ENDMDL
MODEL 8
REMARK VINA RESULT:      -6.1      8.603     12.201
REMARK  Name = 
REMARK  5 active torsions:
REMARK  status: ('A' for Active; 'I' for Inactive)
REMARK    1  A    between atoms: C_1  and  C_2
REMARK    2  A    between atoms: C_2  and  N_3
REMARK    3  A    between atoms: C_5  and  C_6
REMARK    4  A    between atoms: C_6  and  O_8
REMARK    5  A    between atoms: C_16  and  N_17
REMARK                            x       y       z     vdW  Elec       q    Type
REMARK                         _______ _______ _______ _____ _____    ______ ____
ROOT
ATOM      1  N   UNL     1      -5.531  11.989  18.400  0.00  0.00    +0.000 N 
ATOM      2  C   UNL     1      -4.801  11.525  17.313  0.00  0.00    +0.000 A 
ATOM      3  C   UNL     1      -3.474  11.341  17.265  0.00  0.00    +0.000 A 
ATOM      4  C   UNL     1      -2.712  11.667  18.485  0.00  0.00    +0.000 A 
ATOM      5  O   UNL     1      -1.500  11.468  18.499  0.00  0.00    +0.000 OA
ATOM      6  C   UNL     1      -3.446  12.220  19.646  0.00  0.00    +0.000 A 
ATOM      7  C   UNL     1      -2.735  12.588  20.790  0.00  0.00    +0.000 A 
ATOM      8  F   UNL     1      -1.402  12.458  20.852  0.00  0.00    +0.000 F 
ATOM      9  C   UNL     1      -3.399  13.086  21.906  0.00  0.00    +0.000 A 
ATOM     10  F   UNL     1      -2.666  13.371  22.995  0.00  0.00    +0.000 F 
ATOM     11  C   UNL     1      -4.790  13.234  21.931  0.00  0.00    +0.000 A 
ATOM     12  C   UNL     1      -5.474  12.883  20.741  0.00  0.00    +0.000 A 
ATOM     13  F   UNL     1      -6.798  13.109  20.720  0.00  0.00    +0.000 F 
ATOM     14  C   UNL     1      -4.846  12.363  19.585  0.00  0.00    +0.000 A 
ENDROOT
BRANCH  11  15
ATOM     15  N   UNL     1      -5.484  13.683  23.043  0.00  0.00    +0.000 N 
ATOM     16  C   UNL     1      -6.163  12.803  24.006  0.00  0.00    +0.000 C 
ATOM     17  C   UNL     1      -7.653  13.160  24.099  0.00  0.00    +0.000 C 
ATOM     18  O   UNL     1      -7.848  14.559  24.380  0.00  0.00    +0.000 OA
ATOM     19  C   UNL     1      -7.257  15.360  23.346  0.00  0.00    +0.000 C 
ATOM     20  C   UNL     1      -5.744  15.120  23.243  0.00  0.00    +0.000 C 
ENDBRANCH  11  15
BRANCH   1  22
ATOM     21  C   UNL     1      -7.452  13.241  17.451  0.00  0.00    +0.000 C 
ATOM     22  C   UNL     1      -7.006  12.076  18.324  0.00  0.00    +0.000 C 
ENDBRANCH   1  22
BRANCH   3  23
ATOM     23  C   UNL     1      -2.854  10.822  16.027  0.00  0.00    +0.000 C 
ATOM     24  O   UNL     1      -3.235  11.128  14.908  0.00  0.00    +0.000 OA
BRANCH  23  25
ATOM     25  O   UNL     1      -1.820   9.976  16.227  0.00  0.00    +0.000 OA
ATOM     26  H   UNL     1      -0.930  10.409  16.206  0.00  0.00    +0.000 HD
ENDBRANCH  23  25
ENDBRANCH   3  23
TORSDOF 4
ENDMDL
MODEL 9
REMARK VINA RESULT:      -6.1      3.024      6.716
REMARK  Name = 
REMARK  5 active torsions:
REMARK  status: ('A' for Active; 'I' for Inactive)
REMARK    1  A    between atoms: C_1  and  C_2
REMARK    2  A    between atoms: C_2  and  N_3
REMARK    3  A    between atoms: C_5  and  C_6
REMARK    4  A    between atoms: C_6  and  O_8
REMARK    5  A    between atoms: C_16  and  N_17
REMARK                            x       y       z     vdW  Elec       q    Type
REMARK                         _______ _______ _______ _____ _____    ______ ____
ROOT
ATOM      1  N   UNL     1       4.051   5.375  17.710  0.00  0.00    +0.000 N 
ATOM      2  C   UNL     1       4.390   4.053  17.966  0.00  0.00    +0.000 A 
ATOM      3  C   UNL     1       3.914   3.286  18.956  0.00  0.00    +0.000 A 
ATOM      4  C   UNL     1       2.935   3.906  19.868  0.00  0.00    +0.000 A 
ATOM      5  O   UNL     1       2.438   3.223  20.760  0.00  0.00    +0.000 OA
ATOM      6  C   UNL     1       2.590   5.332  19.665  0.00  0.00    +0.000 A 
ATOM      7  C   UNL     1       1.709   5.954  20.551  0.00  0.00    +0.000 A 
ATOM      8  F   UNL     1       1.178   5.286  21.585  0.00  0.00    +0.000 F 
ATOM      9  C   UNL     1       1.346   7.284  20.372  0.00  0.00    +0.000 A 
ATOM     10  F   UNL     1       0.452   7.810  21.226  0.00  0.00    +0.000 F 
ATOM     11  C   UNL     1       1.839   8.045  19.307  0.00  0.00    +0.000 A 
ATOM     12  C   UNL     1       2.757   7.391  18.448  0.00  0.00    +0.000 A 
ATOM     13  F   UNL     1       3.310   8.139  17.478  0.00  0.00    +0.000 F 
ATOM     14  C   UNL     1       3.149   6.040  18.582  0.00  0.00    +0.000 A 
ENDROOT
BRANCH  11  15
ATOM     15  N   UNL     1       1.461   9.358  19.075  0.00  0.00    +0.000 N 
ATOM     16  C   UNL     1       1.664  10.458  20.029  0.00  0.00    +0.000 C 
ATOM     17  C   UNL     1       0.323  11.122  20.373  0.00  0.00    +0.000 C 
ATOM     18  O   UNL     1      -0.389  11.528  19.189  0.00  0.00    +0.000 OA
ATOM     19  C   UNL     1      -0.650  10.392  18.353  0.00  0.00    +0.000 C 
ATOM     20  C   UNL     1       0.651   9.715  17.897  0.00  0.00    +0.000 C 
ENDBRANCH  11  15
BRANCH   1  22
ATOM     21  C   UNL     1       5.444   5.136  15.671  0.00  0.00    +0.000 C 
ATOM     22  C   UNL     1       4.612   6.075  16.534  0.00  0.00    +0.000 C 
ENDBRANCH   1  22
BRANCH   3  23
ATOM     23  C   UNL     1       4.372   1.884  19.078  0.00  0.00    +0.000 C 
ATOM     24  O   UNL     1       4.014   0.995  18.323  0.00  0.00    +0.000 OA
BRANCH  23  25
ATOM     25  O   UNL     1       5.228   1.659  20.099  0.00  0.00    +0.000 OA
ATOM     26  H   UNL     1       6.029   2.242  20.094  0.00  0.00    +0.000 HD
ENDBRANCH  23  25
ENDBRANCH   3  23
TORSDOF 4
ENDMDL
