MODEL 1
REMARK VINA RESULT:      -8.7      0.000      0.000
REMARK  Name = 
REMARK  5 active torsions:
REMARK  status: ('A' for Active; 'I' for Inactive)
REMARK    1  A    between atoms: C_1  and  C_2
REMARK    2  A    between atoms: C_8  and  C_9
REMARK    3  A    between atoms: C_12  and  N_13
REMARK    4  A    between atoms: C_20  and  C_21
REMARK    5  A    between atoms: C_21  and  C_22
REMARK                            x       y       z     vdW  Elec       q    Type
REMARK                         _______ _______ _______ _____ _____    ______ ____
ROOT
ATOM      1  C   UNL     1      -0.238   9.355  21.894  0.00  0.00    +0.000 C 
ATOM      2  C   UNL     1       0.641   8.516  21.039  0.00  0.00    +0.000 A 
ATOM      3  N   UNL     1       0.871   7.256  21.431  0.00  0.00    +0.000 NA
ATOM      4  N   UNL     1       1.698   6.752  20.488  0.00  0.00    +0.000 N 
ATOM      5  C   UNL     1       2.201   5.440  20.527  0.00  0.00    +0.000 A 
ATOM      6  O   UNL     1       1.931   4.655  21.427  0.00  0.00    +0.000 OA
ATOM      7  C   UNL     1       3.085   5.094  19.382  0.00  0.00    +0.000 A 
ATOM      8  C   UNL     1       3.348   6.030  18.455  0.00  0.00    +0.000 A 
ATOM      9  N   UNL     1       2.837   7.312  18.515  0.00  0.00    +0.000 N 
ATOM     10  C   UNL     1       1.999   7.685  19.509  0.00  0.00    +0.000 A 
ATOM     11  C   UNL     1       1.336   8.851  19.830  0.00  0.00    +0.000 A 
ATOM     12  H   UNL     1       3.103   7.941  17.758  0.00  0.00    +0.000 HD
ENDROOT
BRANCH   8  13
ATOM     13  C   UNL     1       4.204   5.696  17.311  0.00  0.00    +0.000 A 
ATOM     14  C   UNL     1       4.725   6.717  16.504  0.00  0.00    +0.000 A 
ATOM     15  C   UNL     1       5.564   6.411  15.429  0.00  0.00    +0.000 A 
ATOM     16  C   UNL     1       5.877   5.071  15.160  0.00  0.00    +0.000 A 
ATOM     17  C   UNL     1       5.347   4.043  15.951  0.00  0.00    +0.000 A 
ATOM     18  C   UNL     1       4.512   4.359  17.026  0.00  0.00    +0.000 A 
BRANCH  16  19
ATOM     19  N   UNL     1       6.777   4.744  14.048  0.00  0.00    +0.000 N 
ATOM     20  O   UNL     1       6.438   3.831  13.281  0.00  0.00    +0.000 OA
ATOM     21  O   UNL     1       7.819   5.407  13.935  0.00  0.00    +0.000 OA
ENDBRANCH  16  19
ENDBRANCH   8  13
BRANCH  11  22
ATOM     22  C   UNL     1       1.440  10.166  19.138  0.00  0.00    +0.000 C 
BRANCH  22  23
ATOM     23  C   UNL     1       0.076  10.561  18.620  0.00  0.00    +0.000 A 
ATOM     24  C   UNL     1      -0.619   9.719  17.738  0.00  0.00    +0.000 A 
ATOM     25  C   UNL     1      -1.939   9.995  17.371  0.00  0.00    +0.000 A 
ATOM     26  C   UNL     1      -2.579  11.122  17.881  0.00  0.00    +0.000 A 
ATOM     27 CL   UNL     1      -4.229  11.418  17.494  0.00  0.00    +0.000 Cl
ATOM     28  C   UNL     1      -1.896  11.992  18.729  0.00  0.00    +0.000 A 
ATOM     29  C   UNL     1      -0.575  11.715  19.092  0.00  0.00    +0.000 A 
ENDBRANCH  22  23
ENDBRANCH  11  22
TORSDOF 4
ENDMDL
MODEL 2
REMARK VINA RESULT:      -8.7      0.227      1.106
REMARK  Name = 
REMARK  5 active torsions:
REMARK  status: ('A' for Active; 'I' for Inactive)
REMARK    1  A    between atoms: C_1  and  C_2
REMARK    2  A    between atoms: C_8  and  C_9
REMARK    3  A    between atoms: C_12  and  N_13
REMARK    4  A    between atoms: C_20  and  C_21
REMARK    5  A    between atoms: C_21  and  C_22
REMARK                            x       y       z     vdW  Elec       q    Type
REMARK                         _______ _______ _______ _____ _____    ______ ____
ROOT
ATOM      1  C   UNL     1      -0.228   9.183  21.934  0.00  0.00    +0.000 C 
ATOM      2  C   UNL     1       0.666   8.368  21.071  0.00  0.00    +0.000 A 
ATOM      3  N   UNL     1       0.979   7.134  21.489  0.00  0.00    +0.000 NA
ATOM      4  N   UNL     1       1.799   6.649  20.532  0.00  0.00    +0.000 N 
ATOM      5  C   UNL     1       2.375   5.368  20.590  0.00  0.00    +0.000 A 
ATOM      6  O   UNL     1       2.179   4.596  21.520  0.00  0.00    +0.000 OA
ATOM      7  C   UNL     1       3.237   5.036  19.424  0.00  0.00    +0.000 A 
ATOM      8  C   UNL     1       3.417   5.957  18.462  0.00  0.00    +0.000 A 
ATOM      9  N   UNL     1       2.838   7.211  18.506  0.00  0.00    +0.000 N 
ATOM     10  C   UNL     1       2.015   7.567  19.518  0.00  0.00    +0.000 A 
ATOM     11  C   UNL     1       1.300   8.704  19.830  0.00  0.00    +0.000 A 
ATOM     12  H   UNL     1       3.042   7.831  17.722  0.00  0.00    +0.000 HD
ENDROOT
BRANCH   8  13
ATOM     13  C   UNL     1       4.250   5.636  17.299  0.00  0.00    +0.000 A 
ATOM     14  C   UNL     1       4.840   6.667  16.553  0.00  0.00    +0.000 A 
ATOM     15  C   UNL     1       5.658   6.371  15.460  0.00  0.00    +0.000 A 
ATOM     16  C   UNL     1       5.881   5.032  15.109  0.00  0.00    +0.000 A 
ATOM     17  C   UNL     1       5.282   3.996  15.838  0.00  0.00    +0.000 A 
ATOM     18  C   UNL     1       4.468   4.301  16.932  0.00  0.00    +0.000 A 
BRANCH  16  19
ATOM     19  N   UNL     1       6.759   4.714  13.977  0.00  0.00    +0.000 N 
ATOM     20  O   UNL     1       7.761   5.423  13.807  0.00  0.00    +0.000 OA
ATOM     21  O   UNL     1       6.451   3.748  13.263  0.00  0.00    +0.000 OA
ENDBRANCH  16  19
ENDBRANCH   8  13
BRANCH  11  22
ATOM     22  C   UNL     1       1.307  10.002  19.098  0.00  0.00    +0.000 C 
BRANCH  22  23
ATOM     23  C   UNL     1      -0.096  10.315  18.632  0.00  0.00    +0.000 A 
ATOM     24  C   UNL     1      -0.770  11.444  19.123  0.00  0.00    +0.000 A 
ATOM     25  C   UNL     1      -2.003  11.831  18.590  0.00  0.00    +0.000 A 
ATOM     26  C   UNL     1      -2.577  11.091  17.560  0.00  0.00    +0.000 A 
ATOM     27 CL   UNL     1      -4.054  11.614  16.851  0.00  0.00    +0.000 Cl
ATOM     28  C   UNL     1      -1.944   9.945  17.083  0.00  0.00    +0.000 A 
ATOM     29  C   UNL     1      -0.711   9.558  17.619  0.00  0.00    +0.000 A 
ENDBRANCH  22  23
ENDBRANCH  11  22
TORSDOF 4
ENDMDL
MODEL 3
REMARK VINA RESULT:      -8.6      0.275      1.323
REMARK  Name = 
REMARK  5 active torsions:
REMARK  status: ('A' for Active; 'I' for Inactive)
REMARK    1  A    between atoms: C_1  and  C_2
REMARK    2  A    between atoms: C_8  and  C_9
REMARK    3  A    between atoms: C_12  and  N_13
REMARK    4  A    between atoms: C_20  and  C_21
REMARK    5  A    between atoms: C_21  and  C_22
REMARK                            x       y       z     vdW  Elec       q    Type
REMARK                         _______ _______ _______ _____ _____    ______ ____
ROOT
ATOM      1  C   UNL     1      -0.190   9.260  21.780  0.00  0.00    +0.000 C 
ATOM      2  C   UNL     1       0.710   8.432  20.935  0.00  0.00    +0.000 A 
ATOM      3  N   UNL     1       1.029   7.209  21.379  0.00  0.00    +0.000 NA
ATOM      4  N   UNL     1       1.854   6.709  20.433  0.00  0.00    +0.000 N 
ATOM      5  C   UNL     1       2.437   5.433  20.518  0.00  0.00    +0.000 A 
ATOM      6  O   UNL     1       2.243   4.678  21.463  0.00  0.00    +0.000 OA
ATOM      7  C   UNL     1       3.304   5.083  19.361  0.00  0.00    +0.000 A 
ATOM      8  C   UNL     1       3.481   5.986  18.382  0.00  0.00    +0.000 A 
ATOM      9  N   UNL     1       2.896   7.237  18.399  0.00  0.00    +0.000 N 
ATOM     10  C   UNL     1       2.068   7.608  19.402  0.00  0.00    +0.000 A 
ATOM     11  C   UNL     1       1.346   8.747  19.689  0.00  0.00    +0.000 A 
ATOM     12  H   UNL     1       3.099   7.842  17.604  0.00  0.00    +0.000 HD
ENDROOT
BRANCH   8  13
ATOM     13  C   UNL     1       4.320   5.646  17.227  0.00  0.00    +0.000 A 
ATOM     14  C   UNL     1       4.673   4.311  16.985  0.00  0.00    +0.000 A 
ATOM     15  C   UNL     1       5.448   3.974  15.872  0.00  0.00    +0.000 A 
ATOM     16  C   UNL     1       5.875   4.984  15.000  0.00  0.00    +0.000 A 
ATOM     17  C   UNL     1       5.541   6.324  15.242  0.00  0.00    +0.000 A 
ATOM     18  C   UNL     1       4.763   6.651  16.356  0.00  0.00    +0.000 A 
BRANCH  16  19
ATOM     19  N   UNL     1       6.669   4.635  13.815  0.00  0.00    +0.000 N 
ATOM     20  O   UNL     1       6.328   3.634  13.169  0.00  0.00    +0.000 OA
ATOM     21  O   UNL     1       7.627   5.366  13.528  0.00  0.00    +0.000 OA
ENDBRANCH  16  19
ENDBRANCH   8  13
BRANCH  11  22
ATOM     22  C   UNL     1       1.348  10.030  18.932  0.00  0.00    +0.000 C 
BRANCH  22  23
ATOM     23  C   UNL     1      -0.065  10.357  18.506  0.00  0.00    +0.000 A 
ATOM     24  C   UNL     1      -0.674  11.549  18.928  0.00  0.00    +0.000 A 
ATOM     25  C   UNL     1      -1.919  11.937  18.421  0.00  0.00    +0.000 A 
ATOM     26  C   UNL     1      -2.569  11.133  17.489  0.00  0.00    +0.000 A 
ATOM     27 CL   UNL     1      -4.061  11.649  16.807  0.00  0.00    +0.000 Cl
ATOM     28  C   UNL     1      -2.000   9.926  17.085  0.00  0.00    +0.000 A 
ATOM     29  C   UNL     1      -0.757   9.539  17.595  0.00  0.00    +0.000 A 
ENDBRANCH  22  23
ENDBRANCH  11  22
TORSDOF 4
ENDMDL
MODEL 4
REMARK VINA RESULT:      -8.5      4.320      7.777
REMARK  Name = 
REMARK  5 active torsions:
REMARK  status: ('A' for Active; 'I' for Inactive)
REMARK    1  A    between atoms: C_1  and  C_2
REMARK    2  A    between atoms: C_8  and  C_9
REMARK    3  A    between atoms: C_12  and  N_13
REMARK    4  A    between atoms: C_20  and  C_21
REMARK    5  A    between atoms: C_21  and  C_22
REMARK                            x       y       z     vdW  Elec       q    Type
REMARK                         _______ _______ _______ _____ _____    ______ ____
ROOT
ATOM      1  C   UNL     1       4.234   0.954  18.116  0.00  0.00    +0.000 C 
ATOM      2  C   UNL     1       3.672   2.235  18.617  0.00  0.00    +0.000 A 
ATOM      3  N   UNL     1       2.998   2.208  19.774  0.00  0.00    +0.000 NA
ATOM      4  N   UNL     1       2.599   3.485  19.965  0.00  0.00    +0.000 N 
ATOM      5  C   UNL     1       1.840   3.896  21.075  0.00  0.00    +0.000 A 
ATOM      6  O   UNL     1       1.478   3.122  21.951  0.00  0.00    +0.000 OA
ATOM      7  C   UNL     1       1.522   5.349  21.087  0.00  0.00    +0.000 A 
ATOM      8  C   UNL     1       1.938   6.117  20.067  0.00  0.00    +0.000 A 
ATOM      9  N   UNL     1       2.651   5.619  18.994  0.00  0.00    +0.000 N 
ATOM     10  C   UNL     1       3.006   4.316  18.934  0.00  0.00    +0.000 A 
ATOM     11  C   UNL     1       3.704   3.543  18.030  0.00  0.00    +0.000 A 
ATOM     12  H   UNL     1       2.916   6.293  18.276  0.00  0.00    +0.000 HD
ENDROOT
BRANCH   8  13
ATOM     13  C   UNL     1       1.645   7.555  20.077  0.00  0.00    +0.000 A 
ATOM     14  C   UNL     1       1.204   8.173  21.256  0.00  0.00    +0.000 A 
ATOM     15  C   UNL     1       0.949   9.546  21.283  0.00  0.00    +0.000 A 
ATOM     16  C   UNL     1       1.133  10.303  20.118  0.00  0.00    +0.000 A 
ATOM     17  C   UNL     1       1.557   9.692  18.930  0.00  0.00    +0.000 A 
ATOM     18  C   UNL     1       1.813   8.318  18.914  0.00  0.00    +0.000 A 
BRANCH  16  19
ATOM     19  N   UNL     1       0.891  11.750  20.145  0.00  0.00    +0.000 N 
ATOM     20  O   UNL     1       0.530  12.295  19.092  0.00  0.00    +0.000 OA
ATOM     21  O   UNL     1       1.052  12.341  21.223  0.00  0.00    +0.000 OA
ENDBRANCH  16  19
ENDBRANCH   8  13
BRANCH  11  22
ATOM     22  C   UNL     1       4.240   3.968  16.707  0.00  0.00    +0.000 C 
BRANCH  22  23
ATOM     23  C   UNL     1       5.313   5.011  16.919  0.00  0.00    +0.000 A 
ATOM     24  C   UNL     1       5.073   6.353  16.584  0.00  0.00    +0.000 A 
ATOM     25  C   UNL     1       5.994   7.351  16.914  0.00  0.00    +0.000 A 
ATOM     26  C   UNL     1       7.169   7.017  17.582  0.00  0.00    +0.000 A 
ATOM     27 CL   UNL     1       8.264   8.254  18.060  0.00  0.00    +0.000 Cl
ATOM     28  C   UNL     1       7.446   5.686  17.892  0.00  0.00    +0.000 A 
ATOM     29  C   UNL     1       6.524   4.689  17.558  0.00  0.00    +0.000 A 
ENDBRANCH  22  23
ENDBRANCH  11  22
TORSDOF 4
ENDMDL
MODEL 5
REMARK VINA RESULT:      -7.9      4.325      7.721
REMARK  Name = 
REMARK  5 active torsions:
REMARK  status: ('A' for Active; 'I' for Inactive)
REMARK    1  A    between atoms: C_1  and  C_2
REMARK    2  A    between atoms: C_8  and  C_9
REMARK    3  A    between atoms: C_12  and  N_13
REMARK    4  A    between atoms: C_20  and  C_21
REMARK    5  A    between atoms: C_21  and  C_22
REMARK                            x       y       z     vdW  Elec       q    Type
REMARK                         _______ _______ _______ _____ _____    ______ ____
ROOT
ATOM      1  C   UNL     1       4.323   0.886  18.151  0.00  0.00    +0.000 C 
ATOM      2  C   UNL     1       3.730   2.170  18.606  0.00  0.00    +0.000 A 
ATOM      3  N   UNL     1       2.883   2.133  19.642  0.00  0.00    +0.000 NA
ATOM      4  N   UNL     1       2.500   3.416  19.816  0.00  0.00    +0.000 N 
ATOM      5  C   UNL     1       1.590   3.821  20.808  0.00  0.00    +0.000 A 
ATOM      6  O   UNL     1       1.070   3.033  21.589  0.00  0.00    +0.000 OA
ATOM      7  C   UNL     1       1.320   5.283  20.825  0.00  0.00    +0.000 A 
ATOM      8  C   UNL     1       1.915   6.067  19.912  0.00  0.00    +0.000 A 
ATOM      9  N   UNL     1       2.772   5.577  18.945  0.00  0.00    +0.000 N 
ATOM     10  C   UNL     1       3.090   4.264  18.893  0.00  0.00    +0.000 A 
ATOM     11  C   UNL     1       3.895   3.494  18.080  0.00  0.00    +0.000 A 
ATOM     12  H   UNL     1       3.168   6.262  18.302  0.00  0.00    +0.000 HD
ENDROOT
BRANCH   8  13
ATOM     13  C   UNL     1       1.671   7.514  19.929  0.00  0.00    +0.000 A 
ATOM     14  C   UNL     1       1.901   8.278  18.775  0.00  0.00    +0.000 A 
ATOM     15  C   UNL     1       1.645   9.651  18.773  0.00  0.00    +0.000 A 
ATOM     16  C   UNL     1       1.160  10.263  19.937  0.00  0.00    +0.000 A 
ATOM     17  C   UNL     1       0.943   9.511  21.100  0.00  0.00    +0.000 A 
ATOM     18  C   UNL     1       1.199   8.137  21.092  0.00  0.00    +0.000 A 
BRANCH  16  19
ATOM     19  N   UNL     1       0.865  11.700  19.935  0.00  0.00    +0.000 N 
ATOM     20  O   UNL     1       0.062  12.126  20.778  0.00  0.00    +0.000 OA
ATOM     21  O   UNL     1       1.443  12.405  19.095  0.00  0.00    +0.000 OA
ENDBRANCH  16  19
ENDBRANCH   8  13
BRANCH  11  22
ATOM     22  C   UNL     1       4.646   3.941  16.873  0.00  0.00    +0.000 C 
BRANCH  22  23
ATOM     23  C   UNL     1       5.500   5.134  17.234  0.00  0.00    +0.000 A 
ATOM     24  C   UNL     1       6.636   4.974  18.043  0.00  0.00    +0.000 A 
ATOM     25  C   UNL     1       7.519   6.037  18.259  0.00  0.00    +0.000 A 
ATOM     26  C   UNL     1       7.272   7.274  17.671  0.00  0.00    +0.000 A 
ATOM     27 CL   UNL     1       8.399   8.557  17.871  0.00  0.00    +0.000 Cl
ATOM     28  C   UNL     1       6.130   7.466  16.895  0.00  0.00    +0.000 A 
ATOM     29  C   UNL     1       5.247   6.403  16.682  0.00  0.00    +0.000 A 
ENDBRANCH  22  23
ENDBRANCH  11  22
TORSDOF 4
ENDMDL
MODEL 6
REMARK VINA RESULT:      -7.8      3.450      4.892
REMARK  Name = 
REMARK  5 active torsions:
REMARK  status: ('A' for Active; 'I' for Inactive)
REMARK    1  A    between atoms: C_1  and  C_2
REMARK    2  A    between atoms: C_8  and  C_9
REMARK    3  A    between atoms: C_12  and  N_13
REMARK    4  A    between atoms: C_20  and  C_21
REMARK    5  A    between atoms: C_21  and  C_22
REMARK                            x       y       z     vdW  Elec       q    Type
REMARK                         _______ _______ _______ _____ _____    ______ ____
ROOT
ATOM      1  C   UNL     1      -1.874  13.758  21.607  0.00  0.00    +0.000 C 
ATOM      2  C   UNL     1      -1.112  12.510  21.338  0.00  0.00    +0.000 A 
ATOM      3  N   UNL     1      -0.769  11.752  22.388  0.00  0.00    +0.000 NA
ATOM      4  N   UNL     1      -0.087  10.717  21.851  0.00  0.00    +0.000 N 
ATOM      5  C   UNL     1       0.469   9.680  22.621  0.00  0.00    +0.000 A 
ATOM      6  O   UNL     1       0.381   9.643  23.842  0.00  0.00    +0.000 OA
ATOM      7  C   UNL     1       1.168   8.639  21.822  0.00  0.00    +0.000 A 
ATOM      8  C   UNL     1       1.240   8.778  20.488  0.00  0.00    +0.000 A 
ATOM      9  N   UNL     1       0.693   9.853  19.815  0.00  0.00    +0.000 N 
ATOM     10  C   UNL     1       0.013  10.819  20.474  0.00  0.00    +0.000 A 
ATOM     11  C   UNL     1      -0.636  11.975  20.096  0.00  0.00    +0.000 A 
ATOM     12  H   UNL     1       0.806   9.857  18.802  0.00  0.00    +0.000 HD
ENDROOT
BRANCH   8  13
ATOM     13  C   UNL     1       1.911   7.748  19.688  0.00  0.00    +0.000 A 
ATOM     14  C   UNL     1       2.046   6.446  20.190  0.00  0.00    +0.000 A 
ATOM     15  C   UNL     1       2.659   5.452  19.424  0.00  0.00    +0.000 A 
ATOM     16  C   UNL     1       3.146   5.768  18.148  0.00  0.00    +0.000 A 
ATOM     17  C   UNL     1       3.031   7.070  17.644  0.00  0.00    +0.000 A 
ATOM     18  C   UNL     1       2.413   8.058  18.416  0.00  0.00    +0.000 A 
BRANCH  16  19
ATOM     19  N   UNL     1       3.769   4.722  17.328  0.00  0.00    +0.000 N 
ATOM     20  O   UNL     1       3.148   3.660  17.180  0.00  0.00    +0.000 OA
ATOM     21  O   UNL     1       4.875   4.967  16.825  0.00  0.00    +0.000 OA
ENDBRANCH  16  19
ENDBRANCH   8  13
BRANCH  11  22
ATOM     22  C   UNL     1      -0.701  12.567  18.730  0.00  0.00    +0.000 C 
BRANCH  22  23
ATOM     23  C   UNL     1       0.411  13.580  18.577  0.00  0.00    +0.000 A 
ATOM     24  C   UNL     1       0.161  14.944  18.796  0.00  0.00    +0.000 A 
ATOM     25  C   UNL     1       1.207  15.872  18.808  0.00  0.00    +0.000 A 
ATOM     26  C   UNL     1       2.515  15.445  18.598  0.00  0.00    +0.000 A 
ATOM     27 CL   UNL     1       3.809  16.574  18.693  0.00  0.00    +0.000 Cl
ATOM     28  C   UNL     1       2.782  14.102  18.341  0.00  0.00    +0.000 A 
ATOM     29  C   UNL     1       1.734  13.175  18.327  0.00  0.00    +0.000 A 
ENDBRANCH  22  23
ENDBRANCH  11  22
TORSDOF 4
ENDMDL
MODEL 7
REMARK VINA RESULT:      -7.8      4.326      7.722
REMARK  Name = 
REMARK  5 active torsions:
REMARK  status: ('A' for Active; 'I' for Inactive)
REMARK    1  A    between atoms: C_1  and  C_2
REMARK    2  A    between atoms: C_8  and  C_9
REMARK    3  A    between atoms: C_12  and  N_13
REMARK    4  A    between atoms: C_20  and  C_21
REMARK    5  A    between atoms: C_21  and  C_22
REMARK                            x       y       z     vdW  Elec       q    Type
REMARK                         _______ _______ _______ _____ _____    ______ ____
ROOT
ATOM      1  C   UNL     1       4.366   0.866  18.254  0.00  0.00    +0.000 C 
ATOM      2  C   UNL     1       3.760   2.157  18.671  0.00  0.00    +0.000 A 
ATOM      3  N   UNL     1       2.899   2.137  19.698  0.00  0.00    +0.000 NA
ATOM      4  N   UNL     1       2.507   3.422  19.837  0.00  0.00    +0.000 N 
ATOM      5  C   UNL     1       1.581   3.843  20.808  0.00  0.00    +0.000 A 
ATOM      6  O   UNL     1       1.055   3.071  21.599  0.00  0.00    +0.000 OA
ATOM      7  C   UNL     1       1.303   5.304  20.788  0.00  0.00    +0.000 A 
ATOM      8  C   UNL     1       1.906   6.071  19.865  0.00  0.00    +0.000 A 
ATOM      9  N   UNL     1       2.778   5.564  18.921  0.00  0.00    +0.000 N 
ATOM     10  C   UNL     1       3.104   4.252  18.903  0.00  0.00    +0.000 A 
ATOM     11  C   UNL     1       3.924   3.469  18.118  0.00  0.00    +0.000 A 
ATOM     12  H   UNL     1       3.178   6.237  18.268  0.00  0.00    +0.000 HD
ENDROOT
BRANCH   8  13
ATOM     13  C   UNL     1       1.653   7.516  19.846  0.00  0.00    +0.000 A 
ATOM     14  C   UNL     1       1.171   8.158  20.996  0.00  0.00    +0.000 A 
ATOM     15  C   UNL     1       0.952   9.538  20.997  0.00  0.00    +0.000 A 
ATOM     16  C   UNL     1       1.215  10.277  19.835  0.00  0.00    +0.000 A 
ATOM     17  C   UNL     1       1.681   9.642  18.676  0.00  0.00    +0.000 A 
ATOM     18  C   UNL     1       1.899   8.261  18.685  0.00  0.00    +0.000 A 
BRANCH  16  19
ATOM     19  N   UNL     1       1.012  11.731  19.836  0.00  0.00    +0.000 N 
ATOM     20  O   UNL     1       1.959  12.446  19.479  0.00  0.00    +0.000 OA
ATOM     21  O   UNL     1      -0.098  12.157  20.187  0.00  0.00    +0.000 OA
ENDBRANCH  16  19
ENDBRANCH   8  13
BRANCH  11  22
ATOM     22  C   UNL     1       4.688   3.893  16.911  0.00  0.00    +0.000 C 
BRANCH  22  23
ATOM     23  C   UNL     1       5.529   5.101  17.256  0.00  0.00    +0.000 A 
ATOM     24  C   UNL     1       6.678   4.961  18.050  0.00  0.00    +0.000 A 
ATOM     25  C   UNL     1       7.547   6.038  18.250  0.00  0.00    +0.000 A 
ATOM     26  C   UNL     1       7.274   7.269  17.660  0.00  0.00    +0.000 A 
ATOM     27 CL   UNL     1       8.384   8.570  17.840  0.00  0.00    +0.000 Cl
ATOM     28  C   UNL     1       6.119   7.441  16.899  0.00  0.00    +0.000 A 
ATOM     29  C   UNL     1       5.250   6.363  16.702  0.00  0.00    +0.000 A 
ENDBRANCH  22  23
ENDBRANCH  11  22
TORSDOF 4
ENDMDL
MODEL 8
REMARK VINA RESULT:      -7.7      3.609      5.050
REMARK  Name = 
REMARK  5 active torsions:
REMARK  status: ('A' for Active; 'I' for Inactive)
REMARK    1  A    between atoms: C_1  and  C_2
REMARK    2  A    between atoms: C_8  and  C_9
REMARK    3  A    between atoms: C_12  and  N_13
REMARK    4  A    between atoms: C_20  and  C_21
REMARK    5  A    between atoms: C_21  and  C_22
REMARK                            x       y       z     vdW  Elec       q    Type
REMARK                         _______ _______ _______ _____ _____    ______ ____
ROOT
ATOM      1  C   UNL     1      -1.367  13.952  21.504  0.00  0.00    +0.000 C 
ATOM      2  C   UNL     1      -0.726  12.626  21.305  0.00  0.00    +0.000 A 
ATOM      3  N   UNL     1      -0.561  11.847  22.381  0.00  0.00    +0.000 NA
ATOM      4  N   UNL     1       0.047  10.737  21.909  0.00  0.00    +0.000 N 
ATOM      5  C   UNL     1       0.417   9.655  22.726  0.00  0.00    +0.000 A 
ATOM      6  O   UNL     1       0.219   9.641  23.934  0.00  0.00    +0.000 OA
ATOM      7  C   UNL     1       1.065   8.535  21.993  0.00  0.00    +0.000 A 
ATOM      8  C   UNL     1       1.267   8.650  20.670  0.00  0.00    +0.000 A 
ATOM      9  N   UNL     1       0.903   9.771  19.950  0.00  0.00    +0.000 N 
ATOM     10  C   UNL     1       0.278  10.813  20.545  0.00  0.00    +0.000 A 
ATOM     11  C   UNL     1      -0.205  12.029  20.110  0.00  0.00    +0.000 A 
ATOM     12  H   UNL     1       1.104   9.752  18.950  0.00  0.00    +0.000 HD
ENDROOT
BRANCH   8  13
ATOM     13  C   UNL     1       1.890   7.545  19.933  0.00  0.00    +0.000 A 
ATOM     14  C   UNL     1       1.958   6.268  20.509  0.00  0.00    +0.000 A 
ATOM     15  C   UNL     1       2.524   5.203  19.805  0.00  0.00    +0.000 A 
ATOM     16  C   UNL     1       3.029   5.421  18.516  0.00  0.00    +0.000 A 
ATOM     17  C   UNL     1       2.980   6.697  17.938  0.00  0.00    +0.000 A 
ATOM     18  C   UNL     1       2.410   7.756  18.649  0.00  0.00    +0.000 A 
BRANCH  16  19
ATOM     19  N   UNL     1       3.602   4.301  17.760  0.00  0.00    +0.000 N 
ATOM     20  O   UNL     1       4.797   4.032  17.946  0.00  0.00    +0.000 OA
ATOM     21  O   UNL     1       2.854   3.685  16.987  0.00  0.00    +0.000 OA
ENDBRANCH  16  19
ENDBRANCH   8  13
BRANCH  11  22
ATOM     22  C   UNL     1      -0.084  12.609  18.743  0.00  0.00    +0.000 C 
BRANCH  22  23
ATOM     23  C   UNL     1       1.063  13.593  18.722  0.00  0.00    +0.000 A 
ATOM     24  C   UNL     1       2.367  13.155  18.440  0.00  0.00    +0.000 A 
ATOM     25  C   UNL     1       3.409  14.071  18.267  0.00  0.00    +0.000 A 
ATOM     26  C   UNL     1       3.159  15.436  18.378  0.00  0.00    +0.000 A 
ATOM     27 CL   UNL     1       4.424  16.564  18.086  0.00  0.00    +0.000 Cl
ATOM     28  C   UNL     1       1.881  15.891  18.695  0.00  0.00    +0.000 A 
ATOM     29  C   UNL     1       0.840  14.973  18.870  0.00  0.00    +0.000 A 
ENDBRANCH  22  23
ENDBRANCH  11  22
TORSDOF 4
ENDMDL
MODEL 9
REMARK VINA RESULT:      -7.7      3.593      4.973
REMARK  Name = 
REMARK  5 active torsions:
REMARK  status: ('A' for Active; 'I' for Inactive)
REMARK    1  A    between atoms: C_1  and  C_2
REMARK    2  A    between atoms: C_8  and  C_9
REMARK    3  A    between atoms: C_12  and  N_13
REMARK    4  A    between atoms: C_20  and  C_21
REMARK    5  A    between atoms: C_21  and  C_22
REMARK                            x       y       z     vdW  Elec       q    Type
REMARK                         _______ _______ _______ _____ _____    ______ ____
ROOT
ATOM      1  C   UNL     1      -1.151  13.990  21.426  0.00  0.00    +0.000 C 
ATOM      2  C   UNL     1      -0.529  12.661  21.192  0.00  0.00    +0.000 A 
ATOM      3  N   UNL     1      -0.333  11.869  22.254  0.00  0.00    +0.000 NA
ATOM      4  N   UNL     1       0.249  10.760  21.750  0.00  0.00    +0.000 N 
ATOM      5  C   UNL     1       0.638   9.666  22.542  0.00  0.00    +0.000 A 
ATOM      6  O   UNL     1       0.482   9.641  23.757  0.00  0.00    +0.000 OA
ATOM      7  C   UNL     1       1.250   8.548  21.777  0.00  0.00    +0.000 A 
ATOM      8  C   UNL     1       1.407   8.675  20.449  0.00  0.00    +0.000 A 
ATOM      9  N   UNL     1       1.027   9.807  19.753  0.00  0.00    +0.000 N 
ATOM     10  C   UNL     1       0.432  10.847  20.379  0.00  0.00    +0.000 A 
ATOM     11  C   UNL     1      -0.055  12.071  19.973  0.00  0.00    +0.000 A 
ATOM     12  H   UNL     1       1.193   9.796  18.747  0.00  0.00    +0.000 HD
ENDROOT
BRANCH   8  13
ATOM     13  C   UNL     1       1.994   7.572  19.680  0.00  0.00    +0.000 A 
ATOM     14  C   UNL     1       2.535   7.814  18.409  0.00  0.00    +0.000 A 
ATOM     15  C   UNL     1       3.121   6.776  17.680  0.00  0.00    +0.000 A 
ATOM     16  C   UNL     1       3.159   5.486  18.228  0.00  0.00    +0.000 A 
ATOM     17  C   UNL     1       2.606   5.232  19.490  0.00  0.00    +0.000 A 
ATOM     18  C   UNL     1       2.024   6.277  20.213  0.00  0.00    +0.000 A 
BRANCH  16  19
ATOM     19  N   UNL     1       3.795   4.397  17.478  0.00  0.00    +0.000 N 
ATOM     20  O   UNL     1       4.557   4.704  16.550  0.00  0.00    +0.000 OA
ATOM     21  O   UNL     1       3.538   3.234  17.823  0.00  0.00    +0.000 OA
ENDBRANCH  16  19
ENDBRANCH   8  13
BRANCH  11  22
ATOM     22  C   UNL     1       0.023  12.664  18.609  0.00  0.00    +0.000 C 
BRANCH  22  23
ATOM     23  C   UNL     1       1.204  13.606  18.545  0.00  0.00    +0.000 A 
ATOM     24  C   UNL     1       1.028  14.979  18.774  0.00  0.00    +0.000 A 
ATOM     25  C   UNL     1       2.128  15.837  18.869  0.00  0.00    +0.000 A 
ATOM     26  C   UNL     1       3.417  15.330  18.733  0.00  0.00    +0.000 A 
ATOM     27 CL   UNL     1       4.772  16.371  18.930  0.00  0.00    +0.000 Cl
ATOM     28  C   UNL     1       3.614  13.976  18.468  0.00  0.00    +0.000 A 
ATOM     29  C   UNL     1       2.512  13.120  18.370  0.00  0.00    +0.000 A 
ENDBRANCH  22  23
ENDBRANCH  11  22
TORSDOF 4
ENDMDL
