MODEL 1
REMARK VINA RESULT:      -7.9      0.000      0.000
REMARK  Name = 
REMARK  2 active torsions:
REMARK  status: ('A' for Active; 'I' for Inactive)
REMARK    1  A    between atoms: C_2  and  C_16
REMARK    2  A    between atoms: C_8  and  C_9
REMARK                            x       y       z     vdW  Elec       q    Type
REMARK                         _______ _______ _______ _____ _____    ______ ____
ROOT
ATOM      1  O   UNL     1       2.231   6.700  19.753  0.00  0.00    +0.000 OA
ATOM      2  C   UNL     1       2.575   7.130  18.657  0.00  0.00    +0.000 C 
ATOM      3  N   UNL     1       2.115   8.281  18.057  0.00  0.00    +0.000 N 
ATOM      4  C   UNL     1       1.196   9.127  18.691  0.00  0.00    +0.000 A 
ATOM      5  C   UNL     1       1.335   9.469  20.017  0.00  0.00    +0.000 A 
ATOM      6  C   UNL     1       0.363  10.291  20.526  0.00  0.00    +0.000 A 
ATOM      7  N   UNL     1      -0.700  10.700  19.813  0.00  0.00    +0.000 NA
ATOM      8  C   UNL     1      -0.759  10.293  18.530  0.00  0.00    +0.000 A 
ATOM      9  N   UNL     1       0.194   9.569  17.914  0.00  0.00    +0.000 NA
ATOM     10  H   UNL     1       2.070   8.299  17.049  0.00  0.00    +0.000 HD
ENDROOT
BRANCH   2  11
ATOM     11  C   UNL     1       3.530   6.328  17.851  0.00  0.00    +0.000 A 
ATOM     12  C   UNL     1       4.468   6.992  17.046  0.00  0.00    +0.000 A 
ATOM     13  C   UNL     1       5.291   6.255  16.194  0.00  0.00    +0.000 A 
ATOM     14  C   UNL     1       5.164   4.868  16.144  0.00  0.00    +0.000 A 
ATOM     15  F   UNL     1       5.927   4.168  15.296  0.00  0.00    +0.000 F 
ATOM     16  C   UNL     1       4.239   4.205  16.942  0.00  0.00    +0.000 A 
ATOM     17  C   UNL     1       3.421   4.933  17.806  0.00  0.00    +0.000 A 
ENDBRANCH   2  11
BRANCH   8  18
ATOM     18  C   UNL     1      -1.994  10.577  17.784  0.00  0.00    +0.000 A 
ATOM     19  C   UNL     1      -2.233  10.067  16.497  0.00  0.00    +0.000 A 
ATOM     20  C   UNL     1      -3.402  10.387  15.807  0.00  0.00    +0.000 A 
ATOM     21  C   UNL     1      -4.319  11.220  16.423  0.00  0.00    +0.000 A 
ATOM     22  N   UNL     1      -4.142  11.742  17.653  0.00  0.00    +0.000 NA
ATOM     23  C   UNL     1      -2.989  11.411  18.294  0.00  0.00    +0.000 A 
ENDBRANCH   8  18
TORSDOF 2
ENDMDL
MODEL 2
REMARK VINA RESULT:      -7.8      6.392      8.814
REMARK  Name = 
REMARK  2 active torsions:
REMARK  status: ('A' for Active; 'I' for Inactive)
REMARK    1  A    between atoms: C_2  and  C_16
REMARK    2  A    between atoms: C_8  and  C_9
REMARK                            x       y       z     vdW  Elec       q    Type
REMARK                         _______ _______ _______ _____ _____    ______ ____
ROOT
ATOM      1  O   UNL     1       3.822   6.154  19.203  0.00  0.00    +0.000 OA
ATOM      2  C   UNL     1       3.975   4.937  19.189  0.00  0.00    +0.000 C 
ATOM      3  N   UNL     1       4.905   4.246  18.444  0.00  0.00    +0.000 N 
ATOM      4  C   UNL     1       5.828   4.904  17.622  0.00  0.00    +0.000 A 
ATOM      5  C   UNL     1       6.507   6.018  18.059  0.00  0.00    +0.000 A 
ATOM      6  C   UNL     1       7.373   6.582  17.157  0.00  0.00    +0.000 A 
ATOM      7  N   UNL     1       7.522   6.129  15.901  0.00  0.00    +0.000 NA
ATOM      8  C   UNL     1       6.795   5.046  15.560  0.00  0.00    +0.000 A 
ATOM      9  N   UNL     1       5.996   4.367  16.403  0.00  0.00    +0.000 NA
ATOM     10  H   UNL     1       4.660   3.317  18.133  0.00  0.00    +0.000 HD
ENDROOT
BRANCH   2  11
ATOM     11  C   UNL     1       3.051   4.099  19.994  0.00  0.00    +0.000 A 
ATOM     12  C   UNL     1       1.696   4.456  20.068  0.00  0.00    +0.000 A 
ATOM     13  C   UNL     1       0.840   3.749  20.914  0.00  0.00    +0.000 A 
ATOM     14  C   UNL     1       1.345   2.704  21.685  0.00  0.00    +0.000 A 
ATOM     15  F   UNL     1       0.530   2.055  22.525  0.00  0.00    +0.000 F 
ATOM     16  C   UNL     1       2.686   2.344  21.613  0.00  0.00    +0.000 A 
ATOM     17  C   UNL     1       3.545   3.037  20.761  0.00  0.00    +0.000 A 
ENDBRANCH   2  11
BRANCH   8  18
ATOM     18  C   UNL     1       6.804   4.641  14.146  0.00  0.00    +0.000 A 
ATOM     19  C   UNL     1       5.949   3.649  13.640  0.00  0.00    +0.000 A 
ATOM     20  C   UNL     1       6.010   3.268  12.300  0.00  0.00    +0.000 A 
ATOM     21  C   UNL     1       6.937   3.891  11.484  0.00  0.00    +0.000 A 
ATOM     22  N   UNL     1       7.786   4.845  11.915  0.00  0.00    +0.000 NA
ATOM     23  C   UNL     1       7.699   5.189  13.227  0.00  0.00    +0.000 A 
ENDBRANCH   8  18
TORSDOF 2
ENDMDL
MODEL 3
REMARK VINA RESULT:      -7.8      0.247      1.062
REMARK  Name = 
REMARK  2 active torsions:
REMARK  status: ('A' for Active; 'I' for Inactive)
REMARK    1  A    between atoms: C_2  and  C_16
REMARK    2  A    between atoms: C_8  and  C_9
REMARK                            x       y       z     vdW  Elec       q    Type
REMARK                         _______ _______ _______ _____ _____    ______ ____
ROOT
ATOM      1  O   UNL     1       2.313   6.513  19.564  0.00  0.00    +0.000 OA
ATOM      2  C   UNL     1       2.639   6.976  18.477  0.00  0.00    +0.000 C 
ATOM      3  N   UNL     1       2.182   8.154  17.927  0.00  0.00    +0.000 N 
ATOM      4  C   UNL     1       1.289   8.989  18.610  0.00  0.00    +0.000 A 
ATOM      5  C   UNL     1       1.463   9.283  19.943  0.00  0.00    +0.000 A 
ATOM      6  C   UNL     1       0.514  10.099  20.503  0.00  0.00    +0.000 A 
ATOM      7  N   UNL     1      -0.558  10.547  19.829  0.00  0.00    +0.000 NA
ATOM      8  C   UNL     1      -0.652  10.186  18.534  0.00  0.00    +0.000 A 
ATOM      9  N   UNL     1       0.277   9.471  17.872  0.00  0.00    +0.000 NA
ATOM     10  H   UNL     1       2.115   8.207  16.921  0.00  0.00    +0.000 HD
ENDROOT
BRANCH   2  11
ATOM     11  C   UNL     1       3.564   6.189  17.622  0.00  0.00    +0.000 A 
ATOM     12  C   UNL     1       3.425   4.793  17.571  0.00  0.00    +0.000 A 
ATOM     13  C   UNL     1       4.359   4.031  16.869  0.00  0.00    +0.000 A 
ATOM     14  C   UNL     1       5.426   4.665  16.235  0.00  0.00    +0.000 A 
ATOM     15  F   UNL     1       6.343   3.927  15.597  0.00  0.00    +0.000 F 
ATOM     16  C   UNL     1       5.567   6.047  16.279  0.00  0.00    +0.000 A 
ATOM     17  C   UNL     1       4.630   6.818  16.969  0.00  0.00    +0.000 A 
ENDBRANCH   2  11
BRANCH   8  18
ATOM     18  C   UNL     1      -1.899  10.512  17.827  0.00  0.00    +0.000 A 
ATOM     19  C   UNL     1      -2.196  10.009  16.549  0.00  0.00    +0.000 A 
ATOM     20  C   UNL     1      -3.374  10.369  15.896  0.00  0.00    +0.000 A 
ATOM     21  C   UNL     1      -4.241  11.235  16.538  0.00  0.00    +0.000 A 
ATOM     22  N   UNL     1      -4.007  11.753  17.760  0.00  0.00    +0.000 NA
ATOM     23  C   UNL     1      -2.848  11.382  18.366  0.00  0.00    +0.000 A 
ENDBRANCH   8  18
TORSDOF 2
ENDMDL
MODEL 4
REMARK VINA RESULT:      -7.8      6.385      8.806
REMARK  Name = 
REMARK  2 active torsions:
REMARK  status: ('A' for Active; 'I' for Inactive)
REMARK    1  A    between atoms: C_2  and  C_16
REMARK    2  A    between atoms: C_8  and  C_9
REMARK                            x       y       z     vdW  Elec       q    Type
REMARK                         _______ _______ _______ _____ _____    ______ ____
ROOT
ATOM      1  O   UNL     1       3.832   6.185  19.203  0.00  0.00    +0.000 OA
ATOM      2  C   UNL     1       3.998   4.970  19.199  0.00  0.00    +0.000 C 
ATOM      3  N   UNL     1       4.947   4.284  18.473  0.00  0.00    +0.000 N 
ATOM      4  C   UNL     1       5.877   4.947  17.662  0.00  0.00    +0.000 A 
ATOM      5  C   UNL     1       6.537   6.071  18.104  0.00  0.00    +0.000 A 
ATOM      6  C   UNL     1       7.412   6.638  17.212  0.00  0.00    +0.000 A 
ATOM      7  N   UNL     1       7.586   6.179  15.962  0.00  0.00    +0.000 NA
ATOM      8  C   UNL     1       6.877   5.086  15.616  0.00  0.00    +0.000 A 
ATOM      9  N   UNL     1       6.070   4.404  16.450  0.00  0.00    +0.000 NA
ATOM     10  H   UNL     1       4.718   3.351  18.165  0.00  0.00    +0.000 HD
ENDROOT
BRANCH   2  11
ATOM     11  C   UNL     1       3.070   4.127  19.994  0.00  0.00    +0.000 A 
ATOM     12  C   UNL     1       1.715   4.486  20.067  0.00  0.00    +0.000 A 
ATOM     13  C   UNL     1       0.856   3.775  20.904  0.00  0.00    +0.000 A 
ATOM     14  C   UNL     1       1.356   2.722  21.668  0.00  0.00    +0.000 A 
ATOM     15  F   UNL     1       0.537   2.067  22.501  0.00  0.00    +0.000 F 
ATOM     16  C   UNL     1       2.696   2.359  21.598  0.00  0.00    +0.000 A 
ATOM     17  C   UNL     1       3.560   3.058  20.753  0.00  0.00    +0.000 A 
ENDBRANCH   2  11
BRANCH   8  18
ATOM     18  C   UNL     1       6.913   4.672  14.205  0.00  0.00    +0.000 A 
ATOM     19  C   UNL     1       7.747   5.290  13.259  0.00  0.00    +0.000 A 
ATOM     20  C   UNL     1       7.728   4.893  11.922  0.00  0.00    +0.000 A 
ATOM     21  C   UNL     1       6.865   3.876  11.553  0.00  0.00    +0.000 A 
ATOM     22  N   UNL     1       6.039   3.250  12.416  0.00  0.00    +0.000 NA
ATOM     23  C   UNL     1       6.083   3.666  13.710  0.00  0.00    +0.000 A 
ENDBRANCH   8  18
TORSDOF 2
ENDMDL
MODEL 5
REMARK VINA RESULT:      -7.7      0.595      1.019
REMARK  Name = 
REMARK  2 active torsions:
REMARK  status: ('A' for Active; 'I' for Inactive)
REMARK    1  A    between atoms: C_2  and  C_16
REMARK    2  A    between atoms: C_8  and  C_9
REMARK                            x       y       z     vdW  Elec       q    Type
REMARK                         _______ _______ _______ _____ _____    ______ ____
ROOT
ATOM      1  O   UNL     1       2.199   6.715  19.768  0.00  0.00    +0.000 OA
ATOM      2  C   UNL     1       2.550   7.143  18.674  0.00  0.00    +0.000 C 
ATOM      3  N   UNL     1       2.105   8.301  18.075  0.00  0.00    +0.000 N 
ATOM      4  C   UNL     1       1.194   9.156  18.708  0.00  0.00    +0.000 A 
ATOM      5  C   UNL     1       1.335   9.494  20.035  0.00  0.00    +0.000 A 
ATOM      6  C   UNL     1       0.370  10.326  20.544  0.00  0.00    +0.000 A 
ATOM      7  N   UNL     1      -0.686  10.748  19.830  0.00  0.00    +0.000 NA
ATOM      8  C   UNL     1      -0.748  10.344  18.546  0.00  0.00    +0.000 A 
ATOM      9  N   UNL     1       0.198   9.610  17.931  0.00  0.00    +0.000 NA
ATOM     10  H   UNL     1       2.061   8.321  17.067  0.00  0.00    +0.000 HD
ENDROOT
BRANCH   2  11
ATOM     11  C   UNL     1       3.498   6.332  17.868  0.00  0.00    +0.000 A 
ATOM     12  C   UNL     1       4.443   6.986  17.063  0.00  0.00    +0.000 A 
ATOM     13  C   UNL     1       5.259   6.242  16.211  0.00  0.00    +0.000 A 
ATOM     14  C   UNL     1       5.118   4.857  16.162  0.00  0.00    +0.000 A 
ATOM     15  F   UNL     1       5.874   4.149  15.314  0.00  0.00    +0.000 F 
ATOM     16  C   UNL     1       4.185   4.202  16.959  0.00  0.00    +0.000 A 
ATOM     17  C   UNL     1       3.374   4.938  17.823  0.00  0.00    +0.000 A 
ENDBRANCH   2  11
BRANCH   8  18
ATOM     18  C   UNL     1      -1.978  10.643  17.799  0.00  0.00    +0.000 A 
ATOM     19  C   UNL     1      -3.014  11.427  18.333  0.00  0.00    +0.000 A 
ATOM     20  C   UNL     1      -4.181  11.660  17.607  0.00  0.00    +0.000 A 
ATOM     21  C   UNL     1      -4.293  11.097  16.348  0.00  0.00    +0.000 A 
ATOM     22  N   UNL     1      -3.335  10.333  15.786  0.00  0.00    +0.000 NA
ATOM     23  C   UNL     1      -2.212  10.125  16.524  0.00  0.00    +0.000 A 
ENDBRANCH   8  18
TORSDOF 2
ENDMDL
MODEL 6
REMARK VINA RESULT:      -7.6      0.652      1.478
REMARK  Name = 
REMARK  2 active torsions:
REMARK  status: ('A' for Active; 'I' for Inactive)
REMARK    1  A    between atoms: C_2  and  C_16
REMARK    2  A    between atoms: C_8  and  C_9
REMARK                            x       y       z     vdW  Elec       q    Type
REMARK                         _______ _______ _______ _____ _____    ______ ____
ROOT
ATOM      1  O   UNL     1       2.200   6.975  19.755  0.00  0.00    +0.000 OA
ATOM      2  C   UNL     1       2.471   7.308  18.606  0.00  0.00    +0.000 C 
ATOM      3  N   UNL     1       1.995   8.422  17.951  0.00  0.00    +0.000 N 
ATOM      4  C   UNL     1       1.146   9.341  18.580  0.00  0.00    +0.000 A 
ATOM      5  C   UNL     1       1.393   9.782  19.861  0.00  0.00    +0.000 A 
ATOM      6  C   UNL     1       0.481  10.669  20.372  0.00  0.00    +0.000 A 
ATOM      7  N   UNL     1      -0.622  11.053  19.709  0.00  0.00    +0.000 NA
ATOM      8  C   UNL     1      -0.788  10.548  18.470  0.00  0.00    +0.000 A 
ATOM      9  N   UNL     1       0.099   9.750  17.847  0.00  0.00    +0.000 NA
ATOM     10  H   UNL     1       1.874   8.362  16.950  0.00  0.00    +0.000 HD
ENDROOT
BRANCH   2  11
ATOM     11  C   UNL     1       3.343   6.417  17.800  0.00  0.00    +0.000 A 
ATOM     12  C   UNL     1       3.079   5.038  17.781  0.00  0.00    +0.000 A 
ATOM     13  C   UNL     1       3.958   4.175  17.126  0.00  0.00    +0.000 A 
ATOM     14  C   UNL     1       5.095   4.692  16.507  0.00  0.00    +0.000 A 
ATOM     15  F   UNL     1       5.957   3.857  15.915  0.00  0.00    +0.000 F 
ATOM     16  C   UNL     1       5.360   6.056  16.520  0.00  0.00    +0.000 A 
ATOM     17  C   UNL     1       4.480   6.928  17.162  0.00  0.00    +0.000 A 
ENDBRANCH   2  11
BRANCH   8  18
ATOM     18  C   UNL     1      -2.068  10.809  17.796  0.00  0.00    +0.000 A 
ATOM     19  C   UNL     1      -3.142  11.448  18.438  0.00  0.00    +0.000 A 
ATOM     20  C   UNL     1      -4.354  11.646  17.777  0.00  0.00    +0.000 A 
ATOM     21  C   UNL     1      -4.470  11.196  16.474  0.00  0.00    +0.000 A 
ATOM     22  N   UNL     1      -3.477  10.573  15.810  0.00  0.00    +0.000 NA
ATOM     23  C   UNL     1      -2.311  10.394  16.487  0.00  0.00    +0.000 A 
ENDBRANCH   8  18
TORSDOF 2
ENDMDL
MODEL 7
REMARK VINA RESULT:      -7.5      0.915      1.402
REMARK  Name = 
REMARK  2 active torsions:
REMARK  status: ('A' for Active; 'I' for Inactive)
REMARK    1  A    between atoms: C_2  and  C_16
REMARK    2  A    between atoms: C_8  and  C_9
REMARK                            x       y       z     vdW  Elec       q    Type
REMARK                         _______ _______ _______ _____ _____    ______ ____
ROOT
ATOM      1  O   UNL     1       2.121   7.725  19.936  0.00  0.00    +0.000 OA
ATOM      2  C   UNL     1       2.192   7.755  18.712  0.00  0.00    +0.000 C 
ATOM      3  N   UNL     1       1.613   8.696  17.889  0.00  0.00    +0.000 N 
ATOM      4  C   UNL     1       0.887   9.778  18.403  0.00  0.00    +0.000 A 
ATOM      5  C   UNL     1       1.351  10.506  19.475  0.00  0.00    +0.000 A 
ATOM      6  C   UNL     1       0.543  11.531  19.895  0.00  0.00    +0.000 A 
ATOM      7  N   UNL     1      -0.657  11.791  19.349  0.00  0.00    +0.000 NA
ATOM      8  C   UNL     1      -1.034  11.008  18.318  0.00  0.00    +0.000 A 
ATOM      9  N   UNL     1      -0.269  10.043  17.774  0.00  0.00    +0.000 NA
ATOM     10  H   UNL     1       1.322   8.400  16.969  0.00  0.00    +0.000 HD
ENDROOT
BRANCH   2  11
ATOM     11  C   UNL     1       2.911   6.656  18.018  0.00  0.00    +0.000 A 
ATOM     12  C   UNL     1       2.379   5.358  18.063  0.00  0.00    +0.000 A 
ATOM     13  C   UNL     1       3.102   4.296  17.519  0.00  0.00    +0.000 A 
ATOM     14  C   UNL     1       4.350   4.535  16.947  0.00  0.00    +0.000 A 
ATOM     15  F   UNL     1       5.059   3.509  16.463  0.00  0.00    +0.000 F 
ATOM     16  C   UNL     1       4.880   5.820  16.897  0.00  0.00    +0.000 A 
ATOM     17  C   UNL     1       4.158   6.889  17.427  0.00  0.00    +0.000 A 
ENDBRANCH   2  11
BRANCH   8  18
ATOM     18  C   UNL     1      -2.410  11.154  17.822  0.00  0.00    +0.000 A 
ATOM     19  C   UNL     1      -2.776  10.833  16.505  0.00  0.00    +0.000 A 
ATOM     20  C   UNL     1      -4.085  11.019  16.061  0.00  0.00    +0.000 A 
ATOM     21  C   UNL     1      -5.013  11.528  16.953  0.00  0.00    +0.000 A 
ATOM     22  N   UNL     1      -4.718  11.857  18.226  0.00  0.00    +0.000 NA
ATOM     23  C   UNL     1      -3.432  11.666  18.622  0.00  0.00    +0.000 A 
ENDBRANCH   8  18
TORSDOF 2
ENDMDL
MODEL 8
REMARK VINA RESULT:      -7.4      4.424      8.533
REMARK  Name = 
REMARK  2 active torsions:
REMARK  status: ('A' for Active; 'I' for Inactive)
REMARK    1  A    between atoms: C_2  and  C_16
REMARK    2  A    between atoms: C_8  and  C_9
REMARK                            x       y       z     vdW  Elec       q    Type
REMARK                         _______ _______ _______ _____ _____    ______ ____
ROOT
ATOM      1  O   UNL     1      -0.507  10.218  18.637  0.00  0.00    +0.000 OA
ATOM      2  C   UNL     1      -0.132  10.267  19.803  0.00  0.00    +0.000 C 
ATOM      3  N   UNL     1       0.883   9.521  20.360  0.00  0.00    +0.000 N 
ATOM      4  C   UNL     1       1.641   8.622  19.599  0.00  0.00    +0.000 A 
ATOM      5  C   UNL     1       2.117   8.964  18.353  0.00  0.00    +0.000 A 
ATOM      6  C   UNL     1       2.833   7.993  17.700  0.00  0.00    +0.000 A 
ATOM      7  N   UNL     1       3.020   6.760  18.198  0.00  0.00    +0.000 NA
ATOM      8  C   UNL     1       2.495   6.514  19.416  0.00  0.00    +0.000 A 
ATOM      9  N   UNL     1       1.864   7.429  20.173  0.00  0.00    +0.000 NA
ATOM     10  H   UNL     1       0.804   9.275  21.336  0.00  0.00    +0.000 HD
ENDROOT
BRANCH   2  11
ATOM     11  C   UNL     1      -0.857  11.159  20.743  0.00  0.00    +0.000 A 
ATOM     12  C   UNL     1      -0.672  10.991  22.124  0.00  0.00    +0.000 A 
ATOM     13  C   UNL     1      -1.435  11.740  23.020  0.00  0.00    +0.000 A 
ATOM     14  C   UNL     1      -2.381  12.639  22.532  0.00  0.00    +0.000 A 
ATOM     15  F   UNL     1      -3.141  13.326  23.394  0.00  0.00    +0.000 F 
ATOM     16  C   UNL     1      -2.567  12.812  21.165  0.00  0.00    +0.000 A 
ATOM     17  C   UNL     1      -1.799  12.076  20.262  0.00  0.00    +0.000 A 
ENDBRANCH   2  11
BRANCH   8  18
ATOM     18  C   UNL     1       2.531   5.127  19.902  0.00  0.00    +0.000 A 
ATOM     19  C   UNL     1       1.528   4.590  20.725  0.00  0.00    +0.000 A 
ATOM     20  C   UNL     1       1.614   3.280  21.196  0.00  0.00    +0.000 A 
ATOM     21  C   UNL     1       2.715   2.524  20.831  0.00  0.00    +0.000 A 
ATOM     22  N   UNL     1       3.709   2.987  20.048  0.00  0.00    +0.000 NA
ATOM     23  C   UNL     1       3.592   4.269  19.611  0.00  0.00    +0.000 A 
ENDBRANCH   8  18
TORSDOF 2
ENDMDL
MODEL 9
REMARK VINA RESULT:      -7.3      3.848      8.406
REMARK  Name = 
REMARK  2 active torsions:
REMARK  status: ('A' for Active; 'I' for Inactive)
REMARK    1  A    between atoms: C_2  and  C_16
REMARK    2  A    between atoms: C_8  and  C_9
REMARK                            x       y       z     vdW  Elec       q    Type
REMARK                         _______ _______ _______ _____ _____    ______ ____
ROOT
ATOM      1  O   UNL     1       1.387   8.514  21.814  0.00  0.00    +0.000 OA
ATOM      2  C   UNL     1       1.250   8.803  20.630  0.00  0.00    +0.000 C 
ATOM      3  N   UNL     1       1.617   8.021  19.557  0.00  0.00    +0.000 N 
ATOM      4  C   UNL     1       2.174   6.747  19.729  0.00  0.00    +0.000 A 
ATOM      5  C   UNL     1       1.648   5.853  20.634  0.00  0.00    +0.000 A 
ATOM      6  C   UNL     1       2.290   4.645  20.721  0.00  0.00    +0.000 A 
ATOM      7  N   UNL     1       3.399   4.351  20.021  0.00  0.00    +0.000 NA
ATOM      8  C   UNL     1       3.850   5.300  19.178  0.00  0.00    +0.000 A 
ATOM      9  N   UNL     1       3.234   6.475  18.952  0.00  0.00    +0.000 NA
ATOM     10  H   UNL     1       1.907   8.490  18.711  0.00  0.00    +0.000 HD
ENDROOT
BRANCH   2  11
ATOM     11  C   UNL     1       0.694  10.136  20.287  0.00  0.00    +0.000 A 
ATOM     12  C   UNL     1       0.515  11.083  21.308  0.00  0.00    +0.000 A 
ATOM     13  C   UNL     1      -0.115  12.295  21.023  0.00  0.00    +0.000 A 
ATOM     14  C   UNL     1      -0.570  12.546  19.730  0.00  0.00    +0.000 A 
ATOM     15  F   UNL     1      -1.210  13.692  19.470  0.00  0.00    +0.000 F 
ATOM     16  C   UNL     1      -0.392  11.613  18.714  0.00  0.00    +0.000 A 
ATOM     17  C   UNL     1       0.248  10.404  18.988  0.00  0.00    +0.000 A 
ENDBRANCH   2  11
BRANCH   8  18
ATOM     18  C   UNL     1       5.155   5.074  18.538  0.00  0.00    +0.000 A 
ATOM     19  C   UNL     1       5.278   4.671  17.198  0.00  0.00    +0.000 A 
ATOM     20  C   UNL     1       6.532   4.433  16.636  0.00  0.00    +0.000 A 
ATOM     21  C   UNL     1       7.650   4.603  17.433  0.00  0.00    +0.000 A 
ATOM     22  N   UNL     1       7.592   4.984  18.725  0.00  0.00    +0.000 NA
ATOM     23  C   UNL     1       6.353   5.204  19.240  0.00  0.00    +0.000 A 
ENDBRANCH   8  18
TORSDOF 2
ENDMDL
