MODEL 1
REMARK VINA RESULT:      -8.1      0.000      0.000
REMARK  Name = 
REMARK  4 active torsions:
REMARK  status: ('A' for Active; 'I' for Inactive)
REMARK    1  A    between atoms: C_1  and  C_2
REMARK    2  A    between atoms: C_8  and  C_9
REMARK    3  A    between atoms: C_12  and  N_13
REMARK    4  A    between atoms: C_20  and  C_21
REMARK                            x       y       z     vdW  Elec       q    Type
REMARK                         _______ _______ _______ _____ _____    ______ ____
ROOT
ATOM      1  C   UNL     1       4.453   1.082  18.152  0.00  0.00    +0.000 C 
ATOM      2  C   UNL     1       3.871   2.394  18.545  0.00  0.00    +0.000 A 
ATOM      3  N   UNL     1       2.989   2.422  19.551  0.00  0.00    +0.000 NA
ATOM      4  N   UNL     1       2.617   3.720  19.638  0.00  0.00    +0.000 N 
ATOM      5  C   UNL     1       1.674   4.182  20.576  0.00  0.00    +0.000 A 
ATOM      6  O   UNL     1       1.120   3.437  21.376  0.00  0.00    +0.000 OA
ATOM      7  C   UNL     1       1.405   5.643  20.507  0.00  0.00    +0.000 A 
ATOM      8  C   UNL     1       2.066   6.384  19.602  0.00  0.00    +0.000 A 
ATOM      9  N   UNL     1       2.991   5.850  18.724  0.00  0.00    +0.000 N 
ATOM     10  C   UNL     1       3.271   4.520  18.713  0.00  0.00    +0.000 A 
ATOM     11  C   UNL     1       4.093   3.690  17.973  0.00  0.00    +0.000 A 
ATOM     12  H   UNL     1       3.475   6.516  18.125  0.00  0.00    +0.000 HD
ENDROOT
BRANCH  11  13
ATOM     13  C   UNL     1       4.948   4.094  16.859  0.00  0.00    +0.000 A 
ATOM     14  C   UNL     1       6.207   4.671  17.101  0.00  0.00    +0.000 A 
ATOM     15  C   UNL     1       7.080   4.985  16.052  0.00  0.00    +0.000 A 
ATOM     16  C   UNL     1       6.688   4.763  14.737  0.00  0.00    +0.000 A 
ATOM     17 CL   UNL     1       7.766   5.146  13.453  0.00  0.00    +0.000 Cl
ATOM     18  C   UNL     1       5.430   4.227  14.481  0.00  0.00    +0.000 A 
ATOM     19  F   UNL     1       5.018   4.021  13.221  0.00  0.00    +0.000 F 
ATOM     20  C   UNL     1       4.570   3.879  15.526  0.00  0.00    +0.000 A 
ENDBRANCH  11  13
BRANCH   8  21
ATOM     21  C   UNL     1       1.809   7.828  19.517  0.00  0.00    +0.000 A 
ATOM     22  C   UNL     1       2.074   8.522  18.329  0.00  0.00    +0.000 A 
ATOM     23  C   UNL     1       1.816   9.893  18.238  0.00  0.00    +0.000 A 
ATOM     24  C   UNL     1       1.289  10.572  19.346  0.00  0.00    +0.000 A 
ATOM     25  C   UNL     1       1.025   9.889  20.541  0.00  0.00    +0.000 A 
ATOM     26  C   UNL     1       1.287   8.518  20.621  0.00  0.00    +0.000 A 
BRANCH  24  27
ATOM     27  N   UNL     1       1.004  12.011  19.250  0.00  0.00    +0.000 N 
ATOM     28  O   UNL     1       1.915  12.798  19.537  0.00  0.00    +0.000 OA
ATOM     29  O   UNL     1      -0.132  12.348  18.883  0.00  0.00    +0.000 OA
ENDBRANCH  24  27
ENDBRANCH   8  21
TORSDOF 3
ENDMDL
MODEL 2
REMARK VINA RESULT:      -7.8      1.017      1.338
REMARK  Name = 
REMARK  4 active torsions:
REMARK  status: ('A' for Active; 'I' for Inactive)
REMARK    1  A    between atoms: C_1  and  C_2
REMARK    2  A    between atoms: C_8  and  C_9
REMARK    3  A    between atoms: C_12  and  N_13
REMARK    4  A    between atoms: C_20  and  C_21
REMARK                            x       y       z     vdW  Elec       q    Type
REMARK                         _______ _______ _______ _____ _____    ______ ____
ROOT
ATOM      1  C   UNL     1       4.505   1.035  18.440  0.00  0.00    +0.000 C 
ATOM      2  C   UNL     1       3.895   2.338  18.817  0.00  0.00    +0.000 A 
ATOM      3  N   UNL     1       2.966   2.351  19.780  0.00  0.00    +0.000 NA
ATOM      4  N   UNL     1       2.581   3.646  19.860  0.00  0.00    +0.000 N 
ATOM      5  C   UNL     1       1.591   4.093  20.755  0.00  0.00    +0.000 A 
ATOM      6  O   UNL     1       1.003   3.338  21.521  0.00  0.00    +0.000 OA
ATOM      7  C   UNL     1       1.316   5.553  20.687  0.00  0.00    +0.000 A 
ATOM      8  C   UNL     1       2.015   6.307  19.823  0.00  0.00    +0.000 A 
ATOM      9  N   UNL     1       2.985   5.787  18.986  0.00  0.00    +0.000 N 
ATOM     10  C   UNL     1       3.275   4.459  18.976  0.00  0.00    +0.000 A 
ATOM     11  C   UNL     1       4.137   3.642  18.269  0.00  0.00    +0.000 A 
ATOM     12  H   UNL     1       3.493   6.462  18.417  0.00  0.00    +0.000 HD
ENDROOT
BRANCH  11  13
ATOM     13  C   UNL     1       5.043   4.062  17.201  0.00  0.00    +0.000 A 
ATOM     14  C   UNL     1       4.943   3.494  15.920  0.00  0.00    +0.000 A 
ATOM     15  C   UNL     1       5.739   3.942  14.859  0.00  0.00    +0.000 A 
ATOM     16  C   UNL     1       6.680   4.942  15.077  0.00  0.00    +0.000 A 
ATOM     17 CL   UNL     1       7.653   5.492  13.769  0.00  0.00    +0.000 Cl
ATOM     18  C   UNL     1       6.816   5.488  16.349  0.00  0.00    +0.000 A 
ATOM     19  F   UNL     1       7.729   6.439  16.591  0.00  0.00    +0.000 F 
ATOM     20  C   UNL     1       5.998   5.068  17.401  0.00  0.00    +0.000 A 
ENDBRANCH  11  13
BRANCH   8  21
ATOM     21  C   UNL     1       1.753   7.750  19.739  0.00  0.00    +0.000 A 
ATOM     22  C   UNL     1       1.968   8.437  18.536  0.00  0.00    +0.000 A 
ATOM     23  C   UNL     1       1.704   9.807  18.447  0.00  0.00    +0.000 A 
ATOM     24  C   UNL     1       1.223  10.493  19.571  0.00  0.00    +0.000 A 
ATOM     25  C   UNL     1       1.009   9.817  20.780  0.00  0.00    +0.000 A 
ATOM     26  C   UNL     1       1.277   8.447  20.859  0.00  0.00    +0.000 A 
BRANCH  24  27
ATOM     27  N   UNL     1       0.932  11.930  19.478  0.00  0.00    +0.000 N 
ATOM     28  O   UNL     1       1.386  12.668  20.363  0.00  0.00    +0.000 OA
ATOM     29  O   UNL     1       0.253  12.318  18.515  0.00  0.00    +0.000 OA
ENDBRANCH  24  27
ENDBRANCH   8  21
TORSDOF 3
ENDMDL
MODEL 3
REMARK VINA RESULT:      -7.7      0.960      1.681
REMARK  Name = 
REMARK  4 active torsions:
REMARK  status: ('A' for Active; 'I' for Inactive)
REMARK    1  A    between atoms: C_1  and  C_2
REMARK    2  A    between atoms: C_8  and  C_9
REMARK    3  A    between atoms: C_12  and  N_13
REMARK    4  A    between atoms: C_20  and  C_21
REMARK                            x       y       z     vdW  Elec       q    Type
REMARK                         _______ _______ _______ _____ _____    ______ ____
ROOT
ATOM      1  C   UNL     1       4.416   1.036  18.310  0.00  0.00    +0.000 C 
ATOM      2  C   UNL     1       3.822   2.348  18.684  0.00  0.00    +0.000 A 
ATOM      3  N   UNL     1       2.889   2.373  19.643  0.00  0.00    +0.000 NA
ATOM      4  N   UNL     1       2.520   3.673  19.722  0.00  0.00    +0.000 N 
ATOM      5  C   UNL     1       1.532   4.132  20.613  0.00  0.00    +0.000 A 
ATOM      6  O   UNL     1       0.932   3.384  21.377  0.00  0.00    +0.000 OA
ATOM      7  C   UNL     1       1.276   5.595  20.544  0.00  0.00    +0.000 A 
ATOM      8  C   UNL     1       1.988   6.340  19.682  0.00  0.00    +0.000 A 
ATOM      9  N   UNL     1       2.955   5.808  18.849  0.00  0.00    +0.000 N 
ATOM     10  C   UNL     1       3.227   4.476  18.840  0.00  0.00    +0.000 A 
ATOM     11  C   UNL     1       4.082   3.648  18.137  0.00  0.00    +0.000 A 
ATOM     12  H   UNL     1       3.473   6.476  18.282  0.00  0.00    +0.000 HD
ENDROOT
BRANCH  11  13
ATOM     13  C   UNL     1       4.997   4.057  17.073  0.00  0.00    +0.000 A 
ATOM     14  C   UNL     1       4.910   3.474  15.797  0.00  0.00    +0.000 A 
ATOM     15  C   UNL     1       5.715   3.910  14.739  0.00  0.00    +0.000 A 
ATOM     16  C   UNL     1       6.653   4.913  14.953  0.00  0.00    +0.000 A 
ATOM     17 CL   UNL     1       7.638   5.448  13.648  0.00  0.00    +0.000 Cl
ATOM     18  C   UNL     1       6.776   5.474  16.220  0.00  0.00    +0.000 A 
ATOM     19  F   UNL     1       7.687   6.429  16.459  0.00  0.00    +0.000 F 
ATOM     20  C   UNL     1       5.949   5.066  17.270  0.00  0.00    +0.000 A 
ENDBRANCH  11  13
BRANCH   8  21
ATOM     21  C   UNL     1       1.744   7.787  19.597  0.00  0.00    +0.000 A 
ATOM     22  C   UNL     1       1.246   8.483  20.707  0.00  0.00    +0.000 A 
ATOM     23  C   UNL     1       1.029   9.862  20.636  0.00  0.00    +0.000 A 
ATOM     24  C   UNL     1       1.309  10.547  19.445  0.00  0.00    +0.000 A 
ATOM     25  C   UNL     1       1.802   9.859  18.328  0.00  0.00    +0.000 A 
ATOM     26  C   UNL     1       2.016   8.479  18.409  0.00  0.00    +0.000 A 
BRANCH  24  27
ATOM     27  N   UNL     1       1.095  11.999  19.372  0.00  0.00    +0.000 N 
ATOM     28  O   UNL     1       0.233  12.413  18.585  0.00  0.00    +0.000 OA
ATOM     29  O   UNL     1       1.786  12.720  20.105  0.00  0.00    +0.000 OA
ENDBRANCH  24  27
ENDBRANCH   8  21
TORSDOF 3
ENDMDL
MODEL 4
REMARK VINA RESULT:      -7.3      4.567      9.161
REMARK  Name = 
REMARK  4 active torsions:
REMARK  status: ('A' for Active; 'I' for Inactive)
REMARK    1  A    between atoms: C_1  and  C_2
REMARK    2  A    between atoms: C_8  and  C_9
REMARK    3  A    between atoms: C_12  and  N_13
REMARK    4  A    between atoms: C_20  and  C_21
REMARK                            x       y       z     vdW  Elec       q    Type
REMARK                         _______ _______ _______ _____ _____    ______ ____
ROOT
ATOM      1  C   UNL     1       0.009  16.072  18.856  0.00  0.00    +0.000 C 
ATOM      2  C   UNL     1       0.212  14.599  18.804  0.00  0.00    +0.000 A 
ATOM      3  N   UNL     1      -0.856  13.816  18.615  0.00  0.00    +0.000 NA
ATOM      4  N   UNL     1      -0.364  12.556  18.659  0.00  0.00    +0.000 N 
ATOM      5  C   UNL     1      -1.175  11.415  18.518  0.00  0.00    +0.000 A 
ATOM      6  O   UNL     1      -2.388  11.483  18.351  0.00  0.00    +0.000 OA
ATOM      7  C   UNL     1      -0.439  10.125  18.595  0.00  0.00    +0.000 A 
ATOM      8  C   UNL     1       0.893  10.146  18.771  0.00  0.00    +0.000 A 
ATOM      9  N   UNL     1       1.618  11.318  18.886  0.00  0.00    +0.000 N 
ATOM     10  C   UNL     1       1.010  12.533  18.848  0.00  0.00    +0.000 A 
ATOM     11  C   UNL     1       1.425  13.847  18.956  0.00  0.00    +0.000 A 
ATOM     12  H   UNL     1       2.628  11.213  18.954  0.00  0.00    +0.000 HD
ENDROOT
BRANCH  11  13
ATOM     13  C   UNL     1       2.792  14.304  19.199  0.00  0.00    +0.000 A 
ATOM     14  C   UNL     1       3.230  14.575  20.506  0.00  0.00    +0.000 A 
ATOM     15  C   UNL     1       4.558  14.928  20.772  0.00  0.00    +0.000 A 
ATOM     16  C   UNL     1       5.463  15.055  19.724  0.00  0.00    +0.000 A 
ATOM     17 CL   UNL     1       7.094  15.484  20.056  0.00  0.00    +0.000 Cl
ATOM     18  C   UNL     1       5.034  14.825  18.420  0.00  0.00    +0.000 A 
ATOM     19  F   UNL     1       5.880  14.959  17.389  0.00  0.00    +0.000 F 
ATOM     20  C   UNL     1       3.718  14.438  18.155  0.00  0.00    +0.000 A 
ENDBRANCH  11  13
BRANCH   8  21
ATOM     21  C   UNL     1       1.635   8.881  18.854  0.00  0.00    +0.000 A 
ATOM     22  C   UNL     1       1.567   8.099  20.015  0.00  0.00    +0.000 A 
ATOM     23  C   UNL     1       2.258   6.886  20.092  0.00  0.00    +0.000 A 
ATOM     24  C   UNL     1       3.023   6.455  19.000  0.00  0.00    +0.000 A 
ATOM     25  C   UNL     1       3.102   7.232  17.835  0.00  0.00    +0.000 A 
ATOM     26  C   UNL     1       2.407   8.444  17.768  0.00  0.00    +0.000 A 
BRANCH  24  27
ATOM     27  N   UNL     1       3.740   5.175  19.072  0.00  0.00    +0.000 N 
ATOM     28  O   UNL     1       3.117   4.149  18.768  0.00  0.00    +0.000 OA
ATOM     29  O   UNL     1       4.927   5.199  19.429  0.00  0.00    +0.000 OA
ENDBRANCH  24  27
ENDBRANCH   8  21
TORSDOF 3
ENDMDL
MODEL 5
REMARK VINA RESULT:      -7.2      4.593      9.134
REMARK  Name = 
REMARK  4 active torsions:
REMARK  status: ('A' for Active; 'I' for Inactive)
REMARK    1  A    between atoms: C_1  and  C_2
REMARK    2  A    between atoms: C_8  and  C_9
REMARK    3  A    between atoms: C_12  and  N_13
REMARK    4  A    between atoms: C_20  and  C_21
REMARK                            x       y       z     vdW  Elec       q    Type
REMARK                         _______ _______ _______ _____ _____    ______ ____
ROOT
ATOM      1  C   UNL     1      -0.050  16.140  18.987  0.00  0.00    +0.000 C 
ATOM      2  C   UNL     1       0.152  14.668  18.917  0.00  0.00    +0.000 A 
ATOM      3  N   UNL     1      -0.921  13.886  18.748  0.00  0.00    +0.000 NA
ATOM      4  N   UNL     1      -0.428  12.626  18.769  0.00  0.00    +0.000 N 
ATOM      5  C   UNL     1      -1.243  11.486  18.638  0.00  0.00    +0.000 A 
ATOM      6  O   UNL     1      -2.459  11.556  18.501  0.00  0.00    +0.000 OA
ATOM      7  C   UNL     1      -0.506  10.195  18.685  0.00  0.00    +0.000 A 
ATOM      8  C   UNL     1       0.830  10.215  18.829  0.00  0.00    +0.000 A 
ATOM      9  N   UNL     1       1.558  11.386  18.936  0.00  0.00    +0.000 N 
ATOM     10  C   UNL     1       0.950  12.601  18.924  0.00  0.00    +0.000 A 
ATOM     11  C   UNL     1       1.367  13.914  19.034  0.00  0.00    +0.000 A 
ATOM     12  H   UNL     1       2.570  11.280  18.979  0.00  0.00    +0.000 HD
ENDROOT
BRANCH  11  13
ATOM     13  C   UNL     1       2.740  14.369  19.247  0.00  0.00    +0.000 A 
ATOM     14  C   UNL     1       3.199  14.662  20.542  0.00  0.00    +0.000 A 
ATOM     15  C   UNL     1       4.533  15.013  20.781  0.00  0.00    +0.000 A 
ATOM     16  C   UNL     1       5.422  15.117  19.717  0.00  0.00    +0.000 A 
ATOM     17 CL   UNL     1       7.060  15.545  20.017  0.00  0.00    +0.000 Cl
ATOM     18  C   UNL     1       4.972  14.865  18.425  0.00  0.00    +0.000 A 
ATOM     19  F   UNL     1       5.803  14.977  17.378  0.00  0.00    +0.000 F 
ATOM     20  C   UNL     1       3.650  14.479  18.187  0.00  0.00    +0.000 A 
ENDBRANCH  11  13
BRANCH   8  21
ATOM     21  C   UNL     1       1.574   8.949  18.883  0.00  0.00    +0.000 A 
ATOM     22  C   UNL     1       2.371   8.554  17.799  0.00  0.00    +0.000 A 
ATOM     23  C   UNL     1       3.094   7.358  17.853  0.00  0.00    +0.000 A 
ATOM     24  C   UNL     1       3.016   6.553  18.997  0.00  0.00    +0.000 A 
ATOM     25  C   UNL     1       2.218   6.936  20.085  0.00  0.00    +0.000 A 
ATOM     26  C   UNL     1       1.498   8.134  20.021  0.00  0.00    +0.000 A 
BRANCH  24  27
ATOM     27  N   UNL     1       3.785   5.303  19.062  0.00  0.00    +0.000 N 
ATOM     28  O   UNL     1       4.972   5.375  19.408  0.00  0.00    +0.000 OA
ATOM     29  O   UNL     1       3.197   4.251  18.771  0.00  0.00    +0.000 OA
ENDBRANCH  24  27
ENDBRANCH   8  21
TORSDOF 3
ENDMDL
MODEL 6
REMARK VINA RESULT:      -7.1      4.712      8.687
REMARK  Name = 
REMARK  4 active torsions:
REMARK  status: ('A' for Active; 'I' for Inactive)
REMARK    1  A    between atoms: C_1  and  C_2
REMARK    2  A    between atoms: C_8  and  C_9
REMARK    3  A    between atoms: C_12  and  N_13
REMARK    4  A    between atoms: C_20  and  C_21
REMARK                            x       y       z     vdW  Elec       q    Type
REMARK                         _______ _______ _______ _____ _____    ______ ____
ROOT
ATOM      1  C   UNL     1      -2.634  12.726  21.019  0.00  0.00    +0.000 C 
ATOM      2  C   UNL     1      -1.701  11.570  20.943  0.00  0.00    +0.000 A 
ATOM      3  N   UNL     1      -0.976  11.265  22.026  0.00  0.00    +0.000 NA
ATOM      4  N   UNL     1      -0.210  10.220  21.636  0.00  0.00    +0.000 N 
ATOM      5  C   UNL     1       0.721   9.598  22.488  0.00  0.00    +0.000 A 
ATOM      6  O   UNL     1       0.909   9.966  23.643  0.00  0.00    +0.000 OA
ATOM      7  C   UNL     1       1.461   8.467  21.868  0.00  0.00    +0.000 A 
ATOM      8  C   UNL     1       1.185   8.128  20.598  0.00  0.00    +0.000 A 
ATOM      9  N   UNL     1       0.238   8.785  19.833  0.00  0.00    +0.000 N 
ATOM     10  C   UNL     1      -0.460   9.842  20.325  0.00  0.00    +0.000 A 
ATOM     11  C   UNL     1      -1.421  10.705  19.833  0.00  0.00    +0.000 A 
ATOM     12  H   UNL     1       0.070   8.401  18.905  0.00  0.00    +0.000 HD
ENDROOT
BRANCH  11  13
ATOM     13  C   UNL     1      -1.967  10.705  18.477  0.00  0.00    +0.000 A 
ATOM     14  C   UNL     1      -1.391   9.902  17.478  0.00  0.00    +0.000 A 
ATOM     15  C   UNL     1      -1.949   9.818  16.197  0.00  0.00    +0.000 A 
ATOM     16  C   UNL     1      -3.074  10.571  15.883  0.00  0.00    +0.000 A 
ATOM     17 CL   UNL     1      -3.759  10.461  14.309  0.00  0.00    +0.000 Cl
ATOM     18  C   UNL     1      -3.634  11.399  16.852  0.00  0.00    +0.000 A 
ATOM     19  F   UNL     1      -4.707  12.152  16.569  0.00  0.00    +0.000 F 
ATOM     20  C   UNL     1      -3.101  11.458  18.141  0.00  0.00    +0.000 A 
ENDBRANCH  11  13
BRANCH   8  21
ATOM     21  C   UNL     1       1.909   7.015  19.969  0.00  0.00    +0.000 A 
ATOM     22  C   UNL     1       1.924   5.751  20.575  0.00  0.00    +0.000 A 
ATOM     23  C   UNL     1       2.598   4.686  19.971  0.00  0.00    +0.000 A 
ATOM     24  C   UNL     1       3.263   4.888  18.754  0.00  0.00    +0.000 A 
ATOM     25  C   UNL     1       3.259   6.149  18.141  0.00  0.00    +0.000 A 
ATOM     26  C   UNL     1       2.582   7.209  18.754  0.00  0.00    +0.000 A 
BRANCH  24  27
ATOM     27  N   UNL     1       3.961   3.767  18.109  0.00  0.00    +0.000 N 
ATOM     28  O   UNL     1       4.294   2.811  18.823  0.00  0.00    +0.000 OA
ATOM     29  O   UNL     1       4.169   3.844  16.890  0.00  0.00    +0.000 OA
ENDBRANCH  24  27
ENDBRANCH   8  21
TORSDOF 3
ENDMDL
MODEL 7
REMARK VINA RESULT:      -7.1      4.646      8.876
REMARK  Name = 
REMARK  4 active torsions:
REMARK  status: ('A' for Active; 'I' for Inactive)
REMARK    1  A    between atoms: C_1  and  C_2
REMARK    2  A    between atoms: C_8  and  C_9
REMARK    3  A    between atoms: C_12  and  N_13
REMARK    4  A    between atoms: C_20  and  C_21
REMARK                            x       y       z     vdW  Elec       q    Type
REMARK                         _______ _______ _______ _____ _____    ______ ____
ROOT
ATOM      1  C   UNL     1      -0.722  14.394  22.569  0.00  0.00    +0.000 C 
ATOM      2  C   UNL     1      -0.292  13.064  22.063  0.00  0.00    +0.000 A 
ATOM      3  N   UNL     1      -0.695  11.972  22.723  0.00  0.00    +0.000 NA
ATOM      4  N   UNL     1      -0.116  10.943  22.060  0.00  0.00    +0.000 N 
ATOM      5  C   UNL     1      -0.276   9.600  22.448  0.00  0.00    +0.000 A 
ATOM      6  O   UNL     1      -0.946   9.268  23.420  0.00  0.00    +0.000 OA
ATOM      7  C   UNL     1       0.441   8.623  21.587  0.00  0.00    +0.000 A 
ATOM      8  C   UNL     1       1.146   9.076  20.537  0.00  0.00    +0.000 A 
ATOM      9  N   UNL     1       1.238  10.418  20.216  0.00  0.00    +0.000 N 
ATOM     10  C   UNL     1       0.629  11.370  20.971  0.00  0.00    +0.000 A 
ATOM     11  C   UNL     1       0.548  12.750  20.943  0.00  0.00    +0.000 A 
ATOM     12  H   UNL     1       1.749  10.640  19.364  0.00  0.00    +0.000 HD
ENDROOT
BRANCH  11  13
ATOM     13  C   UNL     1       1.210  13.633  19.985  0.00  0.00    +0.000 A 
ATOM     14  C   UNL     1       0.487  14.652  19.341  0.00  0.00    +0.000 A 
ATOM     15  C   UNL     1       1.117  15.566  18.487  0.00  0.00    +0.000 A 
ATOM     16  C   UNL     1       2.478  15.447  18.232  0.00  0.00    +0.000 A 
ATOM     17 CL   UNL     1       3.248  16.575  17.186  0.00  0.00    +0.000 Cl
ATOM     18  C   UNL     1       3.199  14.421  18.834  0.00  0.00    +0.000 A 
ATOM     19  F   UNL     1       4.509  14.272  18.590  0.00  0.00    +0.000 F 
ATOM     20  C   UNL     1       2.581  13.529  19.715  0.00  0.00    +0.000 A 
ENDBRANCH  11  13
BRANCH   8  21
ATOM     21  C   UNL     1       1.864   8.125  19.678  0.00  0.00    +0.000 A 
ATOM     22  C   UNL     1       2.133   6.827  20.135  0.00  0.00    +0.000 A 
ATOM     23  C   UNL     1       2.801   5.913  19.314  0.00  0.00    +0.000 A 
ATOM     24  C   UNL     1       3.204   6.303  18.030  0.00  0.00    +0.000 A 
ATOM     25  C   UNL     1       2.945   7.600  17.565  0.00  0.00    +0.000 A 
ATOM     26  C   UNL     1       2.277   8.507  18.393  0.00  0.00    +0.000 A 
BRANCH  24  27
ATOM     27  N   UNL     1       3.895   5.341  17.160  0.00  0.00    +0.000 N 
ATOM     28  O   UNL     1       4.757   5.781  16.386  0.00  0.00    +0.000 OA
ATOM     29  O   UNL     1       3.576   4.147  17.256  0.00  0.00    +0.000 OA
ENDBRANCH  24  27
ENDBRANCH   8  21
TORSDOF 3
ENDMDL
MODEL 8
REMARK VINA RESULT:      -7.1      4.804      9.285
REMARK  Name = 
REMARK  4 active torsions:
REMARK  status: ('A' for Active; 'I' for Inactive)
REMARK    1  A    between atoms: C_1  and  C_2
REMARK    2  A    between atoms: C_8  and  C_9
REMARK    3  A    between atoms: C_12  and  N_13
REMARK    4  A    between atoms: C_20  and  C_21
REMARK                            x       y       z     vdW  Elec       q    Type
REMARK                         _______ _______ _______ _____ _____    ______ ____
ROOT
ATOM      1  C   UNL     1       0.129  16.161  18.778  0.00  0.00    +0.000 C 
ATOM      2  C   UNL     1       0.292  14.682  18.777  0.00  0.00    +0.000 A 
ATOM      3  N   UNL     1      -0.805  13.921  18.688  0.00  0.00    +0.000 NA
ATOM      4  N   UNL     1      -0.343  12.651  18.756  0.00  0.00    +0.000 N 
ATOM      5  C   UNL     1      -1.189  11.528  18.713  0.00  0.00    +0.000 A 
ATOM      6  O   UNL     1      -2.408  11.623  18.618  0.00  0.00    +0.000 OA
ATOM      7  C   UNL     1      -0.483  10.223  18.801  0.00  0.00    +0.000 A 
ATOM      8  C   UNL     1       0.857  10.214  18.894  0.00  0.00    +0.000 A 
ATOM      9  N   UNL     1       1.618  11.369  18.914  0.00  0.00    +0.000 N 
ATOM     10  C   UNL     1       1.039  12.598  18.862  0.00  0.00    +0.000 A 
ATOM     11  C   UNL     1       1.492  13.904  18.888  0.00  0.00    +0.000 A 
ATOM     12  H   UNL     1       2.627  11.239  18.926  0.00  0.00    +0.000 HD
ENDROOT
BRANCH  11  13
ATOM     13  C   UNL     1       2.883  14.332  19.027  0.00  0.00    +0.000 A 
ATOM     14  C   UNL     1       3.650  14.638  17.889  0.00  0.00    +0.000 A 
ATOM     15  C   UNL     1       4.954  15.134  18.000  0.00  0.00    +0.000 A 
ATOM     16  C   UNL     1       5.528  15.293  19.256  0.00  0.00    +0.000 A 
ATOM     17 CL   UNL     1       7.130  15.906  19.387  0.00  0.00    +0.000 Cl
ATOM     18  C   UNL     1       4.794  14.958  20.390  0.00  0.00    +0.000 A 
ATOM     19  F   UNL     1       5.330  15.083  21.613  0.00  0.00    +0.000 F 
ATOM     20  C   UNL     1       3.479  14.497  20.284  0.00  0.00    +0.000 A 
ENDBRANCH  11  13
BRANCH   8  21
ATOM     21  C   UNL     1       1.572   8.933  18.986  0.00  0.00    +0.000 A 
ATOM     22  C   UNL     1       1.495   8.166  20.157  0.00  0.00    +0.000 A 
ATOM     23  C   UNL     1       2.159   6.939  20.243  0.00  0.00    +0.000 A 
ATOM     24  C   UNL     1       2.906   6.479  19.149  0.00  0.00    +0.000 A 
ATOM     25  C   UNL     1       2.994   7.240  17.976  0.00  0.00    +0.000 A 
ATOM     26  C   UNL     1       2.326   8.467  17.900  0.00  0.00    +0.000 A 
BRANCH  24  27
ATOM     27  N   UNL     1       3.595   5.183  19.231  0.00  0.00    +0.000 N 
ATOM     28  O   UNL     1       4.822   5.173  19.066  0.00  0.00    +0.000 OA
ATOM     29  O   UNL     1       2.905   4.179  19.465  0.00  0.00    +0.000 OA
ENDBRANCH  24  27
ENDBRANCH   8  21
TORSDOF 3
ENDMDL
MODEL 9
REMARK VINA RESULT:      -7.1      4.728      8.662
REMARK  Name = 
REMARK  4 active torsions:
REMARK  status: ('A' for Active; 'I' for Inactive)
REMARK    1  A    between atoms: C_1  and  C_2
REMARK    2  A    between atoms: C_8  and  C_9
REMARK    3  A    between atoms: C_12  and  N_13
REMARK    4  A    between atoms: C_20  and  C_21
REMARK                            x       y       z     vdW  Elec       q    Type
REMARK                         _______ _______ _______ _____ _____    ______ ____
ROOT
ATOM      1  C   UNL     1      -2.622  12.743  21.016  0.00  0.00    +0.000 C 
ATOM      2  C   UNL     1      -1.688  11.587  20.931  0.00  0.00    +0.000 A 
ATOM      3  N   UNL     1      -0.951  11.285  22.007  0.00  0.00    +0.000 NA
ATOM      4  N   UNL     1      -0.188  10.240  21.611  0.00  0.00    +0.000 N 
ATOM      5  C   UNL     1       0.754   9.621  22.453  0.00  0.00    +0.000 A 
ATOM      6  O   UNL     1       0.953   9.991  23.605  0.00  0.00    +0.000 OA
ATOM      7  C   UNL     1       1.488   8.489  21.827  0.00  0.00    +0.000 A 
ATOM      8  C   UNL     1       1.197   8.147  20.561  0.00  0.00    +0.000 A 
ATOM      9  N   UNL     1       0.242   8.802  19.805  0.00  0.00    +0.000 N 
ATOM     10  C   UNL     1      -0.452   9.860  20.303  0.00  0.00    +0.000 A 
ATOM     11  C   UNL     1      -1.420  10.721  19.820  0.00  0.00    +0.000 A 
ATOM     12  H   UNL     1       0.063   8.417  18.880  0.00  0.00    +0.000 HD
ENDROOT
BRANCH  11  13
ATOM     13  C   UNL     1      -1.981  10.718  18.471  0.00  0.00    +0.000 A 
ATOM     14  C   UNL     1      -1.418   9.911  17.468  0.00  0.00    +0.000 A 
ATOM     15  C   UNL     1      -1.990   9.824  16.193  0.00  0.00    +0.000 A 
ATOM     16  C   UNL     1      -3.118  10.578  15.890  0.00  0.00    +0.000 A 
ATOM     17 CL   UNL     1      -3.820  10.465  14.324  0.00  0.00    +0.000 Cl
ATOM     18  C   UNL     1      -3.665  11.410  16.862  0.00  0.00    +0.000 A 
ATOM     19  F   UNL     1      -4.741  12.163  16.590  0.00  0.00    +0.000 F 
ATOM     20  C   UNL     1      -3.117  11.472  18.146  0.00  0.00    +0.000 A 
ENDBRANCH  11  13
BRANCH   8  21
ATOM     21  C   UNL     1       1.916   7.035  19.925  0.00  0.00    +0.000 A 
ATOM     22  C   UNL     1       2.593   7.234  18.714  0.00  0.00    +0.000 A 
ATOM     23  C   UNL     1       3.292   6.183  18.113  0.00  0.00    +0.000 A 
ATOM     24  C   UNL     1       3.311   4.924  18.729  0.00  0.00    +0.000 A 
ATOM     25  C   UNL     1       2.633   4.712  19.938  0.00  0.00    +0.000 A 
ATOM     26  C   UNL     1       1.936   5.770  20.530  0.00  0.00    +0.000 A 
BRANCH  24  27
ATOM     27  N   UNL     1       4.056   3.820  18.108  0.00  0.00    +0.000 N 
ATOM     28  O   UNL     1       4.488   3.992  16.960  0.00  0.00    +0.000 OA
ATOM     29  O   UNL     1       4.211   2.785  18.773  0.00  0.00    +0.000 OA
ENDBRANCH  24  27
ENDBRANCH   8  21
TORSDOF 3
ENDMDL
