MODEL 1
REMARK VINA RESULT:      -7.5      0.000      0.000
REMARK  Name = 
REMARK  8 active torsions:
REMARK  status: ('A' for Active; 'I' for Inactive)
REMARK    1  A    between atoms: C_1  and  C_2
REMARK    2  A    between atoms: C_2  and  C_3
REMARK    3  A    between atoms: C_2  and  C_4
REMARK    4  A    between atoms: C_4  and  C_5
REMARK    5  A    between atoms: C_4  and  C_13
REMARK    6  A    between atoms: C_5  and  C_6
REMARK    7  A    between atoms: C_9  and  O_10
REMARK    8  A    between atoms: C_16  and  O_17
REMARK                            x       y       z     vdW  Elec       q    Type
REMARK                         _______ _______ _______ _____ _____    ______ ____
ROOT
ATOM      1  C   UNL     1       2.626   4.877  18.638  0.00  0.00    +0.000 C 
ENDROOT
BRANCH   1   2
ATOM      2  C   UNL     1       4.046   4.703  18.101  0.00  0.00    +0.000 A 
ATOM      3  C   UNL     1       5.156   4.856  18.955  0.00  0.00    +0.000 A 
ATOM      4  C   UNL     1       6.463   4.777  18.460  0.00  0.00    +0.000 A 
ATOM      5  C   UNL     1       6.670   4.543  17.105  0.00  0.00    +0.000 A 
ATOM      6  C   UNL     1       5.600   4.354  16.252  0.00  0.00    +0.000 A 
ATOM      7  C   UNL     1       4.301   4.419  16.754  0.00  0.00    +0.000 A 
BRANCH   5   8
ATOM      8  O   UNL     1       7.921   4.493  16.566  0.00  0.00    +0.000 OA
ATOM      9  H   UNL     1       8.186   5.392  16.319  0.00  0.00    +0.000 HD
ENDBRANCH   5   8
ENDBRANCH   1   2
BRANCH   1  11
ATOM     10  C   UNL     1       2.601   2.191  18.565  0.00  0.00    +0.000 C 
ATOM     11  C   UNL     1       1.838   3.514  18.700  0.00  0.00    +0.000 C 
ATOM     12  C   UNL     1       0.940   3.424  19.940  0.00  0.00    +0.000 C 
ENDBRANCH   1  11
BRANCH   1  13
ATOM     13  C   UNL     1       2.522   5.881  19.830  0.00  0.00    +0.000 C 
BRANCH  13  14
ATOM     14  C   UNL     1       2.207   7.313  19.487  0.00  0.00    +0.000 A 
ATOM     15  C   UNL     1       1.512   8.130  20.397  0.00  0.00    +0.000 A 
ATOM     16  C   UNL     1       0.980   9.349  19.983  0.00  0.00    +0.000 A 
ATOM     17  C   UNL     1       1.165   9.764  18.669  0.00  0.00    +0.000 A 
ATOM     18  C   UNL     1       1.951   9.027  17.796  0.00  0.00    +0.000 A 
ATOM     19  C   UNL     1       2.502   7.818  18.217  0.00  0.00    +0.000 A 
BRANCH  17  20
ATOM     20  O   UNL     1       0.559  10.884  18.186  0.00  0.00    +0.000 OA
ATOM     21  H   UNL     1       0.013  10.632  17.423  0.00  0.00    +0.000 HD
ENDBRANCH  17  20
ENDBRANCH  13  14
ENDBRANCH   1  13
TORSDOF 6
ENDMDL
MODEL 2
REMARK VINA RESULT:      -7.4      0.268      1.134
REMARK  Name = 
REMARK  8 active torsions:
REMARK  status: ('A' for Active; 'I' for Inactive)
REMARK    1  A    between atoms: C_1  and  C_2
REMARK    2  A    between atoms: C_2  and  C_3
REMARK    3  A    between atoms: C_2  and  C_4
REMARK    4  A    between atoms: C_4  and  C_5
REMARK    5  A    between atoms: C_4  and  C_13
REMARK    6  A    between atoms: C_5  and  C_6
REMARK    7  A    between atoms: C_9  and  O_10
REMARK    8  A    between atoms: C_16  and  O_17
REMARK                            x       y       z     vdW  Elec       q    Type
REMARK                         _______ _______ _______ _____ _____    ______ ____
ROOT
ATOM      1  C   UNL     1       2.605   4.933  18.850  0.00  0.00    +0.000 C 
ENDROOT
BRANCH   1   2
ATOM      2  C   UNL     1       4.034   4.865  18.314  0.00  0.00    +0.000 A 
ATOM      3  C   UNL     1       4.279   4.509  16.973  0.00  0.00    +0.000 A 
ATOM      4  C   UNL     1       5.585   4.365  16.491  0.00  0.00    +0.000 A 
ATOM      5  C   UNL     1       6.659   4.580  17.348  0.00  0.00    +0.000 A 
ATOM      6  C   UNL     1       6.449   4.965  18.657  0.00  0.00    +0.000 A 
ATOM      7  C   UNL     1       5.145   5.120  19.127  0.00  0.00    +0.000 A 
BRANCH   5   8
ATOM      8  O   UNL     1       7.949   4.420  16.938  0.00  0.00    +0.000 OA
ATOM      9  H   UNL     1       8.152   3.472  16.927  0.00  0.00    +0.000 HD
ENDBRANCH   5   8
ENDBRANCH   1   2
BRANCH   1  11
ATOM     10  C   UNL     1       2.837   2.275  19.170  0.00  0.00    +0.000 C 
ATOM     11  C   UNL     1       1.946   3.509  18.983  0.00  0.00    +0.000 C 
ATOM     12  C   UNL     1       0.852   3.478  20.058  0.00  0.00    +0.000 C 
ENDBRANCH   1  11
BRANCH   1  13
ATOM     13  C   UNL     1       2.412   5.980  19.994  0.00  0.00    +0.000 C 
BRANCH  13  14
ATOM     14  C   UNL     1       2.113   7.395  19.576  0.00  0.00    +0.000 A 
ATOM     15  C   UNL     1       1.509   8.293  20.474  0.00  0.00    +0.000 A 
ATOM     16  C   UNL     1       0.982   9.499  20.016  0.00  0.00    +0.000 A 
ATOM     17  C   UNL     1       1.083   9.819  18.667  0.00  0.00    +0.000 A 
ATOM     18  C   UNL     1       1.783   9.000  17.794  0.00  0.00    +0.000 A 
ATOM     19  C   UNL     1       2.330   7.804  18.257  0.00  0.00    +0.000 A 
BRANCH  17  20
ATOM     20  O   UNL     1       0.475  10.924  18.151  0.00  0.00    +0.000 OA
ATOM     21  H   UNL     1       0.403  11.589  18.855  0.00  0.00    +0.000 HD
ENDBRANCH  17  20
ENDBRANCH  13  14
ENDBRANCH   1  13
TORSDOF 6
ENDMDL
MODEL 3
REMARK VINA RESULT:      -7.3      2.737      5.087
REMARK  Name = 
REMARK  8 active torsions:
REMARK  status: ('A' for Active; 'I' for Inactive)
REMARK    1  A    between atoms: C_1  and  C_2
REMARK    2  A    between atoms: C_2  and  C_3
REMARK    3  A    between atoms: C_2  and  C_4
REMARK    4  A    between atoms: C_4  and  C_5
REMARK    5  A    between atoms: C_4  and  C_13
REMARK    6  A    between atoms: C_5  and  C_6
REMARK    7  A    between atoms: C_9  and  O_10
REMARK    8  A    between atoms: C_16  and  O_17
REMARK                            x       y       z     vdW  Elec       q    Type
REMARK                         _______ _______ _______ _____ _____    ______ ____
ROOT
ATOM      1  C   UNL     1       2.619   6.204  18.469  0.00  0.00    +0.000 C 
ENDROOT
BRANCH   1   2
ATOM      2  C   UNL     1       2.905   4.703  18.505  0.00  0.00    +0.000 A 
ATOM      3  C   UNL     1       3.882   4.182  19.376  0.00  0.00    +0.000 A 
ATOM      4  C   UNL     1       4.209   2.821  19.362  0.00  0.00    +0.000 A 
ATOM      5  C   UNL     1       3.558   1.969  18.476  0.00  0.00    +0.000 A 
ATOM      6  C   UNL     1       2.570   2.447  17.637  0.00  0.00    +0.000 A 
ATOM      7  C   UNL     1       2.240   3.801  17.666  0.00  0.00    +0.000 A 
BRANCH   5   8
ATOM      8  O   UNL     1       3.863   0.643  18.398  0.00  0.00    +0.000 OA
ATOM      9  H   UNL     1       4.374   0.398  19.185  0.00  0.00    +0.000 HD
ENDBRANCH   5   8
ENDBRANCH   1   2
BRANCH   1  11
ATOM     10  C   UNL     1       1.714   8.197  20.028  0.00  0.00    +0.000 C 
ATOM     11  C   UNL     1       2.307   6.788  19.898  0.00  0.00    +0.000 C 
ATOM     12  C   UNL     1       1.453   5.831  20.739  0.00  0.00    +0.000 C 
ENDBRANCH   1  11
BRANCH   1  13
ATOM     13  C   UNL     1       3.551   6.999  17.500  0.00  0.00    +0.000 C 
BRANCH  13  14
ATOM     14  C   UNL     1       4.892   6.387  17.193  0.00  0.00    +0.000 A 
ATOM     15  C   UNL     1       5.031   5.458  16.146  0.00  0.00    +0.000 A 
ATOM     16  C   UNL     1       6.188   4.689  16.036  0.00  0.00    +0.000 A 
ATOM     17  C   UNL     1       7.216   4.868  16.955  0.00  0.00    +0.000 A 
ATOM     18  C   UNL     1       7.143   5.865  17.916  0.00  0.00    +0.000 A 
ATOM     19  C   UNL     1       5.995   6.649  18.012  0.00  0.00    +0.000 A 
BRANCH  17  20
ATOM     20  O   UNL     1       8.309   4.056  16.964  0.00  0.00    +0.000 OA
ATOM     21  H   UNL     1       8.730   4.119  17.837  0.00  0.00    +0.000 HD
ENDBRANCH  17  20
ENDBRANCH  13  14
ENDBRANCH   1  13
TORSDOF 6
ENDMDL
MODEL 4
REMARK VINA RESULT:      -7.2      0.589      1.360
REMARK  Name = 
REMARK  8 active torsions:
REMARK  status: ('A' for Active; 'I' for Inactive)
REMARK    1  A    between atoms: C_1  and  C_2
REMARK    2  A    between atoms: C_2  and  C_3
REMARK    3  A    between atoms: C_2  and  C_4
REMARK    4  A    between atoms: C_4  and  C_5
REMARK    5  A    between atoms: C_4  and  C_13
REMARK    6  A    between atoms: C_5  and  C_6
REMARK    7  A    between atoms: C_9  and  O_10
REMARK    8  A    between atoms: C_16  and  O_17
REMARK                            x       y       z     vdW  Elec       q    Type
REMARK                         _______ _______ _______ _____ _____    ______ ____
ROOT
ATOM      1  C   UNL     1       2.868   4.829  19.041  0.00  0.00    +0.000 C 
ENDROOT
BRANCH   1   2
ATOM      2  C   UNL     1       4.214   4.675  18.334  0.00  0.00    +0.000 A 
ATOM      3  C   UNL     1       5.409   5.043  18.984  0.00  0.00    +0.000 A 
ATOM      4  C   UNL     1       6.639   4.981  18.319  0.00  0.00    +0.000 A 
ATOM      5  C   UNL     1       6.684   4.549  16.999  0.00  0.00    +0.000 A 
ATOM      6  C   UNL     1       5.533   4.148  16.349  0.00  0.00    +0.000 A 
ATOM      7  C   UNL     1       4.312   4.199  17.022  0.00  0.00    +0.000 A 
BRANCH   5   8
ATOM      8  O   UNL     1       7.851   4.503  16.295  0.00  0.00    +0.000 OA
ATOM      9  H   UNL     1       8.582   4.701  16.901  0.00  0.00    +0.000 HD
ENDBRANCH   5   8
ENDBRANCH   1   2
BRANCH   1  11
ATOM     10  C   UNL     1       1.806   3.268  20.954  0.00  0.00    +0.000 C 
ATOM     11  C   UNL     1       2.273   3.446  19.504  0.00  0.00    +0.000 C 
ATOM     12  C   UNL     1       1.150   2.963  18.577  0.00  0.00    +0.000 C 
ENDBRANCH   1  11
BRANCH   1  13
ATOM     13  C   UNL     1       2.801   6.056  20.006  0.00  0.00    +0.000 C 
BRANCH  13  14
ATOM     14  C   UNL     1       2.135   7.299  19.478  0.00  0.00    +0.000 A 
ATOM     15  C   UNL     1       2.303   7.685  18.137  0.00  0.00    +0.000 A 
ATOM     16  C   UNL     1       1.927   8.960  17.718  0.00  0.00    +0.000 A 
ATOM     17  C   UNL     1       1.359   9.839  18.634  0.00  0.00    +0.000 A 
ATOM     18  C   UNL     1       1.076   9.430  19.928  0.00  0.00    +0.000 A 
ATOM     19  C   UNL     1       1.432   8.147  20.341  0.00  0.00    +0.000 A 
BRANCH  17  20
ATOM     20  O   UNL     1       1.093  11.133  18.305  0.00  0.00    +0.000 OA
ATOM     21  H   UNL     1       1.133  11.217  17.338  0.00  0.00    +0.000 HD
ENDBRANCH  17  20
ENDBRANCH  13  14
ENDBRANCH   1  13
TORSDOF 6
ENDMDL
MODEL 5
REMARK VINA RESULT:      -7.2      0.935      6.035
REMARK  Name = 
REMARK  8 active torsions:
REMARK  status: ('A' for Active; 'I' for Inactive)
REMARK    1  A    between atoms: C_1  and  C_2
REMARK    2  A    between atoms: C_2  and  C_3
REMARK    3  A    between atoms: C_2  and  C_4
REMARK    4  A    between atoms: C_4  and  C_5
REMARK    5  A    between atoms: C_4  and  C_13
REMARK    6  A    between atoms: C_5  and  C_6
REMARK    7  A    between atoms: C_9  and  O_10
REMARK    8  A    between atoms: C_16  and  O_17
REMARK                            x       y       z     vdW  Elec       q    Type
REMARK                         _______ _______ _______ _____ _____    ______ ____
ROOT
ATOM      1  C   UNL     1       2.460   5.751  19.434  0.00  0.00    +0.000 C 
ENDROOT
BRANCH   1   2
ATOM      2  C   UNL     1       1.990   7.202  19.508  0.00  0.00    +0.000 A 
ATOM      3  C   UNL     1       1.462   7.723  20.706  0.00  0.00    +0.000 A 
ATOM      4  C   UNL     1       0.954   9.026  20.765  0.00  0.00    +0.000 A 
ATOM      5  C   UNL     1       0.974   9.821  19.625  0.00  0.00    +0.000 A 
ATOM      6  C   UNL     1       1.519   9.349  18.446  0.00  0.00    +0.000 A 
ATOM      7  C   UNL     1       2.035   8.055  18.398  0.00  0.00    +0.000 A 
BRANCH   5   8
ATOM      8  O   UNL     1       0.461  11.085  19.620  0.00  0.00    +0.000 OA
ATOM      9  H   UNL     1      -0.495  11.028  19.768  0.00  0.00    +0.000 HD
ENDBRANCH   5   8
ENDBRANCH   1   2
BRANCH   1  11
ATOM     10  C   UNL     1       0.815   3.640  19.683  0.00  0.00    +0.000 C 
ATOM     11  C   UNL     1       1.592   4.792  20.333  0.00  0.00    +0.000 C 
ATOM     12  C   UNL     1       2.393   4.225  21.512  0.00  0.00    +0.000 C 
ENDBRANCH   1  11
BRANCH   1  13
ATOM     13  C   UNL     1       2.870   5.295  17.996  0.00  0.00    +0.000 C 
BRANCH  13  14
ATOM     14  C   UNL     1       4.345   5.196  17.710  0.00  0.00    +0.000 A 
ATOM     15  C   UNL     1       4.802   4.682  16.484  0.00  0.00    +0.000 A 
ATOM     16  C   UNL     1       6.141   4.332  16.322  0.00  0.00    +0.000 A 
ATOM     17  C   UNL     1       7.028   4.522  17.377  0.00  0.00    +0.000 A 
ATOM     18  C   UNL     1       6.616   5.140  18.547  0.00  0.00    +0.000 A 
ATOM     19  C   UNL     1       5.281   5.511  18.700  0.00  0.00    +0.000 A 
BRANCH  17  20
ATOM     20  O   UNL     1       8.315   4.080  17.311  0.00  0.00    +0.000 OA
ATOM     21  H   UNL     1       8.766   4.561  16.598  0.00  0.00    +0.000 HD
ENDBRANCH  17  20
ENDBRANCH  13  14
ENDBRANCH   1  13
TORSDOF 6
ENDMDL
MODEL 6
REMARK VINA RESULT:      -7.2      0.566      1.655
REMARK  Name = 
REMARK  8 active torsions:
REMARK  status: ('A' for Active; 'I' for Inactive)
REMARK    1  A    between atoms: C_1  and  C_2
REMARK    2  A    between atoms: C_2  and  C_3
REMARK    3  A    between atoms: C_2  and  C_4
REMARK    4  A    between atoms: C_4  and  C_5
REMARK    5  A    between atoms: C_4  and  C_13
REMARK    6  A    between atoms: C_5  and  C_6
REMARK    7  A    between atoms: C_9  and  O_10
REMARK    8  A    between atoms: C_16  and  O_17
REMARK                            x       y       z     vdW  Elec       q    Type
REMARK                         _______ _______ _______ _____ _____    ______ ____
ROOT
ATOM      1  C   UNL     1       2.785   5.104  19.020  0.00  0.00    +0.000 C 
ENDROOT
BRANCH   1   2
ATOM      2  C   UNL     1       4.184   4.976  18.419  0.00  0.00    +0.000 A 
ATOM      3  C   UNL     1       4.359   4.474  17.114  0.00  0.00    +0.000 A 
ATOM      4  C   UNL     1       5.639   4.279  16.582  0.00  0.00    +0.000 A 
ATOM      5  C   UNL     1       6.755   4.587  17.352  0.00  0.00    +0.000 A 
ATOM      6  C   UNL     1       6.613   5.114  18.620  0.00  0.00    +0.000 A 
ATOM      7  C   UNL     1       5.335   5.320  19.139  0.00  0.00    +0.000 A 
BRANCH   5   8
ATOM      8  O   UNL     1       8.023   4.382  16.894  0.00  0.00    +0.000 OA
ATOM      9  H   UNL     1       8.459   5.243  16.801  0.00  0.00    +0.000 HD
ENDBRANCH   5   8
ENDBRANCH   1   2
BRANCH   1  11
ATOM     10  C   UNL     1       3.033   2.621  20.019  0.00  0.00    +0.000 C 
ATOM     11  C   UNL     1       2.157   3.704  19.378  0.00  0.00    +0.000 C 
ATOM     12  C   UNL     1       0.879   3.843  20.216  0.00  0.00    +0.000 C 
ENDBRANCH   1  11
BRANCH   1  13
ATOM     13  C   UNL     1       2.637   6.293  20.023  0.00  0.00    +0.000 C 
BRANCH  13  14
ATOM     14  C   UNL     1       2.005   7.553  19.493  0.00  0.00    +0.000 A 
ATOM     15  C   UNL     1       2.190   7.937  18.153  0.00  0.00    +0.000 A 
ATOM     16  C   UNL     1       1.849   9.222  17.735  0.00  0.00    +0.000 A 
ATOM     17  C   UNL     1       1.297  10.112  18.650  0.00  0.00    +0.000 A 
ATOM     18  C   UNL     1       0.996   9.708  19.941  0.00  0.00    +0.000 A 
ATOM     19  C   UNL     1       1.318   8.416  20.353  0.00  0.00    +0.000 A 
BRANCH  17  20
ATOM     20  O   UNL     1       1.064  11.414  18.321  0.00  0.00    +0.000 OA
ATOM     21  H   UNL     1       0.706  11.442  17.419  0.00  0.00    +0.000 HD
ENDBRANCH  17  20
ENDBRANCH  13  14
ENDBRANCH   1  13
TORSDOF 6
ENDMDL
MODEL 7
REMARK VINA RESULT:      -7.1      2.667      5.516
REMARK  Name = 
REMARK  8 active torsions:
REMARK  status: ('A' for Active; 'I' for Inactive)
REMARK    1  A    between atoms: C_1  and  C_2
REMARK    2  A    between atoms: C_2  and  C_3
REMARK    3  A    between atoms: C_2  and  C_4
REMARK    4  A    between atoms: C_4  and  C_5
REMARK    5  A    between atoms: C_4  and  C_13
REMARK    6  A    between atoms: C_5  and  C_6
REMARK    7  A    between atoms: C_9  and  O_10
REMARK    8  A    between atoms: C_16  and  O_17
REMARK                            x       y       z     vdW  Elec       q    Type
REMARK                         _______ _______ _______ _____ _____    ______ ____
ROOT
ATOM      1  C   UNL     1       2.650   5.769  18.203  0.00  0.00    +0.000 C 
ENDROOT
BRANCH   1   2
ATOM      2  C   UNL     1       2.210   4.838  19.331  0.00  0.00    +0.000 A 
ATOM      3  C   UNL     1       2.835   4.896  20.593  0.00  0.00    +0.000 A 
ATOM      4  C   UNL     1       2.495   3.996  21.609  0.00  0.00    +0.000 A 
ATOM      5  C   UNL     1       1.523   3.030  21.372  0.00  0.00    +0.000 A 
ATOM      6  C   UNL     1       0.869   2.973  20.157  0.00  0.00    +0.000 A 
ATOM      7  C   UNL     1       1.202   3.882  19.154  0.00  0.00    +0.000 A 
BRANCH   5   8
ATOM      8  O   UNL     1       1.180   2.108  22.316  0.00  0.00    +0.000 OA
ATOM      9  H   UNL     1       0.733   1.370  21.876  0.00  0.00    +0.000 HD
ENDBRANCH   5   8
ENDBRANCH   1   2
BRANCH   1  11
ATOM     10  C   UNL     1       2.516   8.396  17.655  0.00  0.00    +0.000 C 
ATOM     11  C   UNL     1       2.749   7.270  18.669  0.00  0.00    +0.000 C 
ATOM     12  C   UNL     1       1.881   7.550  19.903  0.00  0.00    +0.000 C 
ENDBRANCH   1  11
BRANCH   1  13
ATOM     13  C   UNL     1       3.772   5.170  17.295  0.00  0.00    +0.000 C 
BRANCH  13  14
ATOM     14  C   UNL     1       5.187   5.582  17.602  0.00  0.00    +0.000 A 
ATOM     15  C   UNL     1       5.869   5.032  18.702  0.00  0.00    +0.000 A 
ATOM     16  C   UNL     1       7.057   5.605  19.152  0.00  0.00    +0.000 A 
ATOM     17  C   UNL     1       7.577   6.709  18.485  0.00  0.00    +0.000 A 
ATOM     18  C   UNL     1       6.981   7.185  17.327  0.00  0.00    +0.000 A 
ATOM     19  C   UNL     1       5.804   6.598  16.865  0.00  0.00    +0.000 A 
BRANCH  17  20
ATOM     20  O   UNL     1       8.665   7.377  18.960  0.00  0.00    +0.000 OA
ATOM     21  H   UNL     1       9.110   7.808  18.212  0.00  0.00    +0.000 HD
ENDBRANCH  17  20
ENDBRANCH  13  14
ENDBRANCH   1  13
TORSDOF 6
ENDMDL
MODEL 8
REMARK VINA RESULT:      -7.1      3.429      5.239
REMARK  Name = 
REMARK  8 active torsions:
REMARK  status: ('A' for Active; 'I' for Inactive)
REMARK    1  A    between atoms: C_1  and  C_2
REMARK    2  A    between atoms: C_2  and  C_3
REMARK    3  A    between atoms: C_2  and  C_4
REMARK    4  A    between atoms: C_4  and  C_5
REMARK    5  A    between atoms: C_4  and  C_13
REMARK    6  A    between atoms: C_5  and  C_6
REMARK    7  A    between atoms: C_9  and  O_10
REMARK    8  A    between atoms: C_16  and  O_17
REMARK                            x       y       z     vdW  Elec       q    Type
REMARK                         _______ _______ _______ _____ _____    ______ ____
ROOT
ATOM      1  C   UNL     1       6.196   5.341  17.479  0.00  0.00    +0.000 C 
ENDROOT
BRANCH   1   2
ATOM      2  C   UNL     1       6.273   4.832  16.041  0.00  0.00    +0.000 A 
ATOM      3  C   UNL     1       7.381   5.146  15.228  0.00  0.00    +0.000 A 
ATOM      4  C   UNL     1       7.426   4.752  13.886  0.00  0.00    +0.000 A 
ATOM      5  C   UNL     1       6.363   4.037  13.346  0.00  0.00    +0.000 A 
ATOM      6  C   UNL     1       5.281   3.684  14.129  0.00  0.00    +0.000 A 
ATOM      7  C   UNL     1       5.249   4.067  15.469  0.00  0.00    +0.000 A 
BRANCH   5   8
ATOM      8  O   UNL     1       6.342   3.660  12.035  0.00  0.00    +0.000 OA
ATOM      9  H   UNL     1       5.429   3.712  11.716  0.00  0.00    +0.000 HD
ENDBRANCH   5   8
ENDBRANCH   1   2
BRANCH   1  11
ATOM     10  C   UNL     1       7.580   7.636  17.686  0.00  0.00    +0.000 C 
ATOM     11  C   UNL     1       7.496   6.121  17.909  0.00  0.00    +0.000 C 
ATOM     12  C   UNL     1       7.890   5.828  19.362  0.00  0.00    +0.000 C 
ENDBRANCH   1  11
BRANCH   1  13
ATOM     13  C   UNL     1       4.794   5.908  17.871  0.00  0.00    +0.000 C 
BRANCH  13  14
ATOM     14  C   UNL     1       3.752   4.908  18.296  0.00  0.00    +0.000 A 
ATOM     15  C   UNL     1       4.115   3.767  19.033  0.00  0.00    +0.000 A 
ATOM     16  C   UNL     1       3.217   2.712  19.186  0.00  0.00    +0.000 A 
ATOM     17  C   UNL     1       1.947   2.811  18.626  0.00  0.00    +0.000 A 
ATOM     18  C   UNL     1       1.535   3.979  18.003  0.00  0.00    +0.000 A 
ATOM     19  C   UNL     1       2.427   5.042  17.869  0.00  0.00    +0.000 A 
BRANCH  17  20
ATOM     20  O   UNL     1       1.081   1.760  18.641  0.00  0.00    +0.000 OA
ATOM     21  H   UNL     1       1.492   1.019  18.167  0.00  0.00    +0.000 HD
ENDBRANCH  17  20
ENDBRANCH  13  14
ENDBRANCH   1  13
TORSDOF 6
ENDMDL
MODEL 9
REMARK VINA RESULT:      -7.1      1.407      6.414
REMARK  Name = 
REMARK  8 active torsions:
REMARK  status: ('A' for Active; 'I' for Inactive)
REMARK    1  A    between atoms: C_1  and  C_2
REMARK    2  A    between atoms: C_2  and  C_3
REMARK    3  A    between atoms: C_2  and  C_4
REMARK    4  A    between atoms: C_4  and  C_5
REMARK    5  A    between atoms: C_4  and  C_13
REMARK    6  A    between atoms: C_5  and  C_6
REMARK    7  A    between atoms: C_9  and  O_10
REMARK    8  A    between atoms: C_16  and  O_17
REMARK                            x       y       z     vdW  Elec       q    Type
REMARK                         _______ _______ _______ _____ _____    ______ ____
ROOT
ATOM      1  C   UNL     1       2.944   6.827  18.579  0.00  0.00    +0.000 C 
ENDROOT
BRANCH   1   2
ATOM      2  C   UNL     1       2.045   7.999  18.970  0.00  0.00    +0.000 A 
ATOM      3  C   UNL     1       1.708   8.988  18.025  0.00  0.00    +0.000 A 
ATOM      4  C   UNL     1       0.951  10.107  18.390  0.00  0.00    +0.000 A 
ATOM      5  C   UNL     1       0.523  10.244  19.706  0.00  0.00    +0.000 A 
ATOM      6  C   UNL     1       0.808   9.273  20.645  0.00  0.00    +0.000 A 
ATOM      7  C   UNL     1       1.551   8.153  20.271  0.00  0.00    +0.000 A 
BRANCH   5   8
ATOM      8  O   UNL     1      -0.187  11.332  20.122  0.00  0.00    +0.000 OA
ATOM      9  H   UNL     1       0.436  11.998  20.450  0.00  0.00    +0.000 HD
ENDBRANCH   5   8
ENDBRANCH   1   2
BRANCH   1  11
ATOM     10  C   UNL     1       1.770   4.551  17.766  0.00  0.00    +0.000 C 
ATOM     11  C   UNL     1       2.289   5.433  18.908  0.00  0.00    +0.000 C 
ATOM     12  C   UNL     1       3.184   4.573  19.809  0.00  0.00    +0.000 C 
ENDBRANCH   1  11
BRANCH   1  13
ATOM     13  C   UNL     1       3.683   7.027  17.217  0.00  0.00    +0.000 C 
BRANCH  13  14
ATOM     14  C   UNL     1       4.997   6.314  17.046  0.00  0.00    +0.000 A 
ATOM     15  C   UNL     1       5.050   5.047  16.438  0.00  0.00    +0.000 A 
ATOM     16  C   UNL     1       6.203   4.271  16.526  0.00  0.00    +0.000 A 
ATOM     17  C   UNL     1       7.313   4.772  17.198  0.00  0.00    +0.000 A 
ATOM     18  C   UNL     1       7.317   6.066  17.696  0.00  0.00    +0.000 A 
ATOM     19  C   UNL     1       6.170   6.851  17.588  0.00  0.00    +0.000 A 
BRANCH  17  20
ATOM     20  O   UNL     1       8.416   4.004  17.419  0.00  0.00    +0.000 OA
ATOM     21  H   UNL     1       8.163   3.265  17.997  0.00  0.00    +0.000 HD
ENDBRANCH  17  20
ENDBRANCH  13  14
ENDBRANCH   1  13
TORSDOF 6
ENDMDL
