MODEL 1
REMARK VINA RESULT:      -5.7      0.000      0.000
REMARK  Name = 
REMARK  11 active torsions:
REMARK  status: ('A' for Active; 'I' for Inactive)
REMARK    1  A    between atoms: C_1  and  C_2
REMARK    2  A    between atoms: C_2  and  C_3
REMARK    3  A    between atoms: C_3  and  C_4
REMARK    4  A    between atoms: C_3  and  C_5
REMARK    5  A    between atoms: C_5  and  C_6
REMARK    6  A    between atoms: C_6  and  C_7
REMARK    7  A    between atoms: C_7  and  N_8
REMARK    8  A    between atoms: N_8  and  N_9
REMARK    9  A    between atoms: C_10  and  C_11
REMARK   10  A    between atoms: C_10  and  C_12
REMARK   11  A    between atoms: C_12  and  O_14
REMARK                            x       y       z     vdW  Elec       q    Type
REMARK                         _______ _______ _______ _____ _____    ______ ____
ROOT
ATOM      1  N   UNL     1       4.942   3.497  17.529  0.00  0.00    +0.000 N 
ATOM      2  H   UNL     1       5.516   3.313  16.699  0.00  0.00    +0.000 HD
ENDROOT
BRANCH   1   3
ATOM      3  N   UNL     1       5.582   4.330  18.379  0.00  0.00    +0.000 NA
ATOM      4  C   UNL     1       6.693   4.848  17.923  0.00  0.00    +0.000 C 
ATOM      5  C   UNL     1       7.357   4.596  16.596  0.00  0.00    +0.000 C 
BRANCH   4   6
ATOM      6  C   UNL     1       7.430   5.803  18.865  0.00  0.00    +0.000 C 
ATOM      7  O   UNL     1       7.982   6.814  18.487  0.00  0.00    +0.000 OA
BRANCH   6   8
ATOM      8  O   UNL     1       7.360   5.370  20.137  0.00  0.00    +0.000 OA
ATOM      9  H   UNL     1       7.246   6.155  20.723  0.00  0.00    +0.000 HD
ENDBRANCH   6   8
ENDBRANCH   4   6
ENDBRANCH   1   3
BRANCH   1  10
ATOM     10  C   UNL     1       3.606   3.906  17.080  0.00  0.00    +0.000 C 
BRANCH  10  11
ATOM     11  C   UNL     1       2.877   4.579  18.246  0.00  0.00    +0.000 C 
BRANCH  11  12
ATOM     12  C   UNL     1       1.549   3.889  18.582  0.00  0.00    +0.000 C 
BRANCH  12  13
ATOM     13  C   UNL     1       1.048   4.176  20.019  0.00  0.00    +0.000 C 
ATOM     14  C   UNL     1       1.812   5.335  20.669  0.00  0.00    +0.000 C 
BRANCH  13  16
ATOM     15  C   UNL     1       2.466   2.758  21.633  0.00  0.00    +0.000 C 
ATOM     16  C   UNL     1       1.156   2.887  20.865  0.00  0.00    +0.000 C 
ENDBRANCH  13  16
ENDBRANCH  12  13
ENDBRANCH  11  12
ENDBRANCH  10  11
ENDBRANCH   1  10
TORSDOF 8
ENDMDL
MODEL 2
REMARK VINA RESULT:      -5.5      2.293      3.087
REMARK  Name = 
REMARK  11 active torsions:
REMARK  status: ('A' for Active; 'I' for Inactive)
REMARK    1  A    between atoms: C_1  and  C_2
REMARK    2  A    between atoms: C_2  and  C_3
REMARK    3  A    between atoms: C_3  and  C_4
REMARK    4  A    between atoms: C_3  and  C_5
REMARK    5  A    between atoms: C_5  and  C_6
REMARK    6  A    between atoms: C_6  and  C_7
REMARK    7  A    between atoms: C_7  and  N_8
REMARK    8  A    between atoms: N_8  and  N_9
REMARK    9  A    between atoms: C_10  and  C_11
REMARK   10  A    between atoms: C_10  and  C_12
REMARK   11  A    between atoms: C_12  and  O_14
REMARK                            x       y       z     vdW  Elec       q    Type
REMARK                         _______ _______ _______ _____ _____    ______ ____
ROOT
ATOM      1  N   UNL     1       6.419   4.036  18.268  0.00  0.00    +0.000 N 
ATOM      2  H   UNL     1       5.561   3.493  18.127  0.00  0.00    +0.000 HD
ENDROOT
BRANCH   1   3
ATOM      3  N   UNL     1       6.978   4.365  17.081  0.00  0.00    +0.000 NA
ATOM      4  C   UNL     1       6.197   4.232  16.041  0.00  0.00    +0.000 C 
ATOM      5  C   UNL     1       4.782   3.722  16.003  0.00  0.00    +0.000 C 
BRANCH   4   6
ATOM      6  C   UNL     1       6.806   4.608  14.687  0.00  0.00    +0.000 C 
ATOM      7  O   UNL     1       6.412   4.155  13.634  0.00  0.00    +0.000 OA
BRANCH   6   8
ATOM      8  O   UNL     1       7.802   5.500  14.841  0.00  0.00    +0.000 OA
ATOM      9  H   UNL     1       7.403   6.401  14.876  0.00  0.00    +0.000 HD
ENDBRANCH   6   8
ENDBRANCH   4   6
ENDBRANCH   1   3
BRANCH   1  10
ATOM     10  C   UNL     1       6.117   5.141  19.187  0.00  0.00    +0.000 C 
BRANCH  10  11
ATOM     11  C   UNL     1       4.598   5.281  19.308  0.00  0.00    +0.000 C 
BRANCH  11  12
ATOM     12  C   UNL     1       3.915   3.955  19.668  0.00  0.00    +0.000 C 
BRANCH  12  13
ATOM     13  C   UNL     1       2.459   3.848  19.152  0.00  0.00    +0.000 C 
ATOM     14  C   UNL     1       2.105   4.996  18.200  0.00  0.00    +0.000 C 
BRANCH  13  16
ATOM     15  C   UNL     1       2.065   3.101  21.584  0.00  0.00    +0.000 C 
ATOM     16  C   UNL     1       1.492   3.799  20.356  0.00  0.00    +0.000 C 
ENDBRANCH  13  16
ENDBRANCH  12  13
ENDBRANCH  11  12
ENDBRANCH  10  11
ENDBRANCH   1  10
TORSDOF 8
ENDMDL
MODEL 3
REMARK VINA RESULT:      -5.5      2.371      2.602
REMARK  Name = 
REMARK  11 active torsions:
REMARK  status: ('A' for Active; 'I' for Inactive)
REMARK    1  A    between atoms: C_1  and  C_2
REMARK    2  A    between atoms: C_2  and  C_3
REMARK    3  A    between atoms: C_3  and  C_4
REMARK    4  A    between atoms: C_3  and  C_5
REMARK    5  A    between atoms: C_5  and  C_6
REMARK    6  A    between atoms: C_6  and  C_7
REMARK    7  A    between atoms: C_7  and  N_8
REMARK    8  A    between atoms: N_8  and  N_9
REMARK    9  A    between atoms: C_10  and  C_11
REMARK   10  A    between atoms: C_10  and  C_12
REMARK   11  A    between atoms: C_12  and  O_14
REMARK                            x       y       z     vdW  Elec       q    Type
REMARK                         _______ _______ _______ _____ _____    ______ ____
ROOT
ATOM      1  N   UNL     1       3.971   3.400  17.993  0.00  0.00    +0.000 N 
ATOM      2  H   UNL     1       4.627   3.323  18.777  0.00  0.00    +0.000 HD
ENDROOT
BRANCH   1   3
ATOM      3  N   UNL     1       4.597   3.860  16.887  0.00  0.00    +0.000 NA
ATOM      4  C   UNL     1       4.713   5.161  16.813  0.00  0.00    +0.000 C 
ATOM      5  C   UNL     1       4.200   6.194  17.778  0.00  0.00    +0.000 C 
BRANCH   4   6
ATOM      6  C   UNL     1       5.429   5.705  15.573  0.00  0.00    +0.000 C 
ATOM      7  O   UNL     1       5.267   6.831  15.155  0.00  0.00    +0.000 OA
BRANCH   6   8
ATOM      8  O   UNL     1       6.248   4.776  15.047  0.00  0.00    +0.000 OA
ATOM      9  H   UNL     1       6.881   5.232  14.445  0.00  0.00    +0.000 HD
ENDBRANCH   6   8
ENDBRANCH   4   6
ENDBRANCH   1   3
BRANCH   1  10
ATOM     10  C   UNL     1       3.256   2.123  17.867  0.00  0.00    +0.000 C 
BRANCH  10  11
ATOM     11  C   UNL     1       1.788   2.340  18.241  0.00  0.00    +0.000 C 
BRANCH  11  12
ATOM     12  C   UNL     1       1.467   3.813  18.521  0.00  0.00    +0.000 C 
BRANCH  12  13
ATOM     13  C   UNL     1       1.056   4.089  19.989  0.00  0.00    +0.000 C 
ATOM     14  C   UNL     1       1.871   5.233  20.603  0.00  0.00    +0.000 C 
BRANCH  13  16
ATOM     15  C   UNL     1       2.390   2.788  21.764  0.00  0.00    +0.000 C 
ATOM     16  C   UNL     1       1.199   2.791  20.813  0.00  0.00    +0.000 C 
ENDBRANCH  13  16
ENDBRANCH  12  13
ENDBRANCH  11  12
ENDBRANCH  10  11
ENDBRANCH   1  10
TORSDOF 8
ENDMDL
MODEL 4
REMARK VINA RESULT:      -5.5      1.099      1.888
REMARK  Name = 
REMARK  11 active torsions:
REMARK  status: ('A' for Active; 'I' for Inactive)
REMARK    1  A    between atoms: C_1  and  C_2
REMARK    2  A    between atoms: C_2  and  C_3
REMARK    3  A    between atoms: C_3  and  C_4
REMARK    4  A    between atoms: C_3  and  C_5
REMARK    5  A    between atoms: C_5  and  C_6
REMARK    6  A    between atoms: C_6  and  C_7
REMARK    7  A    between atoms: C_7  and  N_8
REMARK    8  A    between atoms: N_8  and  N_9
REMARK    9  A    between atoms: C_10  and  C_11
REMARK   10  A    between atoms: C_10  and  C_12
REMARK   11  A    between atoms: C_12  and  O_14
REMARK                            x       y       z     vdW  Elec       q    Type
REMARK                         _______ _______ _______ _____ _____    ______ ____
ROOT
ATOM      1  N   UNL     1       5.487   3.876  17.297  0.00  0.00    +0.000 N 
ATOM      2  H   UNL     1       5.780   4.344  16.434  0.00  0.00    +0.000 HD
ENDROOT
BRANCH   1   3
ATOM      3  N   UNL     1       6.280   4.235  18.331  0.00  0.00    +0.000 NA
ATOM      4  C   UNL     1       6.848   5.408  18.217  0.00  0.00    +0.000 C 
ATOM      5  C   UNL     1       6.757   6.375  17.067  0.00  0.00    +0.000 C 
BRANCH   4   6
ATOM      6  C   UNL     1       7.743   5.841  19.381  0.00  0.00    +0.000 C 
ATOM      7  O   UNL     1       7.787   5.250  20.440  0.00  0.00    +0.000 OA
BRANCH   6   8
ATOM      8  O   UNL     1       8.461   6.931  19.054  0.00  0.00    +0.000 OA
ATOM      9  H   UNL     1       8.860   6.780  18.166  0.00  0.00    +0.000 HD
ENDBRANCH   6   8
ENDBRANCH   4   6
ENDBRANCH   1   3
BRANCH   1  10
ATOM     10  C   UNL     1       4.043   4.089  17.465  0.00  0.00    +0.000 C 
BRANCH  10  11
ATOM     11  C   UNL     1       3.434   2.848  18.121  0.00  0.00    +0.000 C 
BRANCH  11  12
ATOM     12  C   UNL     1       3.082   3.079  19.596  0.00  0.00    +0.000 C 
BRANCH  12  13
ATOM     13  C   UNL     1       1.595   2.805  19.929  0.00  0.00    +0.000 C 
ATOM     14  C   UNL     1       0.836   2.238  18.724  0.00  0.00    +0.000 C 
BRANCH  13  16
ATOM     15  C   UNL     1       1.924   5.240  20.698  0.00  0.00    +0.000 C 
ATOM     16  C   UNL     1       0.938   4.105  20.446  0.00  0.00    +0.000 C 
ENDBRANCH  13  16
ENDBRANCH  12  13
ENDBRANCH  11  12
ENDBRANCH  10  11
ENDBRANCH   1  10
TORSDOF 8
ENDMDL
MODEL 5
REMARK VINA RESULT:      -5.5      1.632      2.317
REMARK  Name = 
REMARK  11 active torsions:
REMARK  status: ('A' for Active; 'I' for Inactive)
REMARK    1  A    between atoms: C_1  and  C_2
REMARK    2  A    between atoms: C_2  and  C_3
REMARK    3  A    between atoms: C_3  and  C_4
REMARK    4  A    between atoms: C_3  and  C_5
REMARK    5  A    between atoms: C_5  and  C_6
REMARK    6  A    between atoms: C_6  and  C_7
REMARK    7  A    between atoms: C_7  and  N_8
REMARK    8  A    between atoms: N_8  and  N_9
REMARK    9  A    between atoms: C_10  and  C_11
REMARK   10  A    between atoms: C_10  and  C_12
REMARK   11  A    between atoms: C_12  and  O_14
REMARK                            x       y       z     vdW  Elec       q    Type
REMARK                         _______ _______ _______ _____ _____    ______ ____
ROOT
ATOM      1  N   UNL     1       4.727   4.712  19.375  0.00  0.00    +0.000 N 
ATOM      2  H   UNL     1       5.376   5.003  20.114  0.00  0.00    +0.000 HD
ENDROOT
BRANCH   1   3
ATOM      3  N   UNL     1       5.044   5.299  18.199  0.00  0.00    +0.000 NA
ATOM      4  C   UNL     1       6.268   5.749  18.114  0.00  0.00    +0.000 C 
ATOM      5  C   UNL     1       7.339   5.731  19.170  0.00  0.00    +0.000 C 
BRANCH   4   6
ATOM      6  C   UNL     1       6.653   6.409  16.786  0.00  0.00    +0.000 C 
ATOM      7  O   UNL     1       6.134   6.123  15.728  0.00  0.00    +0.000 OA
BRANCH   6   8
ATOM      8  O   UNL     1       7.614   7.332  16.971  0.00  0.00    +0.000 OA
ATOM      9  H   UNL     1       7.779   7.413  17.939  0.00  0.00    +0.000 HD
ENDBRANCH   6   8
ENDBRANCH   4   6
ENDBRANCH   1   3
BRANCH   1  10
ATOM     10  C   UNL     1       4.650   3.246  19.385  0.00  0.00    +0.000 C 
BRANCH  10  11
ATOM     11  C   UNL     1       3.721   2.792  18.256  0.00  0.00    +0.000 C 
BRANCH  11  12
ATOM     12  C   UNL     1       2.399   2.219  18.781  0.00  0.00    +0.000 C 
BRANCH  12  13
ATOM     13  C   UNL     1       1.219   3.219  18.712  0.00  0.00    +0.000 C 
ATOM     14  C   UNL     1       1.496   4.361  17.728  0.00  0.00    +0.000 C 
BRANCH  13  16
ATOM     15  C   UNL     1       1.389   2.840  21.252  0.00  0.00    +0.000 C 
ATOM     16  C   UNL     1       0.921   3.758  20.129  0.00  0.00    +0.000 C 
ENDBRANCH  13  16
ENDBRANCH  12  13
ENDBRANCH  11  12
ENDBRANCH  10  11
ENDBRANCH   1  10
TORSDOF 8
ENDMDL
MODEL 6
REMARK VINA RESULT:      -5.4      1.609      2.344
REMARK  Name = 
REMARK  11 active torsions:
REMARK  status: ('A' for Active; 'I' for Inactive)
REMARK    1  A    between atoms: C_1  and  C_2
REMARK    2  A    between atoms: C_2  and  C_3
REMARK    3  A    between atoms: C_3  and  C_4
REMARK    4  A    between atoms: C_3  and  C_5
REMARK    5  A    between atoms: C_5  and  C_6
REMARK    6  A    between atoms: C_6  and  C_7
REMARK    7  A    between atoms: C_7  and  N_8
REMARK    8  A    between atoms: N_8  and  N_9
REMARK    9  A    between atoms: C_10  and  C_11
REMARK   10  A    between atoms: C_10  and  C_12
REMARK   11  A    between atoms: C_12  and  O_14
REMARK                            x       y       z     vdW  Elec       q    Type
REMARK                         _______ _______ _______ _____ _____    ______ ____
ROOT
ATOM      1  N   UNL     1       4.314   5.003  19.428  0.00  0.00    +0.000 N 
ATOM      2  H   UNL     1       4.075   4.086  19.036  0.00  0.00    +0.000 HD
ENDROOT
BRANCH   1   3
ATOM      3  N   UNL     1       5.452   5.479  18.874  0.00  0.00    +0.000 NA
ATOM      4  C   UNL     1       5.731   5.014  17.684  0.00  0.00    +0.000 C 
ATOM      5  C   UNL     1       4.966   3.992  16.886  0.00  0.00    +0.000 C 
BRANCH   4   6
ATOM      6  C   UNL     1       7.010   5.546  17.034  0.00  0.00    +0.000 C 
ATOM      7  O   UNL     1       7.204   6.724  16.819  0.00  0.00    +0.000 OA
BRANCH   6   8
ATOM      8  O   UNL     1       7.862   4.542  16.759  0.00  0.00    +0.000 OA
ATOM      9  H   UNL     1       7.414   3.921  16.138  0.00  0.00    +0.000 HD
ENDBRANCH   6   8
ENDBRANCH   4   6
ENDBRANCH   1   3
BRANCH   1  10
ATOM     10  C   UNL     1       3.126   5.862  19.341  0.00  0.00    +0.000 C 
BRANCH  10  11
ATOM     11  C   UNL     1       2.160   5.485  20.467  0.00  0.00    +0.000 C 
BRANCH  11  12
ATOM     12  C   UNL     1       1.096   4.478  20.012  0.00  0.00    +0.000 C 
BRANCH  12  13
ATOM     13  C   UNL     1       1.301   3.056  20.589  0.00  0.00    +0.000 C 
ATOM     14  C   UNL     1       2.228   3.063  21.810  0.00  0.00    +0.000 C 
BRANCH  13  16
ATOM     15  C   UNL     1       1.709   2.699  18.072  0.00  0.00    +0.000 C 
ATOM     16  C   UNL     1       1.843   2.127  19.478  0.00  0.00    +0.000 C 
ENDBRANCH  13  16
ENDBRANCH  12  13
ENDBRANCH  11  12
ENDBRANCH  10  11
ENDBRANCH   1  10
TORSDOF 8
ENDMDL
MODEL 7
REMARK VINA RESULT:      -5.4      1.603      2.212
REMARK  Name = 
REMARK  11 active torsions:
REMARK  status: ('A' for Active; 'I' for Inactive)
REMARK    1  A    between atoms: C_1  and  C_2
REMARK    2  A    between atoms: C_2  and  C_3
REMARK    3  A    between atoms: C_3  and  C_4
REMARK    4  A    between atoms: C_3  and  C_5
REMARK    5  A    between atoms: C_5  and  C_6
REMARK    6  A    between atoms: C_6  and  C_7
REMARK    7  A    between atoms: C_7  and  N_8
REMARK    8  A    between atoms: N_8  and  N_9
REMARK    9  A    between atoms: C_10  and  C_11
REMARK   10  A    between atoms: C_10  and  C_12
REMARK   11  A    between atoms: C_12  and  O_14
REMARK                            x       y       z     vdW  Elec       q    Type
REMARK                         _______ _______ _______ _____ _____    ______ ____
ROOT
ATOM      1  N   UNL     1       3.946   5.727  18.347  0.00  0.00    +0.000 N 
ATOM      2  H   UNL     1       3.709   6.569  17.812  0.00  0.00    +0.000 HD
ENDROOT
BRANCH   1   3
ATOM      3  N   UNL     1       5.286   5.601  18.473  0.00  0.00    +0.000 NA
ATOM      4  C   UNL     1       5.852   4.788  17.621  0.00  0.00    +0.000 C 
ATOM      5  C   UNL     1       5.192   3.953  16.557  0.00  0.00    +0.000 C 
BRANCH   4   6
ATOM      6  C   UNL     1       7.371   4.637  17.738  0.00  0.00    +0.000 C 
ATOM      7  O   UNL     1       8.069   4.230  16.834  0.00  0.00    +0.000 OA
BRANCH   6   8
ATOM      8  O   UNL     1       7.799   5.026  18.953  0.00  0.00    +0.000 OA
ATOM      9  H   UNL     1       8.663   4.586  19.129  0.00  0.00    +0.000 HD
ENDBRANCH   6   8
ENDBRANCH   4   6
ENDBRANCH   1   3
BRANCH   1  10
ATOM     10  C   UNL     1       3.161   5.738  19.589  0.00  0.00    +0.000 C 
BRANCH  10  11
ATOM     11  C   UNL     1       1.763   5.190  19.294  0.00  0.00    +0.000 C 
BRANCH  11  12
ATOM     12  C   UNL     1       1.153   4.464  20.499  0.00  0.00    +0.000 C 
BRANCH  12  13
ATOM     13  C   UNL     1       1.417   2.938  20.503  0.00  0.00    +0.000 C 
ATOM     14  C   UNL     1       2.634   2.572  21.359  0.00  0.00    +0.000 C 
BRANCH  13  16
ATOM     15  C   UNL     1       2.933   1.794  18.766  0.00  0.00    +0.000 C 
ATOM     16  C   UNL     1       1.585   2.445  19.048  0.00  0.00    +0.000 C 
ENDBRANCH  13  16
ENDBRANCH  12  13
ENDBRANCH  11  12
ENDBRANCH  10  11
ENDBRANCH   1  10
TORSDOF 8
ENDMDL
MODEL 8
REMARK VINA RESULT:      -5.3      1.747      2.653
REMARK  Name = 
REMARK  11 active torsions:
REMARK  status: ('A' for Active; 'I' for Inactive)
REMARK    1  A    between atoms: C_1  and  C_2
REMARK    2  A    between atoms: C_2  and  C_3
REMARK    3  A    between atoms: C_3  and  C_4
REMARK    4  A    between atoms: C_3  and  C_5
REMARK    5  A    between atoms: C_5  and  C_6
REMARK    6  A    between atoms: C_6  and  C_7
REMARK    7  A    between atoms: C_7  and  N_8
REMARK    8  A    between atoms: N_8  and  N_9
REMARK    9  A    between atoms: C_10  and  C_11
REMARK   10  A    between atoms: C_10  and  C_12
REMARK   11  A    between atoms: C_12  and  O_14
REMARK                            x       y       z     vdW  Elec       q    Type
REMARK                         _______ _______ _______ _____ _____    ______ ____
ROOT
ATOM      1  N   UNL     1       5.558   3.784  18.561  0.00  0.00    +0.000 N 
ATOM      2  H   UNL     1       4.820   3.454  17.931  0.00  0.00    +0.000 HD
ENDROOT
BRANCH   1   3
ATOM      3  N   UNL     1       6.470   4.521  17.887  0.00  0.00    +0.000 NA
ATOM      4  C   UNL     1       6.227   4.677  16.612  0.00  0.00    +0.000 C 
ATOM      5  C   UNL     1       5.091   4.105  15.807  0.00  0.00    +0.000 C 
BRANCH   4   6
ATOM      6  C   UNL     1       7.241   5.517  15.830  0.00  0.00    +0.000 C 
ATOM      7  O   UNL     1       7.633   5.221  14.721  0.00  0.00    +0.000 OA
BRANCH   6   8
ATOM      8  O   UNL     1       7.606   6.605  16.532  0.00  0.00    +0.000 OA
ATOM      9  H   UNL     1       6.942   7.314  16.366  0.00  0.00    +0.000 HD
ENDBRANCH   6   8
ENDBRANCH   4   6
ENDBRANCH   1   3
BRANCH   1  10
ATOM     10  C   UNL     1       4.920   4.420  19.721  0.00  0.00    +0.000 C 
BRANCH  10  11
ATOM     11  C   UNL     1       3.715   5.231  19.239  0.00  0.00    +0.000 C 
BRANCH  11  12
ATOM     12  C   UNL     1       2.483   5.034  20.130  0.00  0.00    +0.000 C 
BRANCH  12  13
ATOM     13  C   UNL     1       1.449   4.039  19.547  0.00  0.00    +0.000 C 
ATOM     14  C   UNL     1       1.390   2.738  20.355  0.00  0.00    +0.000 C 
BRANCH  13  16
ATOM     15  C   UNL     1       2.177   2.321  17.774  0.00  0.00    +0.000 C 
ATOM     16  C   UNL     1       1.784   3.765  18.064  0.00  0.00    +0.000 C 
ENDBRANCH  13  16
ENDBRANCH  12  13
ENDBRANCH  11  12
ENDBRANCH  10  11
ENDBRANCH   1  10
TORSDOF 8
ENDMDL
MODEL 9
REMARK VINA RESULT:      -5.3      1.821      1.941
REMARK  Name = 
REMARK  11 active torsions:
REMARK  status: ('A' for Active; 'I' for Inactive)
REMARK    1  A    between atoms: C_1  and  C_2
REMARK    2  A    between atoms: C_2  and  C_3
REMARK    3  A    between atoms: C_3  and  C_4
REMARK    4  A    between atoms: C_3  and  C_5
REMARK    5  A    between atoms: C_5  and  C_6
REMARK    6  A    between atoms: C_6  and  C_7
REMARK    7  A    between atoms: C_7  and  N_8
REMARK    8  A    between atoms: N_8  and  N_9
REMARK    9  A    between atoms: C_10  and  C_11
REMARK   10  A    between atoms: C_10  and  C_12
REMARK   11  A    between atoms: C_12  and  O_14
REMARK                            x       y       z     vdW  Elec       q    Type
REMARK                         _______ _______ _______ _____ _____    ______ ____
ROOT
ATOM      1  N   UNL     1       4.416   2.836  17.445  0.00  0.00    +0.000 N 
ATOM      2  H   UNL     1       4.542   2.490  16.489  0.00  0.00    +0.000 HD
ENDROOT
BRANCH   1   3
ATOM      3  N   UNL     1       4.721   4.150  17.525  0.00  0.00    +0.000 NA
ATOM      4  C   UNL     1       5.446   4.615  16.541  0.00  0.00    +0.000 C 
ATOM      5  C   UNL     1       6.010   3.860  15.367  0.00  0.00    +0.000 C 
BRANCH   4   6
ATOM      6  C   UNL     1       5.794   6.105  16.604  0.00  0.00    +0.000 C 
ATOM      7  O   UNL     1       6.899   6.539  16.355  0.00  0.00    +0.000 OA
BRANCH   6   8
ATOM      8  O   UNL     1       4.719   6.834  16.953  0.00  0.00    +0.000 OA
ATOM      9  H   UNL     1       4.532   7.472  16.224  0.00  0.00    +0.000 HD
ENDBRANCH   6   8
ENDBRANCH   4   6
ENDBRANCH   1   3
BRANCH   1  10
ATOM     10  C   UNL     1       3.080   2.436  17.904  0.00  0.00    +0.000 C 
BRANCH  10  11
ATOM     11  C   UNL     1       2.169   3.666  17.904  0.00  0.00    +0.000 C 
BRANCH  11  12
ATOM     12  C   UNL     1       1.163   3.650  19.061  0.00  0.00    +0.000 C 
BRANCH  12  13
ATOM     13  C   UNL     1       1.496   4.661  20.186  0.00  0.00    +0.000 C 
ATOM     14  C   UNL     1       2.367   5.815  19.676  0.00  0.00    +0.000 C 
BRANCH  13  16
ATOM     15  C   UNL     1       1.574   2.551  21.657  0.00  0.00    +0.000 C 
ATOM     16  C   UNL     1       2.176   3.918  21.357  0.00  0.00    +0.000 C 
ENDBRANCH  13  16
ENDBRANCH  12  13
ENDBRANCH  11  12
ENDBRANCH  10  11
ENDBRANCH   1  10
TORSDOF 8
ENDMDL
