MODEL 1
REMARK VINA RESULT:      -8.7      0.000      0.000
REMARK  Name = 
REMARK  12 active torsions:
REMARK  status: ('A' for Active; 'I' for Inactive)
REMARK    1  A    between atoms: C_1  and  O_2
REMARK    2  A    between atoms: O_2  and  C_3
REMARK    3  A    between atoms: C_3  and  C_5
REMARK    4  A    between atoms: N_8  and  C_9
REMARK    5  A    between atoms: C_9  and  C_10
REMARK    6  A    between atoms: C_17  and  O_18
REMARK    7  A    between atoms: O_18  and  C_19
REMARK    8  A    between atoms: C_19  and  C_20
REMARK    9  A    between atoms: C_23  and  C_24
REMARK   10  A    between atoms: C_24  and  C_25
REMARK   11  A    between atoms: C_24  and  C_26
REMARK   12  A    between atoms: C_24  and  C_27
REMARK                            x       y       z     vdW  Elec       q    Type
REMARK                         _______ _______ _______ _____ _____    ______ ____
ROOT
ATOM      1  C   UNL     1       3.121   3.057  17.699  0.00  0.00    +0.000 A 
ATOM      2  N   UNL     1       3.141   1.708  17.599  0.00  0.00    +0.000 NA
ATOM      3  N   UNL     1       2.643   1.300  18.761  0.00  0.00    +0.000 N 
ATOM      4  C   UNL     1       2.255   2.315  19.590  0.00  0.00    +0.000 A 
ATOM      5  C   UNL     1       1.761   2.254  20.887  0.00  0.00    +0.000 A 
ATOM      6  C   UNL     1       1.464   3.474  21.489  0.00  0.00    +0.000 A 
ATOM      7  C   UNL     1       1.591   4.684  20.789  0.00  0.00    +0.000 A 
ATOM      8  C   UNL     1       2.059   4.750  19.457  0.00  0.00    +0.000 A 
ATOM      9  C   UNL     1       2.465   3.505  18.884  0.00  0.00    +0.000 A 
ATOM     10  H   UNL     1       2.604   0.303  18.942  0.00  0.00    +0.000 HD
ENDROOT
BRANCH   1  11
ATOM     11  C   UNL     1       3.767   3.859  16.611  0.00  0.00    +0.000 C 
BRANCH  11  15
ATOM     12  C   UNL     1       7.442   5.830  17.217  0.00  0.00    +0.000 C 
ATOM     13  C   UNL     1       7.310   5.133  15.868  0.00  0.00    +0.000 C 
ATOM     14  C   UNL     1       5.846   4.731  15.630  0.00  0.00    +0.000 C 
ATOM     15  N   UNL     1       5.261   3.892  16.694  0.00  0.00    +0.000 NA
ATOM     16  C   UNL     1       5.600   4.319  18.062  0.00  0.00    +0.000 C 
ATOM     17  C   UNL     1       7.037   4.802  18.266  0.00  0.00    +0.000 C 
BRANCH  12  18
ATOM     18  C   UNL     1       6.625   7.132  17.238  0.00  0.00    +0.000 C 
ATOM     19  O   UNL     1       5.427   7.206  17.471  0.00  0.00    +0.000 OA
BRANCH  18  21
ATOM     20  C   UNL     1       8.209   8.761  18.055  0.00  0.00    +0.000 C 
ATOM     21  O   UNL     1       7.450   8.180  16.985  0.00  0.00    +0.000 OA
ENDBRANCH  18  21
ENDBRANCH  12  18
ENDBRANCH  11  15
ENDBRANCH   1  11
BRANCH   8  22
ATOM     22  O   UNL     1       2.169   5.939  18.742  0.00  0.00    +0.000 OA
BRANCH  22  23
ATOM     23  C   UNL     1       2.583   7.115  19.490  0.00  0.00    +0.000 C 
BRANCH  23  24
ATOM     24  C   UNL     1       1.703   8.373  19.360  0.00  0.00    +0.000 A 
ATOM     25  C   UNL     1       1.014   8.958  20.423  0.00  0.00    +0.000 A 
ATOM     26  C   UNL     1       0.142  10.060  20.224  0.00  0.00    +0.000 A 
ATOM     27  C   UNL     1      -0.091  10.632  18.956  0.00  0.00    +0.000 A 
ATOM     28  C   UNL     1       0.641  10.068  17.898  0.00  0.00    +0.000 A 
ATOM     29  C   UNL     1       1.517   8.969  18.096  0.00  0.00    +0.000 A 
BRANCH  27  30
ATOM     30  C   UNL     1      -1.112  11.780  18.713  0.00  0.00    +0.000 C 
ATOM     31  C   UNL     1      -2.025  12.073  19.929  0.00  0.00    +0.000 C 
ATOM     32  C   UNL     1      -0.414  13.117  18.363  0.00  0.00    +0.000 C 
ATOM     33  C   UNL     1      -2.057  11.433  17.536  0.00  0.00    +0.000 C 
ENDBRANCH  27  30
ENDBRANCH  23  24
ENDBRANCH  22  23
ENDBRANCH   8  22
TORSDOF 8
ENDMDL
MODEL 2
REMARK VINA RESULT:      -8.4      0.639      1.372
REMARK  Name = 
REMARK  12 active torsions:
REMARK  status: ('A' for Active; 'I' for Inactive)
REMARK    1  A    between atoms: C_1  and  O_2
REMARK    2  A    between atoms: O_2  and  C_3
REMARK    3  A    between atoms: C_3  and  C_5
REMARK    4  A    between atoms: N_8  and  C_9
REMARK    5  A    between atoms: C_9  and  C_10
REMARK    6  A    between atoms: C_17  and  O_18
REMARK    7  A    between atoms: O_18  and  C_19
REMARK    8  A    between atoms: C_19  and  C_20
REMARK    9  A    between atoms: C_23  and  C_24
REMARK   10  A    between atoms: C_24  and  C_25
REMARK   11  A    between atoms: C_24  and  C_26
REMARK   12  A    between atoms: C_24  and  C_27
REMARK                            x       y       z     vdW  Elec       q    Type
REMARK                         _______ _______ _______ _____ _____    ______ ____
ROOT
ATOM      1  C   UNL     1       3.334   2.989  17.750  0.00  0.00    +0.000 A 
ATOM      2  N   UNL     1       3.448   1.641  17.731  0.00  0.00    +0.000 NA
ATOM      3  N   UNL     1       2.852   1.259  18.855  0.00  0.00    +0.000 N 
ATOM      4  C   UNL     1       2.313   2.287  19.578  0.00  0.00    +0.000 A 
ATOM      5  C   UNL     1       1.685   2.258  20.816  0.00  0.00    +0.000 A 
ATOM      6  C   UNL     1       1.248   3.485  21.311  0.00  0.00    +0.000 A 
ATOM      7  C   UNL     1       1.377   4.664  20.561  0.00  0.00    +0.000 A 
ATOM      8  C   UNL     1       1.983   4.693  19.285  0.00  0.00    +0.000 A 
ATOM      9  C   UNL     1       2.526   3.451  18.830  0.00  0.00    +0.000 A 
ATOM     10  H   UNL     1       2.854   0.273  19.088  0.00  0.00    +0.000 HD
ENDROOT
BRANCH   1  11
ATOM     11  C   UNL     1       4.045   3.776  16.692  0.00  0.00    +0.000 C 
BRANCH  11  15
ATOM     12  C   UNL     1       7.484   6.076  17.496  0.00  0.00    +0.000 C 
ATOM     13  C   UNL     1       7.563   5.236  16.227  0.00  0.00    +0.000 C 
ATOM     14  C   UNL     1       6.169   4.701  15.867  0.00  0.00    +0.000 C 
ATOM     15  N   UNL     1       5.513   3.933  16.943  0.00  0.00    +0.000 NA
ATOM     16  C   UNL     1       5.652   4.521  18.285  0.00  0.00    +0.000 C 
ATOM     17  C   UNL     1       7.019   5.131  18.599  0.00  0.00    +0.000 C 
BRANCH  12  18
ATOM     18  C   UNL     1       6.588   7.307  17.280  0.00  0.00    +0.000 C 
ATOM     19  O   UNL     1       5.366   7.298  17.300  0.00  0.00    +0.000 OA
BRANCH  18  21
ATOM     20  C   UNL     1       8.325   8.771  18.096  0.00  0.00    +0.000 C 
ATOM     21  O   UNL     1       7.371   8.399  17.091  0.00  0.00    +0.000 OA
ENDBRANCH  18  21
ENDBRANCH  12  18
ENDBRANCH  11  15
ENDBRANCH   1  11
BRANCH   8  22
ATOM     22  O   UNL     1       2.098   5.849  18.517  0.00  0.00    +0.000 OA
BRANCH  22  23
ATOM     23  C   UNL     1       2.712   7.000  19.159  0.00  0.00    +0.000 C 
BRANCH  23  24
ATOM     24  C   UNL     1       1.863   8.282  19.258  0.00  0.00    +0.000 A 
ATOM     25  C   UNL     1       1.662   9.170  18.201  0.00  0.00    +0.000 A 
ATOM     26  C   UNL     1       0.949  10.384  18.379  0.00  0.00    +0.000 A 
ATOM     27  C   UNL     1       0.403  10.777  19.618  0.00  0.00    +0.000 A 
ATOM     28  C   UNL     1       0.570   9.857  20.667  0.00  0.00    +0.000 A 
ATOM     29  C   UNL     1       1.279   8.640  20.491  0.00  0.00    +0.000 A 
BRANCH  27  30
ATOM     30  C   UNL     1      -0.301  12.145  19.845  0.00  0.00    +0.000 C 
ATOM     31  C   UNL     1      -0.518  12.960  18.547  0.00  0.00    +0.000 C 
ATOM     32  C   UNL     1      -1.699  11.981  20.492  0.00  0.00    +0.000 C 
ATOM     33  C   UNL     1       0.539  13.044  20.786  0.00  0.00    +0.000 C 
ENDBRANCH  27  30
ENDBRANCH  23  24
ENDBRANCH  22  23
ENDBRANCH   8  22
TORSDOF 8
ENDMDL
MODEL 3
REMARK VINA RESULT:      -8.4      1.132      1.543
REMARK  Name = 
REMARK  12 active torsions:
REMARK  status: ('A' for Active; 'I' for Inactive)
REMARK    1  A    between atoms: C_1  and  O_2
REMARK    2  A    between atoms: O_2  and  C_3
REMARK    3  A    between atoms: C_3  and  C_5
REMARK    4  A    between atoms: N_8  and  C_9
REMARK    5  A    between atoms: C_9  and  C_10
REMARK    6  A    between atoms: C_17  and  O_18
REMARK    7  A    between atoms: O_18  and  C_19
REMARK    8  A    between atoms: C_19  and  C_20
REMARK    9  A    between atoms: C_23  and  C_24
REMARK   10  A    between atoms: C_24  and  C_25
REMARK   11  A    between atoms: C_24  and  C_26
REMARK   12  A    between atoms: C_24  and  C_27
REMARK                            x       y       z     vdW  Elec       q    Type
REMARK                         _______ _______ _______ _____ _____    ______ ____
ROOT
ATOM      1  C   UNL     1       2.660   3.451  17.766  0.00  0.00    +0.000 A 
ATOM      2  N   UNL     1       2.099   2.281  17.384  0.00  0.00    +0.000 NA
ATOM      3  N   UNL     1       1.639   1.768  18.520  0.00  0.00    +0.000 N 
ATOM      4  C   UNL     1       1.831   2.568  19.612  0.00  0.00    +0.000 A 
ATOM      5  C   UNL     1       1.539   2.321  20.947  0.00  0.00    +0.000 A 
ATOM      6  C   UNL     1       1.867   3.335  21.845  0.00  0.00    +0.000 A 
ATOM      7  C   UNL     1       2.394   4.558  21.404  0.00  0.00    +0.000 A 
ATOM      8  C   UNL     1       2.659   4.829  20.043  0.00  0.00    +0.000 A 
ATOM      9  C   UNL     1       2.422   3.746  19.140  0.00  0.00    +0.000 A 
ATOM     10  H   UNL     1       1.210   0.850  18.492  0.00  0.00    +0.000 HD
ENDROOT
BRANCH   1  11
ATOM     11  C   UNL     1       3.428   4.235  16.745  0.00  0.00    +0.000 C 
BRANCH  11  15
ATOM     12  C   UNL     1       7.533   5.186  16.657  0.00  0.00    +0.000 C 
ATOM     13  C   UNL     1       7.039   4.388  15.457  0.00  0.00    +0.000 C 
ATOM     14  C   UNL     1       5.503   4.375  15.434  0.00  0.00    +0.000 C 
ATOM     15  N   UNL     1       4.878   3.869  16.671  0.00  0.00    +0.000 NA
ATOM     16  C   UNL     1       5.502   4.355  17.913  0.00  0.00    +0.000 C 
ATOM     17  C   UNL     1       7.028   4.448  17.891  0.00  0.00    +0.000 C 
BRANCH  12  18
ATOM     18  C   UNL     1       7.087   6.654  16.556  0.00  0.00    +0.000 C 
ATOM     19  O   UNL     1       5.991   7.031  16.166  0.00  0.00    +0.000 OA
BRANCH  18  21
ATOM     20  C   UNL     1       7.784   8.638  17.742  0.00  0.00    +0.000 C 
ATOM     21  O   UNL     1       8.093   7.455  16.991  0.00  0.00    +0.000 OA
ENDBRANCH  18  21
ENDBRANCH  12  18
ENDBRANCH  11  15
ENDBRANCH   1  11
BRANCH   8  22
ATOM     22  O   UNL     1       3.159   6.045  19.587  0.00  0.00    +0.000 OA
BRANCH  22  23
ATOM     23  C   UNL     1       2.251   6.876  18.812  0.00  0.00    +0.000 C 
BRANCH  23  24
ATOM     24  C   UNL     1       1.660   8.112  19.516  0.00  0.00    +0.000 A 
ATOM     25  C   UNL     1       1.388   8.178  20.882  0.00  0.00    +0.000 A 
ATOM     26  C   UNL     1       0.754   9.310  21.458  0.00  0.00    +0.000 A 
ATOM     27  C   UNL     1       0.355  10.431  20.702  0.00  0.00    +0.000 A 
ATOM     28  C   UNL     1       0.673  10.378  19.335  0.00  0.00    +0.000 A 
ATOM     29  C   UNL     1       1.312   9.249  18.757  0.00  0.00    +0.000 A 
BRANCH  27  30
ATOM     30  C   UNL     1      -0.420  11.636  21.306  0.00  0.00    +0.000 C 
ATOM     31  C   UNL     1       0.417  12.936  21.398  0.00  0.00    +0.000 C 
ATOM     32  C   UNL     1      -1.682  11.992  20.482  0.00  0.00    +0.000 C 
ATOM     33  C   UNL     1      -0.887  11.319  22.749  0.00  0.00    +0.000 C 
ENDBRANCH  27  30
ENDBRANCH  23  24
ENDBRANCH  22  23
ENDBRANCH   8  22
TORSDOF 8
ENDMDL
MODEL 4
REMARK VINA RESULT:      -8.4      1.776      2.511
REMARK  Name = 
REMARK  12 active torsions:
REMARK  status: ('A' for Active; 'I' for Inactive)
REMARK    1  A    between atoms: C_1  and  O_2
REMARK    2  A    between atoms: O_2  and  C_3
REMARK    3  A    between atoms: C_3  and  C_5
REMARK    4  A    between atoms: N_8  and  C_9
REMARK    5  A    between atoms: C_9  and  C_10
REMARK    6  A    between atoms: C_17  and  O_18
REMARK    7  A    between atoms: O_18  and  C_19
REMARK    8  A    between atoms: C_19  and  C_20
REMARK    9  A    between atoms: C_23  and  C_24
REMARK   10  A    between atoms: C_24  and  C_25
REMARK   11  A    between atoms: C_24  and  C_26
REMARK   12  A    between atoms: C_24  and  C_27
REMARK                            x       y       z     vdW  Elec       q    Type
REMARK                         _______ _______ _______ _____ _____    ______ ____
ROOT
ATOM      1  C   UNL     1       4.632   3.889  19.473  0.00  0.00    +0.000 A 
ATOM      2  N   UNL     1       5.328   2.775  19.796  0.00  0.00    +0.000 NA
ATOM      3  N   UNL     1       4.484   2.087  20.557  0.00  0.00    +0.000 N 
ATOM      4  C   UNL     1       3.258   2.674  20.703  0.00  0.00    +0.000 A 
ATOM      5  C   UNL     1       2.174   2.271  21.471  0.00  0.00    +0.000 A 
ATOM      6  C   UNL     1       1.051   3.095  21.429  0.00  0.00    +0.000 A 
ATOM      7  C   UNL     1       1.005   4.224  20.598  0.00  0.00    +0.000 A 
ATOM      8  C   UNL     1       2.092   4.620  19.787  0.00  0.00    +0.000 A 
ATOM      9  C   UNL     1       3.279   3.833  19.918  0.00  0.00    +0.000 A 
ATOM     10  H   UNL     1       4.807   1.217  20.966  0.00  0.00    +0.000 HD
ENDROOT
BRANCH   1  11
ATOM     11  C   UNL     1       5.346   4.981  18.737  0.00  0.00    +0.000 C 
BRANCH  11  15
ATOM     12  C   UNL     1       5.857   5.212  14.560  0.00  0.00    +0.000 C 
ATOM     13  C   UNL     1       5.289   6.472  15.201  0.00  0.00    +0.000 C 
ATOM     14  C   UNL     1       5.443   6.396  16.728  0.00  0.00    +0.000 C 
ATOM     15  N   UNL     1       4.841   5.198  17.344  0.00  0.00    +0.000 NA
ATOM     16  C   UNL     1       5.082   3.947  16.607  0.00  0.00    +0.000 C 
ATOM     17  C   UNL     1       5.013   4.055  15.083  0.00  0.00    +0.000 C 
BRANCH  12  18
ATOM     18  C   UNL     1       7.364   5.091  14.839  0.00  0.00    +0.000 C 
ATOM     19  O   UNL     1       7.856   4.544  15.816  0.00  0.00    +0.000 OA
BRANCH  18  21
ATOM     20  C   UNL     1       7.812   5.231  12.471  0.00  0.00    +0.000 C 
ATOM     21  O   UNL     1       8.053   5.661  13.818  0.00  0.00    +0.000 OA
ENDBRANCH  18  21
ENDBRANCH  12  18
ENDBRANCH  11  15
ENDBRANCH   1  11
BRANCH   8  22
ATOM     22  O   UNL     1       2.055   5.724  18.940  0.00  0.00    +0.000 OA
BRANCH  22  23
ATOM     23  C   UNL     1       2.676   6.944  19.430  0.00  0.00    +0.000 C 
BRANCH  23  24
ATOM     24  C   UNL     1       1.813   8.220  19.424  0.00  0.00    +0.000 A 
ATOM     25  C   UNL     1       1.713   9.091  18.339  0.00  0.00    +0.000 A 
ATOM     26  C   UNL     1       0.978  10.302  18.426  0.00  0.00    +0.000 A 
ATOM     27  C   UNL     1       0.308  10.708  19.598  0.00  0.00    +0.000 A 
ATOM     28  C   UNL     1       0.374   9.805  20.672  0.00  0.00    +0.000 A 
ATOM     29  C   UNL     1       1.105   8.591  20.586  0.00  0.00    +0.000 A 
BRANCH  27  30
ATOM     30  C   UNL     1      -0.425  12.073  19.732  0.00  0.00    +0.000 C 
ATOM     31  C   UNL     1      -0.028  12.875  20.996  0.00  0.00    +0.000 C 
ATOM     32  C   UNL     1      -0.151  13.004  18.526  0.00  0.00    +0.000 C 
ATOM     33  C   UNL     1      -1.958  11.866  19.815  0.00  0.00    +0.000 C 
ENDBRANCH  27  30
ENDBRANCH  23  24
ENDBRANCH  22  23
ENDBRANCH   8  22
TORSDOF 8
ENDMDL
MODEL 5
REMARK VINA RESULT:      -8.4      0.614      1.290
REMARK  Name = 
REMARK  12 active torsions:
REMARK  status: ('A' for Active; 'I' for Inactive)
REMARK    1  A    between atoms: C_1  and  O_2
REMARK    2  A    between atoms: O_2  and  C_3
REMARK    3  A    between atoms: C_3  and  C_5
REMARK    4  A    between atoms: N_8  and  C_9
REMARK    5  A    between atoms: C_9  and  C_10
REMARK    6  A    between atoms: C_17  and  O_18
REMARK    7  A    between atoms: O_18  and  C_19
REMARK    8  A    between atoms: C_19  and  C_20
REMARK    9  A    between atoms: C_23  and  C_24
REMARK   10  A    between atoms: C_24  and  C_25
REMARK   11  A    between atoms: C_24  and  C_26
REMARK   12  A    between atoms: C_24  and  C_27
REMARK                            x       y       z     vdW  Elec       q    Type
REMARK                         _______ _______ _______ _____ _____    ______ ____
ROOT
ATOM      1  C   UNL     1       2.760   3.588  17.666  0.00  0.00    +0.000 A 
ATOM      2  N   UNL     1       2.449   2.341  17.245  0.00  0.00    +0.000 NA
ATOM      3  N   UNL     1       1.969   1.752  18.336  0.00  0.00    +0.000 N 
ATOM      4  C   UNL     1       1.907   2.569  19.430  0.00  0.00    +0.000 A 
ATOM      5  C   UNL     1       1.525   2.271  20.731  0.00  0.00    +0.000 A 
ATOM      6  C   UNL     1       1.581   3.323  21.644  0.00  0.00    +0.000 A 
ATOM      7  C   UNL     1       1.934   4.620  21.242  0.00  0.00    +0.000 A 
ATOM      8  C   UNL     1       2.288   4.937  19.911  0.00  0.00    +0.000 A 
ATOM      9  C   UNL     1       2.335   3.833  19.005  0.00  0.00    +0.000 A 
ATOM     10  H   UNL     1       1.707   0.774  18.277  0.00  0.00    +0.000 HD
ENDROOT
BRANCH   1  11
ATOM     11  C   UNL     1       3.484   4.495  16.719  0.00  0.00    +0.000 C 
BRANCH  11  15
ATOM     12  C   UNL     1       7.577   5.494  16.857  0.00  0.00    +0.000 C 
ATOM     13  C   UNL     1       7.094   4.975  15.508  0.00  0.00    +0.000 C 
ATOM     14  C   UNL     1       5.558   4.949  15.477  0.00  0.00    +0.000 C 
ATOM     15  N   UNL     1       4.939   4.173  16.570  0.00  0.00    +0.000 NA
ATOM     16  C   UNL     1       5.556   4.380  17.891  0.00  0.00    +0.000 C 
ATOM     17  C   UNL     1       7.081   4.494  17.895  0.00  0.00    +0.000 C 
BRANCH  12  18
ATOM     18  C   UNL     1       7.112   6.942  17.081  0.00  0.00    +0.000 C 
ATOM     19  O   UNL     1       6.159   7.469  16.525  0.00  0.00    +0.000 OA
BRANCH  18  21
ATOM     20  C   UNL     1       8.122   8.945  17.974  0.00  0.00    +0.000 C 
ATOM     21  O   UNL     1       7.911   7.527  18.010  0.00  0.00    +0.000 OA
ENDBRANCH  18  21
ENDBRANCH  12  18
ENDBRANCH  11  15
ENDBRANCH   1  11
BRANCH   8  22
ATOM     22  O   UNL     1       2.618   6.223  19.492  0.00  0.00    +0.000 OA
BRANCH  22  23
ATOM     23  C   UNL     1       2.323   7.307  20.415  0.00  0.00    +0.000 C 
BRANCH  23  24
ATOM     24  C   UNL     1       1.395   8.426  19.907  0.00  0.00    +0.000 A 
ATOM     25  C   UNL     1       1.433   8.947  18.614  0.00  0.00    +0.000 A 
ATOM     26  C   UNL     1       0.617  10.044  18.232  0.00  0.00    +0.000 A 
ATOM     27  C   UNL     1      -0.275  10.680  19.119  0.00  0.00    +0.000 A 
ATOM     28  C   UNL     1      -0.342  10.121  20.406  0.00  0.00    +0.000 A 
ATOM     29  C   UNL     1       0.469   9.021  20.790  0.00  0.00    +0.000 A 
BRANCH  27  30
ATOM     30  C   UNL     1      -1.107  11.937  18.738  0.00  0.00    +0.000 C 
ATOM     31  C   UNL     1      -0.246  13.152  18.313  0.00  0.00    +0.000 C 
ATOM     32  C   UNL     1      -2.076  11.661  17.562  0.00  0.00    +0.000 C 
ATOM     33  C   UNL     1      -1.963  12.412  19.938  0.00  0.00    +0.000 C 
ENDBRANCH  27  30
ENDBRANCH  23  24
ENDBRANCH  22  23
ENDBRANCH   8  22
TORSDOF 8
ENDMDL
MODEL 6
REMARK VINA RESULT:      -8.3      1.535      2.470
REMARK  Name = 
REMARK  12 active torsions:
REMARK  status: ('A' for Active; 'I' for Inactive)
REMARK    1  A    between atoms: C_1  and  O_2
REMARK    2  A    between atoms: O_2  and  C_3
REMARK    3  A    between atoms: C_3  and  C_5
REMARK    4  A    between atoms: N_8  and  C_9
REMARK    5  A    between atoms: C_9  and  C_10
REMARK    6  A    between atoms: C_17  and  O_18
REMARK    7  A    between atoms: O_18  and  C_19
REMARK    8  A    between atoms: C_19  and  C_20
REMARK    9  A    between atoms: C_23  and  C_24
REMARK   10  A    between atoms: C_24  and  C_25
REMARK   11  A    between atoms: C_24  and  C_26
REMARK   12  A    between atoms: C_24  and  C_27
REMARK                            x       y       z     vdW  Elec       q    Type
REMARK                         _______ _______ _______ _____ _____    ______ ____
ROOT
ATOM      1  C   UNL     1       2.709   4.088  17.770  0.00  0.00    +0.000 A 
ATOM      2  N   UNL     1       2.511   2.937  17.086  0.00  0.00    +0.000 NA
ATOM      3  N   UNL     1       2.078   2.091  18.015  0.00  0.00    +0.000 N 
ATOM      4  C   UNL     1       1.939   2.647  19.256  0.00  0.00    +0.000 A 
ATOM      5  C   UNL     1       1.577   2.046  20.454  0.00  0.00    +0.000 A 
ATOM      6  C   UNL     1       1.535   2.879  21.570  0.00  0.00    +0.000 A 
ATOM      7  C   UNL     1       1.775   4.258  21.463  0.00  0.00    +0.000 A 
ATOM      8  C   UNL     1       2.107   4.881  20.239  0.00  0.00    +0.000 A 
ATOM      9  C   UNL     1       2.256   4.004  19.120  0.00  0.00    +0.000 A 
ATOM     10  H   UNL     1       1.904   1.130  17.743  0.00  0.00    +0.000 HD
ENDROOT
BRANCH   1  11
ATOM     11  C   UNL     1       3.356   5.235  17.055  0.00  0.00    +0.000 C 
BRANCH  11  15
ATOM     12  C   UNL     1       7.377   6.188  17.883  0.00  0.00    +0.000 C 
ATOM     13  C   UNL     1       6.633   5.520  19.032  0.00  0.00    +0.000 C 
ATOM     14  C   UNL     1       5.304   4.937  18.526  0.00  0.00    +0.000 C 
ATOM     15  N   UNL     1       4.426   5.914  17.852  0.00  0.00    +0.000 NA
ATOM     16  C   UNL     1       5.123   6.829  16.934  0.00  0.00    +0.000 C 
ATOM     17  C   UNL     1       6.486   7.331  17.411  0.00  0.00    +0.000 C 
BRANCH  12  18
ATOM     18  C   UNL     1       7.739   5.160  16.798  0.00  0.00    +0.000 C 
ATOM     19  O   UNL     1       8.181   4.041  17.010  0.00  0.00    +0.000 OA
BRANCH  18  21
ATOM     20  C   UNL     1       6.973   4.835  14.532  0.00  0.00    +0.000 C 
ATOM     21  O   UNL     1       7.462   5.686  15.577  0.00  0.00    +0.000 OA
ENDBRANCH  18  21
ENDBRANCH  12  18
ENDBRANCH  11  15
ENDBRANCH   1  11
BRANCH   8  22
ATOM     22  O   UNL     1       2.326   6.249  20.110  0.00  0.00    +0.000 OA
BRANCH  22  23
ATOM     23  C   UNL     1       1.443   7.125  20.864  0.00  0.00    +0.000 C 
BRANCH  23  24
ATOM     24  C   UNL     1       1.236   8.551  20.317  0.00  0.00    +0.000 A 
ATOM     25  C   UNL     1       1.565   8.945  19.020  0.00  0.00    +0.000 A 
ATOM     26  C   UNL     1       1.441  10.296  18.603  0.00  0.00    +0.000 A 
ATOM     27  C   UNL     1       0.986  11.322  19.456  0.00  0.00    +0.000 A 
ATOM     28  C   UNL     1       0.613  10.910  20.746  0.00  0.00    +0.000 A 
ATOM     29  C   UNL     1       0.732   9.558  21.165  0.00  0.00    +0.000 A 
BRANCH  27  30
ATOM     30  C   UNL     1       0.931  12.819  19.037  0.00  0.00    +0.000 C 
ATOM     31  C   UNL     1       2.079  13.246  18.090  0.00  0.00    +0.000 C 
ATOM     32  C   UNL     1      -0.387  13.172  18.305  0.00  0.00    +0.000 C 
ATOM     33  C   UNL     1       1.029  13.740  20.279  0.00  0.00    +0.000 C 
ENDBRANCH  27  30
ENDBRANCH  23  24
ENDBRANCH  22  23
ENDBRANCH   8  22
TORSDOF 8
ENDMDL
MODEL 7
REMARK VINA RESULT:      -8.3      0.995      1.378
REMARK  Name = 
REMARK  12 active torsions:
REMARK  status: ('A' for Active; 'I' for Inactive)
REMARK    1  A    between atoms: C_1  and  O_2
REMARK    2  A    between atoms: O_2  and  C_3
REMARK    3  A    between atoms: C_3  and  C_5
REMARK    4  A    between atoms: N_8  and  C_9
REMARK    5  A    between atoms: C_9  and  C_10
REMARK    6  A    between atoms: C_17  and  O_18
REMARK    7  A    between atoms: O_18  and  C_19
REMARK    8  A    between atoms: C_19  and  C_20
REMARK    9  A    between atoms: C_23  and  C_24
REMARK   10  A    between atoms: C_24  and  C_25
REMARK   11  A    between atoms: C_24  and  C_26
REMARK   12  A    between atoms: C_24  and  C_27
REMARK                            x       y       z     vdW  Elec       q    Type
REMARK                         _______ _______ _______ _____ _____    ______ ____
ROOT
ATOM      1  C   UNL     1       2.834   3.360  17.679  0.00  0.00    +0.000 A 
ATOM      2  N   UNL     1       2.332   2.142  17.373  0.00  0.00    +0.000 NA
ATOM      3  N   UNL     1       1.833   1.710  18.526  0.00  0.00    +0.000 N 
ATOM      4  C   UNL     1       1.941   2.606  19.552  0.00  0.00    +0.000 A 
ATOM      5  C   UNL     1       1.590   2.462  20.888  0.00  0.00    +0.000 A 
ATOM      6  C   UNL     1       1.837   3.560  21.709  0.00  0.00    +0.000 A 
ATOM      7  C   UNL     1       2.343   4.761  21.191  0.00  0.00    +0.000 A 
ATOM      8  C   UNL     1       2.668   4.925  19.825  0.00  0.00    +0.000 A 
ATOM      9  C   UNL     1       2.516   3.761  19.010  0.00  0.00    +0.000 A 
ATOM     10  H   UNL     1       1.437   0.777  18.557  0.00  0.00    +0.000 HD
ENDROOT
BRANCH   1  11
ATOM     11  C   UNL     1       3.625   4.084  16.632  0.00  0.00    +0.000 C 
BRANCH  11  15
ATOM     12  C   UNL     1       7.515   5.579  17.264  0.00  0.00    +0.000 C 
ATOM     13  C   UNL     1       7.333   4.810  15.961  0.00  0.00    +0.000 C 
ATOM     14  C   UNL     1       5.837   4.593  15.686  0.00  0.00    +0.000 C 
ATOM     15  N   UNL     1       5.106   3.921  16.779  0.00  0.00    +0.000 NA
ATOM     16  C   UNL     1       5.454   4.397  18.128  0.00  0.00    +0.000 C 
ATOM     17  C   UNL     1       6.936   4.694  18.361  0.00  0.00    +0.000 C 
BRANCH  12  18
ATOM     18  C   UNL     1       6.885   6.978  17.162  0.00  0.00    +0.000 C 
ATOM     19  O   UNL     1       5.694   7.223  17.288  0.00  0.00    +0.000 OA
BRANCH  18  21
ATOM     20  C   UNL     1       8.223   8.816  17.974  0.00  0.00    +0.000 C 
ATOM     21  O   UNL     1       7.863   7.891  16.938  0.00  0.00    +0.000 OA
ENDBRANCH  18  21
ENDBRANCH  12  18
ENDBRANCH  11  15
ENDBRANCH   1  11
BRANCH   8  22
ATOM     22  O   UNL     1       3.150   6.117  19.290  0.00  0.00    +0.000 OA
BRANCH  22  23
ATOM     23  C   UNL     1       2.271   6.822  18.370  0.00  0.00    +0.000 C 
BRANCH  23  24
ATOM     24  C   UNL     1       1.662   8.149  18.861  0.00  0.00    +0.000 A 
ATOM     25  C   UNL     1       1.372   9.231  18.030  0.00  0.00    +0.000 A 
ATOM     26  C   UNL     1       0.902  10.463  18.555  0.00  0.00    +0.000 A 
ATOM     27  C   UNL     1       0.699  10.681  19.933  0.00  0.00    +0.000 A 
ATOM     28  C   UNL     1       0.949   9.572  20.759  0.00  0.00    +0.000 A 
ATOM     29  C   UNL     1       1.416   8.338  20.237  0.00  0.00    +0.000 A 
BRANCH  27  30
ATOM     30  C   UNL     1       0.270  12.052  20.526  0.00  0.00    +0.000 C 
ATOM     31  C   UNL     1      -0.421  11.948  21.908  0.00  0.00    +0.000 C 
ATOM     32  C   UNL     1       1.473  13.009  20.715  0.00  0.00    +0.000 C 
ATOM     33  C   UNL     1      -0.740  12.762  19.590  0.00  0.00    +0.000 C 
ENDBRANCH  27  30
ENDBRANCH  23  24
ENDBRANCH  22  23
ENDBRANCH   8  22
TORSDOF 8
ENDMDL
MODEL 8
REMARK VINA RESULT:      -8.2      1.797      2.640
REMARK  Name = 
REMARK  12 active torsions:
REMARK  status: ('A' for Active; 'I' for Inactive)
REMARK    1  A    between atoms: C_1  and  O_2
REMARK    2  A    between atoms: O_2  and  C_3
REMARK    3  A    between atoms: C_3  and  C_5
REMARK    4  A    between atoms: N_8  and  C_9
REMARK    5  A    between atoms: C_9  and  C_10
REMARK    6  A    between atoms: C_17  and  O_18
REMARK    7  A    between atoms: O_18  and  C_19
REMARK    8  A    between atoms: C_19  and  C_20
REMARK    9  A    between atoms: C_23  and  C_24
REMARK   10  A    between atoms: C_24  and  C_25
REMARK   11  A    between atoms: C_24  and  C_26
REMARK   12  A    between atoms: C_24  and  C_27
REMARK                            x       y       z     vdW  Elec       q    Type
REMARK                         _______ _______ _______ _____ _____    ______ ____
ROOT
ATOM      1  C   UNL     1       4.876   4.330  19.369  0.00  0.00    +0.000 A 
ATOM      2  N   UNL     1       5.309   3.136  18.902  0.00  0.00    +0.000 NA
ATOM      3  N   UNL     1       4.259   2.338  19.061  0.00  0.00    +0.000 N 
ATOM      4  C   UNL     1       3.151   2.965  19.561  0.00  0.00    +0.000 A 
ATOM      5  C   UNL     1       1.918   2.429  19.909  0.00  0.00    +0.000 A 
ATOM      6  C   UNL     1       0.979   3.327  20.412  0.00  0.00    +0.000 A 
ATOM      7  C   UNL     1       1.251   4.701  20.489  0.00  0.00    +0.000 A 
ATOM      8  C   UNL     1       2.491   5.257  20.103  0.00  0.00    +0.000 A 
ATOM      9  C   UNL     1       3.487   4.317  19.691  0.00  0.00    +0.000 A 
ATOM     10  H   UNL     1       4.360   1.358  18.820  0.00  0.00    +0.000 HD
ENDROOT
BRANCH   1  11
ATOM     11  C   UNL     1       5.868   5.446  19.488  0.00  0.00    +0.000 C 
BRANCH  11  15
ATOM     12  C   UNL     1       5.935   5.541  15.275  0.00  0.00    +0.000 C 
ATOM     13  C   UNL     1       7.309   5.581  15.933  0.00  0.00    +0.000 C 
ATOM     14  C   UNL     1       7.185   5.224  17.423  0.00  0.00    +0.000 C 
ATOM     15  N   UNL     1       6.235   6.067  18.176  0.00  0.00    +0.000 NA
ATOM     16  C   UNL     1       4.974   6.345  17.470  0.00  0.00    +0.000 C 
ATOM     17  C   UNL     1       5.102   6.611  15.970  0.00  0.00    +0.000 C 
BRANCH  12  18
ATOM     18  C   UNL     1       5.345   4.122  15.334  0.00  0.00    +0.000 C 
ATOM     19  O   UNL     1       4.392   3.786  16.022  0.00  0.00    +0.000 OA
BRANCH  18  21
ATOM     20  C   UNL     1       6.233   3.730  13.124  0.00  0.00    +0.000 C 
ATOM     21  O   UNL     1       6.032   3.318  14.483  0.00  0.00    +0.000 OA
ENDBRANCH  18  21
ENDBRANCH  12  18
ENDBRANCH  11  15
ENDBRANCH   1  11
BRANCH   8  22
ATOM     22  O   UNL     1       2.769   6.620  20.151  0.00  0.00    +0.000 OA
BRANCH  22  23
ATOM     23  C   UNL     1       2.334   7.416  19.015  0.00  0.00    +0.000 C 
BRANCH  23  24
ATOM     24  C   UNL     1       1.470   8.656  19.318  0.00  0.00    +0.000 A 
ATOM     25  C   UNL     1       0.952   8.958  20.577  0.00  0.00    +0.000 A 
ATOM     26  C   UNL     1       0.083  10.063  20.775  0.00  0.00    +0.000 A 
ATOM     27  C   UNL     1      -0.316  10.920  19.729  0.00  0.00    +0.000 A 
ATOM     28  C   UNL     1       0.246  10.637  18.473  0.00  0.00    +0.000 A 
ATOM     29  C   UNL     1       1.119   9.535  18.273  0.00  0.00    +0.000 A 
BRANCH  27  30
ATOM     30  C   UNL     1      -1.337  12.078  19.917  0.00  0.00    +0.000 C 
ATOM     31  C   UNL     1      -2.633  11.911  19.086  0.00  0.00    +0.000 C 
ATOM     32  C   UNL     1      -1.784  12.228  21.392  0.00  0.00    +0.000 C 
ATOM     33  C   UNL     1      -0.717  13.430  19.484  0.00  0.00    +0.000 C 
ENDBRANCH  27  30
ENDBRANCH  23  24
ENDBRANCH  22  23
ENDBRANCH   8  22
TORSDOF 8
ENDMDL
MODEL 9
REMARK VINA RESULT:      -8.0      1.815      2.764
REMARK  Name = 
REMARK  12 active torsions:
REMARK  status: ('A' for Active; 'I' for Inactive)
REMARK    1  A    between atoms: C_1  and  O_2
REMARK    2  A    between atoms: O_2  and  C_3
REMARK    3  A    between atoms: C_3  and  C_5
REMARK    4  A    between atoms: N_8  and  C_9
REMARK    5  A    between atoms: C_9  and  C_10
REMARK    6  A    between atoms: C_17  and  O_18
REMARK    7  A    between atoms: O_18  and  C_19
REMARK    8  A    between atoms: C_19  and  C_20
REMARK    9  A    between atoms: C_23  and  C_24
REMARK   10  A    between atoms: C_24  and  C_25
REMARK   11  A    between atoms: C_24  and  C_26
REMARK   12  A    between atoms: C_24  and  C_27
REMARK                            x       y       z     vdW  Elec       q    Type
REMARK                         _______ _______ _______ _____ _____    ______ ____
ROOT
ATOM      1  C   UNL     1       4.436   3.769  19.062  0.00  0.00    +0.000 A 
ATOM      2  N   UNL     1       4.808   2.790  18.205  0.00  0.00    +0.000 NA
ATOM      3  N   UNL     1       3.698   2.077  18.043  0.00  0.00    +0.000 N 
ATOM      4  C   UNL     1       2.614   2.572  18.713  0.00  0.00    +0.000 A 
ATOM      5  C   UNL     1       1.331   2.051  18.818  0.00  0.00    +0.000 A 
ATOM      6  C   UNL     1       0.433   2.783  19.592  0.00  0.00    +0.000 A 
ATOM      7  C   UNL     1       0.795   4.011  20.166  0.00  0.00    +0.000 A 
ATOM      8  C   UNL     1       2.089   4.564  20.031  0.00  0.00    +0.000 A 
ATOM      9  C   UNL     1       3.036   3.756  19.329  0.00  0.00    +0.000 A 
ATOM     10  H   UNL     1       3.744   1.244  17.467  0.00  0.00    +0.000 HD
ENDROOT
BRANCH   1  11
ATOM     11  C   UNL     1       5.496   4.683  19.597  0.00  0.00    +0.000 C 
BRANCH  11  15
ATOM     12  C   UNL     1       6.493   6.585  15.970  0.00  0.00    +0.000 C 
ATOM     13  C   UNL     1       7.378   6.965  17.151  0.00  0.00    +0.000 C 
ATOM     14  C   UNL     1       7.137   5.994  18.317  0.00  0.00    +0.000 C 
ATOM     15  N   UNL     1       5.729   5.895  18.749  0.00  0.00    +0.000 NA
ATOM     16  C   UNL     1       4.756   5.835  17.646  0.00  0.00    +0.000 C 
ATOM     17  C   UNL     1       5.056   6.741  16.451  0.00  0.00    +0.000 C 
BRANCH  12  18
ATOM     18  C   UNL     1       6.852   5.183  15.450  0.00  0.00    +0.000 C 
ATOM     19  O   UNL     1       7.805   4.517  15.826  0.00  0.00    +0.000 OA
BRANCH  18  21
ATOM     20  C   UNL     1       6.252   3.770  13.587  0.00  0.00    +0.000 C 
ATOM     21  O   UNL     1       5.928   4.799  14.532  0.00  0.00    +0.000 OA
ENDBRANCH  18  21
ENDBRANCH  12  18
ENDBRANCH  11  15
ENDBRANCH   1  11
BRANCH   8  22
ATOM     22  O   UNL     1       2.458   5.791  20.575  0.00  0.00    +0.000 OA
BRANCH  22  23
ATOM     23  C   UNL     1       2.455   6.932  19.673  0.00  0.00    +0.000 C 
BRANCH  23  24
ATOM     24  C   UNL     1       1.572   8.132  20.065  0.00  0.00    +0.000 A 
ATOM     25  C   UNL     1       1.232   9.169  19.195  0.00  0.00    +0.000 A 
ATOM     26  C   UNL     1       0.494  10.297  19.640  0.00  0.00    +0.000 A 
ATOM     27  C   UNL     1       0.062  10.452  20.974  0.00  0.00    +0.000 A 
ATOM     28  C   UNL     1       0.369   9.383  21.832  0.00  0.00    +0.000 A 
ATOM     29  C   UNL     1       1.102   8.251  21.389  0.00  0.00    +0.000 A 
BRANCH  27  30
ATOM     30  C   UNL     1      -0.667  11.723  21.492  0.00  0.00    +0.000 C 
ATOM     31  C   UNL     1      -1.265  11.567  22.912  0.00  0.00    +0.000 C 
ATOM     32  C   UNL     1       0.273  12.953  21.552  0.00  0.00    +0.000 C 
ATOM     33  C   UNL     1      -1.850  12.094  20.562  0.00  0.00    +0.000 C 
ENDBRANCH  27  30
ENDBRANCH  23  24
ENDBRANCH  22  23
ENDBRANCH   8  22
TORSDOF 8
ENDMDL
