MODEL 1
REMARK VINA RESULT:      -6.2      0.000      0.000
REMARK  Name = 
REMARK  5 active torsions:
REMARK  status: ('A' for Active; 'I' for Inactive)
REMARK    1  A    between atoms: C_1  and  C_2
REMARK    2  A    between atoms: C_2  and  C_3
REMARK    3  A    between atoms: C_15  and  S_16
REMARK    4  A    between atoms: S_16  and  C_17
REMARK    5  A    between atoms: C_21  and  C_22
REMARK                            x       y       z     vdW  Elec       q    Type
REMARK                         _______ _______ _______ _____ _____    ______ ____
ROOT
ATOM      1  C   UNL     1       9.320  11.935  20.762  0.00  0.00    +0.000 C 
ATOM      2  O   UNL     1       8.860  11.234  21.660  0.00  0.00    +0.000 OA
ATOM      3  N   UNL     1       9.397  13.328  20.821  0.00  0.00    +0.000 N 
ATOM      4  C   UNL     1      10.174  14.050  19.865  0.00  0.00    +0.000 A 
ATOM      5  C   UNL     1      11.574  13.957  19.866  0.00  0.00    +0.000 A 
ATOM      6  C   UNL     1      12.309  14.552  18.840  0.00  0.00    +0.000 A 
ATOM      7  C   UNL     1      11.651  15.215  17.806  0.00  0.00    +0.000 A 
ATOM      8  C   UNL     1      10.258  15.315  17.811  0.00  0.00    +0.000 A 
ATOM      9  C   UNL     1       9.502  14.754  18.852  0.00  0.00    +0.000 A 
ATOM     10  C   UNL     1       8.049  14.839  18.881  0.00  0.00    +0.000 A 
ATOM     11  N   UNL     1       7.381  14.662  17.725  0.00  0.00    +0.000 NA
ATOM     12  N   UNL     1       6.017  14.707  17.745  0.00  0.00    +0.000 NA
ATOM     13  C   UNL     1       5.367  14.965  18.902  0.00  0.00    +0.000 A 
ATOM     14  N   UNL     1       5.988  15.176  20.073  0.00  0.00    +0.000 NA
ATOM     15  C   UNL     1       7.330  15.054  20.045  0.00  0.00    +0.000 A 
ATOM     16  O   UNL     1       7.961  15.293  21.244  0.00  0.00    +0.000 OA
ATOM     17  C   UNL     1       8.677  14.163  21.810  0.00  0.00    +0.000 C 
ENDROOT
BRANCH  17  18
ATOM     18  C   UNL     1       7.808  13.474  22.852  0.00  0.00    +0.000 A 
ATOM     19  C   UNL     1       6.517  12.982  22.690  0.00  0.00    +0.000 A 
ATOM     20  C   UNL     1       6.025  12.309  23.854  0.00  0.00    +0.000 A 
ATOM     21  C   UNL     1       6.959  12.304  24.851  0.00  0.00    +0.000 A 
ATOM     22 BR   UNL     1       6.720  11.454  26.504  0.00  0.00    +0.000 Br
ATOM     23  S   UNL     1       8.363  13.143  24.448  0.00  0.00    +0.000 S 
ENDBRANCH  17  18
BRANCH   1  25
ATOM     24  C   UNL     1       9.112   9.982  19.152  0.00  0.00    +0.000 C 
ATOM     25  C   UNL     1       9.815  11.290  19.463  0.00  0.00    +0.000 C 
ENDBRANCH   1  25
BRANCH  13  26
ATOM     26  S   UNL     1       3.593  15.017  18.830  0.00  0.00    +0.000 S 
ATOM     27  C   UNL     1       3.347  16.026  17.348  0.00  0.00    +0.000 C 
ENDBRANCH  13  26
TORSDOF 3
ENDMDL
MODEL 2
REMARK VINA RESULT:      -5.9      7.242     10.110
REMARK  Name = 
REMARK  5 active torsions:
REMARK  status: ('A' for Active; 'I' for Inactive)
REMARK    1  A    between atoms: C_1  and  C_2
REMARK    2  A    between atoms: C_2  and  C_3
REMARK    3  A    between atoms: C_15  and  S_16
REMARK    4  A    between atoms: S_16  and  C_17
REMARK    5  A    between atoms: C_21  and  C_22
REMARK                            x       y       z     vdW  Elec       q    Type
REMARK                         _______ _______ _______ _____ _____    ______ ____
ROOT
ATOM      1  C   UNL     1       0.441  11.208  20.722  0.00  0.00    +0.000 C 
ATOM      2  O   UNL     1       1.509  11.470  21.271  0.00  0.00    +0.000 OA
ATOM      3  N   UNL     1      -0.162  12.020  19.760  0.00  0.00    +0.000 N 
ATOM      4  C   UNL     1      -1.255  11.530  18.983  0.00  0.00    +0.000 A 
ATOM      5  C   UNL     1      -1.058  10.521  18.029  0.00  0.00    +0.000 A 
ATOM      6  C   UNL     1      -2.156   9.954  17.382  0.00  0.00    +0.000 A 
ATOM      7  C   UNL     1      -3.447  10.374  17.701  0.00  0.00    +0.000 A 
ATOM      8  C   UNL     1      -3.641  11.386  18.645  0.00  0.00    +0.000 A 
ATOM      9  C   UNL     1      -2.548  11.993  19.281  0.00  0.00    +0.000 A 
ATOM     10  C   UNL     1      -2.721  13.047  20.271  0.00  0.00    +0.000 A 
ATOM     11  N   UNL     1      -3.718  12.915  21.167  0.00  0.00    +0.000 NA
ATOM     12  N   UNL     1      -3.870  13.881  22.120  0.00  0.00    +0.000 NA
ATOM     13  C   UNL     1      -3.054  14.958  22.126  0.00  0.00    +0.000 A 
ATOM     14  N   UNL     1      -2.066  15.148  21.239  0.00  0.00    +0.000 NA
ATOM     15  C   UNL     1      -1.886  14.148  20.352  0.00  0.00    +0.000 A 
ATOM     16  O   UNL     1      -0.885  14.360  19.433  0.00  0.00    +0.000 OA
ATOM     17  C   UNL     1       0.225  13.424  19.491  0.00  0.00    +0.000 C 
ENDROOT
BRANCH  17  18
ATOM     18  C   UNL     1       1.368  14.033  20.292  0.00  0.00    +0.000 A 
ATOM     19  C   UNL     1       1.306  14.614  21.553  0.00  0.00    +0.000 A 
ATOM     20  C   UNL     1       2.589  15.004  22.053  0.00  0.00    +0.000 A 
ATOM     21  C   UNL     1       3.578  14.698  21.162  0.00  0.00    +0.000 A 
ATOM     22 BR   UNL     1       5.402  14.984  21.483  0.00  0.00    +0.000 Br
ATOM     23  S   UNL     1       2.995  14.030  19.730  0.00  0.00    +0.000 S 
ENDBRANCH  17  18
BRANCH   1  25
ATOM     24  C   UNL     1      -0.401   9.739  22.614  0.00  0.00    +0.000 C 
ATOM     25  C   UNL     1      -0.331   9.943  21.112  0.00  0.00    +0.000 C 
ENDBRANCH   1  25
BRANCH  13  26
ATOM     26  S   UNL     1      -3.335  16.168  23.396  0.00  0.00    +0.000 S 
ATOM     27  C   UNL     1      -3.101  15.159  24.880  0.00  0.00    +0.000 C 
ENDBRANCH  13  26
TORSDOF 3
ENDMDL
MODEL 3
REMARK VINA RESULT:      -5.9      9.801     11.738
REMARK  Name = 
REMARK  5 active torsions:
REMARK  status: ('A' for Active; 'I' for Inactive)
REMARK    1  A    between atoms: C_1  and  C_2
REMARK    2  A    between atoms: C_2  and  C_3
REMARK    3  A    between atoms: C_15  and  S_16
REMARK    4  A    between atoms: S_16  and  C_17
REMARK    5  A    between atoms: C_21  and  C_22
REMARK                            x       y       z     vdW  Elec       q    Type
REMARK                         _______ _______ _______ _____ _____    ______ ____
ROOT
ATOM      1  C   UNL     1      -1.111  12.471  22.347  0.00  0.00    +0.000 C 
ATOM      2  O   UNL     1      -0.582  12.883  23.377  0.00  0.00    +0.000 OA
ATOM      3  N   UNL     1      -1.760  13.291  21.422  0.00  0.00    +0.000 N 
ATOM      4  C   UNL     1      -2.117  12.787  20.134  0.00  0.00    +0.000 A 
ATOM      5  C   UNL     1      -1.128  12.475  19.189  0.00  0.00    +0.000 A 
ATOM      6  C   UNL     1      -1.483  11.850  17.994  0.00  0.00    +0.000 A 
ATOM      7  C   UNL     1      -2.815  11.515  17.752  0.00  0.00    +0.000 A 
ATOM      8  C   UNL     1      -3.800  11.833  18.690  0.00  0.00    +0.000 A 
ATOM      9  C   UNL     1      -3.468  12.493  19.883  0.00  0.00    +0.000 A 
ATOM     10  C   UNL     1      -4.473  12.834  20.880  0.00  0.00    +0.000 A 
ATOM     11  N   UNL     1      -5.433  11.928  21.146  0.00  0.00    +0.000 NA
ATOM     12  N   UNL     1      -6.362  12.223  22.101  0.00  0.00    +0.000 NA
ATOM     13  C   UNL     1      -6.328  13.419  22.730  0.00  0.00    +0.000 A 
ATOM     14  N   UNL     1      -5.410  14.365  22.479  0.00  0.00    +0.000 NA
ATOM     15  C   UNL     1      -4.459  14.025  21.586  0.00  0.00    +0.000 A 
ATOM     16  O   UNL     1      -3.534  15.007  21.320  0.00  0.00    +0.000 OA
ATOM     17  C   UNL     1      -2.163  14.692  21.685  0.00  0.00    +0.000 C 
ENDROOT
BRANCH  17  18
ATOM     18  C   UNL     1      -1.841  15.301  23.042  0.00  0.00    +0.000 A 
ATOM     19  C   UNL     1      -2.546  15.149  24.231  0.00  0.00    +0.000 A 
ATOM     20  C   UNL     1      -1.911  15.789  25.343  0.00  0.00    +0.000 A 
ATOM     21  C   UNL     1      -0.746  16.394  24.964  0.00  0.00    +0.000 A 
ATOM     22 BR   UNL     1       0.411  17.272  26.147  0.00  0.00    +0.000 Br
ATOM     23  S   UNL     1      -0.444  16.272  23.311  0.00  0.00    +0.000 S 
ENDBRANCH  17  18
BRANCH   1  25
ATOM     24  C   UNL     1      -0.533  10.135  23.159  0.00  0.00    +0.000 C 
ATOM     25  C   UNL     1      -1.120  10.971  22.036  0.00  0.00    +0.000 C 
ENDBRANCH   1  25
BRANCH  13  26
ATOM     26  S   UNL     1      -7.584  13.719  23.949  0.00  0.00    +0.000 S 
ATOM     27  C   UNL     1      -7.916  15.475  23.666  0.00  0.00    +0.000 C 
ENDBRANCH  13  26
TORSDOF 3
ENDMDL
MODEL 4
REMARK VINA RESULT:      -5.9      7.634      9.439
REMARK  Name = 
REMARK  5 active torsions:
REMARK  status: ('A' for Active; 'I' for Inactive)
REMARK    1  A    between atoms: C_1  and  C_2
REMARK    2  A    between atoms: C_2  and  C_3
REMARK    3  A    between atoms: C_15  and  S_16
REMARK    4  A    between atoms: S_16  and  C_17
REMARK    5  A    between atoms: C_21  and  C_22
REMARK                            x       y       z     vdW  Elec       q    Type
REMARK                         _______ _______ _______ _____ _____    ______ ____
ROOT
ATOM      1  C   UNL     1      -2.180  11.999  19.500  0.00  0.00    +0.000 C 
ATOM      2  O   UNL     1      -3.234  12.273  20.069  0.00  0.00    +0.000 OA
ATOM      3  N   UNL     1      -0.972  11.769  20.163  0.00  0.00    +0.000 N 
ATOM      4  C   UNL     1       0.139  11.204  19.466  0.00  0.00    +0.000 A 
ATOM      5  C   UNL     1       0.106   9.872  19.029  0.00  0.00    +0.000 A 
ATOM      6  C   UNL     1       1.135   9.379  18.227  0.00  0.00    +0.000 A 
ATOM      7  C   UNL     1       2.181  10.217  17.842  0.00  0.00    +0.000 A 
ATOM      8  C   UNL     1       2.217  11.542  18.284  0.00  0.00    +0.000 A 
ATOM      9  C   UNL     1       1.209  12.047  19.120  0.00  0.00    +0.000 A 
ATOM     10  C   UNL     1       1.219  13.424  19.594  0.00  0.00    +0.000 A 
ATOM     11  N   UNL     1       1.576  14.389  18.725  0.00  0.00    +0.000 NA
ATOM     12  N   UNL     1       1.558  15.686  19.148  0.00  0.00    +0.000 NA
ATOM     13  C   UNL     1       1.225  15.976  20.425  0.00  0.00    +0.000 A 
ATOM     14  N   UNL     1       0.889  15.048  21.335  0.00  0.00    +0.000 NA
ATOM     15  C   UNL     1       0.841  13.781  20.878  0.00  0.00    +0.000 A 
ATOM     16  O   UNL     1       0.518  12.835  21.820  0.00  0.00    +0.000 OA
ATOM     17  C   UNL     1      -0.720  12.111  21.582  0.00  0.00    +0.000 C 
ENDROOT
BRANCH  17  18
ATOM     18  C   UNL     1      -1.845  12.738  22.392  0.00  0.00    +0.000 A 
ATOM     19  C   UNL     1      -2.709  12.105  23.280  0.00  0.00    +0.000 A 
ATOM     20  C   UNL     1      -3.594  13.012  23.943  0.00  0.00    +0.000 A 
ATOM     21  C   UNL     1      -3.367  14.300  23.547  0.00  0.00    +0.000 A 
ATOM     22 BR   UNL     1      -4.271  15.785  24.245  0.00  0.00    +0.000 Br
ATOM     23  S   UNL     1      -2.180  14.427  22.358  0.00  0.00    +0.000 S 
ENDBRANCH  17  18
BRANCH   1  25
ATOM     24  C   UNL     1      -3.089  10.911  17.393  0.00  0.00    +0.000 C 
ATOM     25  C   UNL     1      -2.127  11.935  17.970  0.00  0.00    +0.000 C 
ENDBRANCH   1  25
BRANCH  13  26
ATOM     26  S   UNL     1       1.241  17.691  20.888  0.00  0.00    +0.000 S 
ATOM     27  C   UNL     1       0.899  18.472  19.292  0.00  0.00    +0.000 C 
ENDBRANCH  13  26
TORSDOF 3
ENDMDL
MODEL 5
REMARK VINA RESULT:      -5.8     10.707     14.316
REMARK  Name = 
REMARK  5 active torsions:
REMARK  status: ('A' for Active; 'I' for Inactive)
REMARK    1  A    between atoms: C_1  and  C_2
REMARK    2  A    between atoms: C_2  and  C_3
REMARK    3  A    between atoms: C_15  and  S_16
REMARK    4  A    between atoms: S_16  and  C_17
REMARK    5  A    between atoms: C_21  and  C_22
REMARK                            x       y       z     vdW  Elec       q    Type
REMARK                         _______ _______ _______ _____ _____    ______ ____
ROOT
ATOM      1  C   UNL     1      -6.436  11.152  19.871  0.00  0.00    +0.000 C 
ATOM      2  O   UNL     1      -6.266  10.398  18.915  0.00  0.00    +0.000 OA
ATOM      3  N   UNL     1      -5.774  12.371  20.030  0.00  0.00    +0.000 N 
ATOM      4  C   UNL     1      -6.210  13.306  21.018  0.00  0.00    +0.000 A 
ATOM      5  C   UNL     1      -7.437  13.972  20.880  0.00  0.00    +0.000 A 
ATOM      6  C   UNL     1      -7.914  14.771  21.918  0.00  0.00    +0.000 A 
ATOM      7  C   UNL     1      -7.183  14.886  23.100  0.00  0.00    +0.000 A 
ATOM      8  C   UNL     1      -5.957  14.230  23.234  0.00  0.00    +0.000 A 
ATOM      9  C   UNL     1      -5.444  13.449  22.187  0.00  0.00    +0.000 A 
ATOM     10  C   UNL     1      -4.171  12.751  22.299  0.00  0.00    +0.000 A 
ATOM     11  N   UNL     1      -3.885  12.142  23.466  0.00  0.00    +0.000 NA
ATOM     12  N   UNL     1      -2.709  11.457  23.573  0.00  0.00    +0.000 NA
ATOM     13  C   UNL     1      -1.844  11.433  22.534  0.00  0.00    +0.000 A 
ATOM     14  N   UNL     1      -2.072  12.047  21.363  0.00  0.00    +0.000 NA
ATOM     15  C   UNL     1      -3.269  12.656  21.253  0.00  0.00    +0.000 A 
ATOM     16  O   UNL     1      -3.486  13.300  20.058  0.00  0.00    +0.000 OA
ATOM     17  C   UNL     1      -4.581  12.781  19.256  0.00  0.00    +0.000 C 
ENDROOT
BRANCH  17  18
ATOM     18  C   UNL     1      -4.036  11.832  18.197  0.00  0.00    +0.000 A 
ATOM     19  C   UNL     1      -3.110  10.809  18.368  0.00  0.00    +0.000 A 
ATOM     20  C   UNL     1      -2.889  10.050  17.176  0.00  0.00    +0.000 A 
ATOM     21  C   UNL     1      -3.658  10.513  16.147  0.00  0.00    +0.000 A 
ATOM     22 BR   UNL     1      -3.709   9.735  14.444  0.00  0.00    +0.000 Br
ATOM     23  S   UNL     1      -4.571  11.868  16.561  0.00  0.00    +0.000 S 
ENDBRANCH  17  18
BRANCH   1  25
ATOM     24  C   UNL     1      -7.916   9.337  20.855  0.00  0.00    +0.000 C 
ATOM     25  C   UNL     1      -7.393  10.755  21.000  0.00  0.00    +0.000 C 
ENDBRANCH   1  25
BRANCH  13  26
ATOM     26  S   UNL     1      -0.335  10.527  22.770  0.00  0.00    +0.000 S 
ATOM     27  C   UNL     1      -0.328   9.493  21.285  0.00  0.00    +0.000 C 
ENDBRANCH  13  26
TORSDOF 3
ENDMDL
MODEL 6
REMARK VINA RESULT:      -5.7      9.214     11.443
REMARK  Name = 
REMARK  5 active torsions:
REMARK  status: ('A' for Active; 'I' for Inactive)
REMARK    1  A    between atoms: C_1  and  C_2
REMARK    2  A    between atoms: C_2  and  C_3
REMARK    3  A    between atoms: C_15  and  S_16
REMARK    4  A    between atoms: S_16  and  C_17
REMARK    5  A    between atoms: C_21  and  C_22
REMARK                            x       y       z     vdW  Elec       q    Type
REMARK                         _______ _______ _______ _____ _____    ______ ____
ROOT
ATOM      1  C   UNL     1      -0.211  14.034  22.284  0.00  0.00    +0.000 C 
ATOM      2  O   UNL     1       0.561  13.273  21.705  0.00  0.00    +0.000 OA
ATOM      3  N   UNL     1      -1.276  13.608  23.081  0.00  0.00    +0.000 N 
ATOM      4  C   UNL     1      -1.962  14.533  23.925  0.00  0.00    +0.000 A 
ATOM      5  C   UNL     1      -1.325  15.088  25.045  0.00  0.00    +0.000 A 
ATOM      6  C   UNL     1      -1.956  16.095  25.774  0.00  0.00    +0.000 A 
ATOM      7  C   UNL     1      -3.207  16.565  25.375  0.00  0.00    +0.000 A 
ATOM      8  C   UNL     1      -3.845  16.006  24.265  0.00  0.00    +0.000 A 
ATOM      9  C   UNL     1      -3.241  14.967  23.539  0.00  0.00    +0.000 A 
ATOM     10  C   UNL     1      -3.881  14.368  22.376  0.00  0.00    +0.000 A 
ATOM     11  N   UNL     1      -4.512  15.185  21.510  0.00  0.00    +0.000 NA
ATOM     12  N   UNL     1      -5.087  14.639  20.400  0.00  0.00    +0.000 NA
ATOM     13  C   UNL     1      -5.050  13.301  20.208  0.00  0.00    +0.000 A 
ATOM     14  N   UNL     1      -4.459  12.445  21.055  0.00  0.00    +0.000 NA
ATOM     15  C   UNL     1      -3.834  13.011  22.107  0.00  0.00    +0.000 A 
ATOM     16  O   UNL     1      -3.249  12.125  22.981  0.00  0.00    +0.000 OA
ATOM     17  C   UNL     1      -1.804  12.224  23.099  0.00  0.00    +0.000 C 
ENDROOT
BRANCH  17  18
ATOM     18  C   UNL     1      -1.144  11.179  22.211  0.00  0.00    +0.000 A 
ATOM     19  C   UNL     1      -1.154  11.115  20.822  0.00  0.00    +0.000 A 
ATOM     20  C   UNL     1      -0.353  10.048  20.306  0.00  0.00    +0.000 A 
ATOM     21  C   UNL     1       0.245   9.347  21.315  0.00  0.00    +0.000 A 
ATOM     22 BR   UNL     1       1.431   7.924  21.042  0.00  0.00    +0.000 Br
ATOM     23  S   UNL     1      -0.192   9.894  22.848  0.00  0.00    +0.000 S 
ENDBRANCH  17  18
BRANCH   1  25
ATOM     24  C   UNL     1      -0.743  16.075  20.869  0.00  0.00    +0.000 C 
ATOM     25  C   UNL     1      -0.061  15.550  22.119  0.00  0.00    +0.000 C 
ENDBRANCH   1  25
BRANCH  13  26
ATOM     26  S   UNL     1      -5.836  12.681  18.741  0.00  0.00    +0.000 S 
ATOM     27  C   UNL     1      -4.526  11.622  18.080  0.00  0.00    +0.000 C 
ENDBRANCH  13  26
TORSDOF 3
ENDMDL
MODEL 7
REMARK VINA RESULT:      -5.7      7.079     10.265
REMARK  Name = 
REMARK  5 active torsions:
REMARK  status: ('A' for Active; 'I' for Inactive)
REMARK    1  A    between atoms: C_1  and  C_2
REMARK    2  A    between atoms: C_2  and  C_3
REMARK    3  A    between atoms: C_15  and  S_16
REMARK    4  A    between atoms: S_16  and  C_17
REMARK    5  A    between atoms: C_21  and  C_22
REMARK                            x       y       z     vdW  Elec       q    Type
REMARK                         _______ _______ _______ _____ _____    ______ ____
ROOT
ATOM      1  C   UNL     1       0.546  11.371  19.149  0.00  0.00    +0.000 C 
ATOM      2  O   UNL     1       1.762  11.516  19.250  0.00  0.00    +0.000 OA
ATOM      3  N   UNL     1      -0.339  12.404  18.830  0.00  0.00    +0.000 N 
ATOM      4  C   UNL     1      -1.691  12.113  18.475  0.00  0.00    +0.000 A 
ATOM      5  C   UNL     1      -1.989  11.463  17.268  0.00  0.00    +0.000 A 
ATOM      6  C   UNL     1      -3.297  11.058  17.002  0.00  0.00    +0.000 A 
ATOM      7  C   UNL     1      -4.300  11.278  17.946  0.00  0.00    +0.000 A 
ATOM      8  C   UNL     1      -4.004  11.933  19.144  0.00  0.00    +0.000 A 
ATOM      9  C   UNL     1      -2.701  12.379  19.415  0.00  0.00    +0.000 A 
ATOM     10  C   UNL     1      -2.363  13.060  20.656  0.00  0.00    +0.000 A 
ATOM     11  N   UNL     1      -2.902  12.596  21.800  0.00  0.00    +0.000 NA
ATOM     12  N   UNL     1      -2.567  13.206  22.974  0.00  0.00    +0.000 NA
ATOM     13  C   UNL     1      -1.742  14.277  22.967  0.00  0.00    +0.000 A 
ATOM     14  N   UNL     1      -1.203  14.793  21.852  0.00  0.00    +0.000 NA
ATOM     15  C   UNL     1      -1.487  14.132  20.713  0.00  0.00    +0.000 A 
ATOM     16  O   UNL     1      -0.949  14.679  19.573  0.00  0.00    +0.000 OA
ATOM     17  C   UNL     1       0.008  13.843  18.868  0.00  0.00    +0.000 C 
ENDROOT
BRANCH  17  18
ATOM     18  C   UNL     1       1.424  14.242  19.259  0.00  0.00    +0.000 A 
ATOM     19  C   UNL     1       1.958  14.333  20.540  0.00  0.00    +0.000 A 
ATOM     20  C   UNL     1       3.354  14.649  20.542  0.00  0.00    +0.000 A 
ATOM     21  C   UNL     1       3.833  14.776  19.269  0.00  0.00    +0.000 A 
ATOM     22 BR   UNL     1       5.628  15.111  18.854  0.00  0.00    +0.000 Br
ATOM     23  S   UNL     1       2.639  14.599  18.093  0.00  0.00    +0.000 S 
ENDBRANCH  17  18
BRANCH   1  25
ATOM     24  C   UNL     1      -0.260   9.717  20.899  0.00  0.00    +0.000 C 
ATOM     25  C   UNL     1      -0.089  10.003  19.418  0.00  0.00    +0.000 C 
ENDBRANCH   1  25
BRANCH  13  26
ATOM     26  S   UNL     1      -1.373  15.013  24.541  0.00  0.00    +0.000 S 
ATOM     27  C   UNL     1      -3.035  15.166  25.239  0.00  0.00    +0.000 C 
ENDBRANCH  13  26
TORSDOF 3
ENDMDL
MODEL 8
REMARK VINA RESULT:      -5.7      1.180      1.452
REMARK  Name = 
REMARK  5 active torsions:
REMARK  status: ('A' for Active; 'I' for Inactive)
REMARK    1  A    between atoms: C_1  and  C_2
REMARK    2  A    between atoms: C_2  and  C_3
REMARK    3  A    between atoms: C_15  and  S_16
REMARK    4  A    between atoms: S_16  and  C_17
REMARK    5  A    between atoms: C_21  and  C_22
REMARK                            x       y       z     vdW  Elec       q    Type
REMARK                         _______ _______ _______ _____ _____    ______ ____
ROOT
ATOM      1  C   UNL     1       9.435  11.829  20.288  0.00  0.00    +0.000 C 
ATOM      2  O   UNL     1       9.199  11.011  21.174  0.00  0.00    +0.000 OA
ATOM      3  N   UNL     1       9.537  13.205  20.503  0.00  0.00    +0.000 N 
ATOM      4  C   UNL     1      10.067  14.058  19.488  0.00  0.00    +0.000 A 
ATOM      5  C   UNL     1      11.425  13.996  19.140  0.00  0.00    +0.000 A 
ATOM      6  C   UNL     1      11.896  14.730  18.052  0.00  0.00    +0.000 A 
ATOM      7  C   UNL     1      11.014  15.504  17.299  0.00  0.00    +0.000 A 
ATOM      8  C   UNL     1       9.664  15.573  17.652  0.00  0.00    +0.000 A 
ATOM      9  C   UNL     1       9.177  14.869  18.764  0.00  0.00    +0.000 A 
ATOM     10  C   UNL     1       7.775  14.918  19.154  0.00  0.00    +0.000 A 
ATOM     11  N   UNL     1       6.846  14.873  18.179  0.00  0.00    +0.000 NA
ATOM     12  N   UNL     1       5.528  14.886  18.533  0.00  0.00    +0.000 NA
ATOM     13  C   UNL     1       5.179  14.983  19.836  0.00  0.00    +0.000 A 
ATOM     14  N   UNL     1       6.067  15.058  20.839  0.00  0.00    +0.000 NA
ATOM     15  C   UNL     1       7.361  14.970  20.474  0.00  0.00    +0.000 A 
ATOM     16  O   UNL     1       8.264  15.070  21.506  0.00  0.00    +0.000 OA
ATOM     17  C   UNL     1       9.086  13.893  21.735  0.00  0.00    +0.000 C 
ENDROOT
BRANCH  17  18
ATOM     18  C   UNL     1       8.487  13.060  22.859  0.00  0.00    +0.000 A 
ATOM     19  C   UNL     1       9.117  12.618  24.017  0.00  0.00    +0.000 A 
ATOM     20  C   UNL     1       8.232  11.932  24.908  0.00  0.00    +0.000 A 
ATOM     21  C   UNL     1       6.963  11.885  24.403  0.00  0.00    +0.000 A 
ATOM     22 BR   UNL     1       5.503  11.138  25.308  0.00  0.00    +0.000 Br
ATOM     23  S   UNL     1       6.835  12.574  22.871  0.00  0.00    +0.000 S 
ENDBRANCH  17  18
BRANCH   1  25
ATOM     24  C   UNL     1       8.920  10.031  18.570  0.00  0.00    +0.000 C 
ATOM     25  C   UNL     1       9.595  11.364  18.837  0.00  0.00    +0.000 C 
ENDBRANCH   1  25
BRANCH  13  26
ATOM     26  S   UNL     1       3.441  15.005  20.200  0.00  0.00    +0.000 S 
ATOM     27  C   UNL     1       3.475  14.950  22.008  0.00  0.00    +0.000 C 
ENDBRANCH  13  26
TORSDOF 3
ENDMDL
MODEL 9
REMARK VINA RESULT:      -5.7      7.065     10.291
REMARK  Name = 
REMARK  5 active torsions:
REMARK  status: ('A' for Active; 'I' for Inactive)
REMARK    1  A    between atoms: C_1  and  C_2
REMARK    2  A    between atoms: C_2  and  C_3
REMARK    3  A    between atoms: C_15  and  S_16
REMARK    4  A    between atoms: S_16  and  C_17
REMARK    5  A    between atoms: C_21  and  C_22
REMARK                            x       y       z     vdW  Elec       q    Type
REMARK                         _______ _______ _______ _____ _____    ______ ____
ROOT
ATOM      1  C   UNL     1       0.318  11.071  19.137  0.00  0.00    +0.000 C 
ATOM      2  O   UNL     1       1.541  11.131  19.232  0.00  0.00    +0.000 OA
ATOM      3  N   UNL     1      -0.490  12.148  18.767  0.00  0.00    +0.000 N 
ATOM      4  C   UNL     1      -1.861  11.939  18.425  0.00  0.00    +0.000 A 
ATOM      5  C   UNL     1      -2.208  11.255  17.251  0.00  0.00    +0.000 A 
ATOM      6  C   UNL     1      -3.543  10.934  17.003  0.00  0.00    +0.000 A 
ATOM      7  C   UNL     1      -4.525  11.272  17.934  0.00  0.00    +0.000 A 
ATOM      8  C   UNL     1      -4.179  11.962  19.099  0.00  0.00    +0.000 A 
ATOM      9  C   UNL     1      -2.846  12.324  19.349  0.00  0.00    +0.000 A 
ATOM     10  C   UNL     1      -2.456  13.039  20.556  0.00  0.00    +0.000 A 
ATOM     11  N   UNL     1      -3.025  12.672  21.721  0.00  0.00    +0.000 NA
ATOM     12  N   UNL     1      -2.644  13.313  22.864  0.00  0.00    +0.000 NA
ATOM     13  C   UNL     1      -1.743  14.320  22.805  0.00  0.00    +0.000 A 
ATOM     14  N   UNL     1      -1.170  14.740  21.667  0.00  0.00    +0.000 NA
ATOM     15  C   UNL     1      -1.505  14.046  20.561  0.00  0.00    +0.000 A 
ATOM     16  O   UNL     1      -0.931  14.496  19.396  0.00  0.00    +0.000 OA
ATOM     17  C   UNL     1      -0.039  13.558  18.735  0.00  0.00    +0.000 C 
ENDROOT
BRANCH  17  18
ATOM     18  C   UNL     1       1.403  13.871  19.107  0.00  0.00    +0.000 A 
ATOM     19  C   UNL     1       2.461  14.154  18.249  0.00  0.00    +0.000 A 
ATOM     20  C   UNL     1       3.667  14.494  18.940  0.00  0.00    +0.000 A 
ATOM     21  C   UNL     1       3.482  14.469  20.293  0.00  0.00    +0.000 A 
ATOM     22 BR   UNL     1       4.804  14.929  21.539  0.00  0.00    +0.000 Br
ATOM     23  S   UNL     1       1.934  13.980  20.741  0.00  0.00    +0.000 S 
ENDBRANCH  17  18
BRANCH   1  25
ATOM     24  C   UNL     1      -0.239   9.352  20.922  0.00  0.00    +0.000 C 
ATOM     25  C   UNL     1      -0.415   9.767  19.472  0.00  0.00    +0.000 C 
ENDBRANCH   1  25
BRANCH  13  26
ATOM     26  S   UNL     1      -1.317  15.103  24.342  0.00  0.00    +0.000 S 
ATOM     27  C   UNL     1      -2.865  14.905  25.259  0.00  0.00    +0.000 C 
ENDBRANCH  13  26
TORSDOF 3
ENDMDL
