MODEL 1
REMARK VINA RESULT:      -8.7      0.000      0.000
REMARK  Name = 
REMARK  10 active torsions:
REMARK  status: ('A' for Active; 'I' for Inactive)
REMARK    1  A    between atoms: C_1  and  N_2
REMARK    2  A    between atoms: C_9  and  C_10
REMARK    3  A    between atoms: N_19  and  C_20
REMARK    4  A    between atoms: C_20  and  C_21
REMARK    5  A    between atoms: C_21  and  N_22
REMARK    6  A    between atoms: C_23  and  O_25
REMARK    7  A    between atoms: O_25  and  C_26
REMARK    8  A    between atoms: C_26  and  C_27
REMARK    9  A    between atoms: C_26  and  C_28
REMARK   10  A    between atoms: C_26  and  C_29
REMARK                            x       y       z     vdW  Elec       q    Type
REMARK                         _______ _______ _______ _____ _____    ______ ____
ROOT
ATOM      1  C   UNL     1       1.110   9.035  19.178  0.00  0.00    +0.000 A 
ATOM      2  C   UNL     1       0.593   9.737  18.082  0.00  0.00    +0.000 A 
ATOM      3  N   UNL     1      -0.313  10.736  18.141  0.00  0.00    +0.000 NA
ATOM      4  C   UNL     1      -0.753  11.074  19.379  0.00  0.00    +0.000 A 
ATOM      5  C   UNL     1      -0.343  10.488  20.581  0.00  0.00    +0.000 A 
ATOM      6  C   UNL     1       0.629   9.450  20.459  0.00  0.00    +0.000 A 
ATOM      7  C   UNL     1       1.126   8.770  21.724  0.00  0.00    +0.000 C 
ATOM      8  C   UNL     1       0.740   9.486  23.004  0.00  0.00    +0.000 C 
ATOM      9  C   UNL     1      -0.722   9.857  22.878  0.00  0.00    +0.000 C 
ATOM     10  N   UNL     1      -0.807  10.890  21.847  0.00  0.00    +0.000 N 
ENDROOT
BRANCH   1  19
ATOM     11  C   UNL     1       4.985   3.648  19.115  0.00  0.00    +0.000 C 
ATOM     12  N   UNL     1       5.038   4.879  18.340  0.00  0.00    +0.000 N 
ATOM     13  C   UNL     1       6.066   5.035  17.412  0.00  0.00    +0.000 C 
ATOM     14  O   UNL     1       6.935   4.185  17.212  0.00  0.00    +0.000 OA
ATOM     15  C   UNL     1       6.144   6.373  16.711  0.00  0.00    +0.000 C 
ATOM     16  C   UNL     1       4.766   6.911  16.395  0.00  0.00    +0.000 C 
ATOM     17  C   UNL     1       3.942   6.948  17.648  0.00  0.00    +0.000 A 
ATOM     18  C   UNL     1       3.001   7.976  17.863  0.00  0.00    +0.000 A 
ATOM     19  C   UNL     1       2.102   7.945  18.947  0.00  0.00    +0.000 A 
ATOM     20  C   UNL     1       2.170   6.811  19.769  0.00  0.00    +0.000 A 
ATOM     21  C   UNL     1       3.146   5.822  19.607  0.00  0.00    +0.000 A 
ATOM     22  C   UNL     1       4.047   5.881  18.548  0.00  0.00    +0.000 A 
ENDBRANCH   1  19
BRANCH  10  23
ATOM     23  C   UNL     1      -1.717  12.033  22.048  0.00  0.00    +0.000 C 
BRANCH  23  24
ATOM     24  C   UNL     1      -2.163  12.188  23.518  0.00  0.00    +0.000 C 
BRANCH  24  25
ATOM     25  N   UNL     1      -3.553  11.851  23.740  0.00  0.00    +0.000 N 
ATOM     26  C   UNL     1      -4.444  12.827  24.090  0.00  0.00    +0.000 C 
ATOM     27  O   UNL     1      -4.118  13.984  24.314  0.00  0.00    +0.000 OA
ATOM     28  H   UNL     1      -3.914  10.929  23.543  0.00  0.00    +0.000 HD
BRANCH  26  29
ATOM     29  O   UNL     1      -5.698  12.322  24.153  0.00  0.00    +0.000 OA
BRANCH  29  30
ATOM     30  C   UNL     1      -6.739  12.934  23.344  0.00  0.00    +0.000 C 
ATOM     31  C   UNL     1      -6.212  13.309  21.952  0.00  0.00    +0.000 C 
ATOM     32  C   UNL     1      -7.831  11.872  23.176  0.00  0.00    +0.000 C 
ATOM     33  C   UNL     1      -7.354  14.136  24.074  0.00  0.00    +0.000 C 
ENDBRANCH  29  30
ENDBRANCH  26  29
ENDBRANCH  24  25
ENDBRANCH  23  24
ENDBRANCH  10  23
TORSDOF 6
ENDMDL
MODEL 2
REMARK VINA RESULT:      -8.5      1.905      3.387
REMARK  Name = 
REMARK  10 active torsions:
REMARK  status: ('A' for Active; 'I' for Inactive)
REMARK    1  A    between atoms: C_1  and  N_2
REMARK    2  A    between atoms: C_9  and  C_10
REMARK    3  A    between atoms: N_19  and  C_20
REMARK    4  A    between atoms: C_20  and  C_21
REMARK    5  A    between atoms: C_21  and  N_22
REMARK    6  A    between atoms: C_23  and  O_25
REMARK    7  A    between atoms: O_25  and  C_26
REMARK    8  A    between atoms: C_26  and  C_27
REMARK    9  A    between atoms: C_26  and  C_28
REMARK   10  A    between atoms: C_26  and  C_29
REMARK                            x       y       z     vdW  Elec       q    Type
REMARK                         _______ _______ _______ _____ _____    ______ ____
ROOT
ATOM      1  C   UNL     1       0.854   8.772  20.885  0.00  0.00    +0.000 A 
ATOM      2  C   UNL     1       0.928   9.082  22.249  0.00  0.00    +0.000 A 
ATOM      3  N   UNL     1       0.328  10.129  22.854  0.00  0.00    +0.000 NA
ATOM      4  C   UNL     1      -0.404  10.945  22.054  0.00  0.00    +0.000 A 
ATOM      5  C   UNL     1      -0.593  10.785  20.677  0.00  0.00    +0.000 A 
ATOM      6  C   UNL     1       0.050   9.652  20.096  0.00  0.00    +0.000 A 
ATOM      7  C   UNL     1      -0.115   9.411  18.604  0.00  0.00    +0.000 C 
ATOM      8  C   UNL     1      -1.198  10.253  17.957  0.00  0.00    +0.000 C 
ATOM      9  C   UNL     1      -1.027  11.665  18.473  0.00  0.00    +0.000 C 
ATOM     10  N   UNL     1      -1.385  11.642  19.890  0.00  0.00    +0.000 N 
ENDROOT
BRANCH   1  19
ATOM     11  C   UNL     1       4.605   4.265  17.776  0.00  0.00    +0.000 C 
ATOM     12  N   UNL     1       3.588   4.123  18.808  0.00  0.00    +0.000 N 
ATOM     13  C   UNL     1       3.281   2.843  19.264  0.00  0.00    +0.000 C 
ATOM     14  O   UNL     1       3.824   1.821  18.839  0.00  0.00    +0.000 OA
ATOM     15  C   UNL     1       2.144   2.734  20.256  0.00  0.00    +0.000 C 
ATOM     16  C   UNL     1       2.151   3.891  21.231  0.00  0.00    +0.000 C 
ATOM     17  C   UNL     1       2.153   5.186  20.472  0.00  0.00    +0.000 A 
ATOM     18  C   UNL     1       1.466   6.314  20.968  0.00  0.00    +0.000 A 
ATOM     19  C   UNL     1       1.586   7.580  20.365  0.00  0.00    +0.000 A 
ATOM     20  C   UNL     1       2.464   7.661  19.275  0.00  0.00    +0.000 A 
ATOM     21  C   UNL     1       3.094   6.537  18.732  0.00  0.00    +0.000 A 
ATOM     22  C   UNL     1       2.942   5.285  19.322  0.00  0.00    +0.000 A 
ENDBRANCH   1  19
BRANCH  10  23
ATOM     23  C   UNL     1      -2.171  12.758  20.451  0.00  0.00    +0.000 C 
BRANCH  23  24
ATOM     24  C   UNL     1      -3.651  12.720  20.018  0.00  0.00    +0.000 C 
BRANCH  24  25
ATOM     25  N   UNL     1      -4.497  13.627  20.765  0.00  0.00    +0.000 N 
ATOM     26  C   UNL     1      -5.605  13.151  21.408  0.00  0.00    +0.000 C 
ATOM     27  O   UNL     1      -5.985  11.992  21.322  0.00  0.00    +0.000 OA
ATOM     28  H   UNL     1      -4.238  14.591  20.918  0.00  0.00    +0.000 HD
BRANCH  26  29
ATOM     29  O   UNL     1      -6.197  14.136  22.124  0.00  0.00    +0.000 OA
BRANCH  29  30
ATOM     30  C   UNL     1      -6.086  14.109  23.573  0.00  0.00    +0.000 C 
ATOM     31  C   UNL     1      -4.878  13.276  24.023  0.00  0.00    +0.000 C 
ATOM     32  C   UNL     1      -5.861  15.560  24.012  0.00  0.00    +0.000 C 
ATOM     33  C   UNL     1      -7.396  13.620  24.206  0.00  0.00    +0.000 C 
ENDBRANCH  29  30
ENDBRANCH  26  29
ENDBRANCH  24  25
ENDBRANCH  23  24
ENDBRANCH  10  23
TORSDOF 6
ENDMDL
MODEL 3
REMARK VINA RESULT:      -8.5      1.420      2.239
REMARK  Name = 
REMARK  10 active torsions:
REMARK  status: ('A' for Active; 'I' for Inactive)
REMARK    1  A    between atoms: C_1  and  N_2
REMARK    2  A    between atoms: C_9  and  C_10
REMARK    3  A    between atoms: N_19  and  C_20
REMARK    4  A    between atoms: C_20  and  C_21
REMARK    5  A    between atoms: C_21  and  N_22
REMARK    6  A    between atoms: C_23  and  O_25
REMARK    7  A    between atoms: O_25  and  C_26
REMARK    8  A    between atoms: C_26  and  C_27
REMARK    9  A    between atoms: C_26  and  C_28
REMARK   10  A    between atoms: C_26  and  C_29
REMARK                            x       y       z     vdW  Elec       q    Type
REMARK                         _______ _______ _______ _____ _____    ______ ____
ROOT
ATOM      1  C   UNL     1       1.076   9.258  19.599  0.00  0.00    +0.000 A 
ATOM      2  C   UNL     1       0.903  10.143  18.529  0.00  0.00    +0.000 A 
ATOM      3  N   UNL     1       0.263  11.331  18.582  0.00  0.00    +0.000 NA
ATOM      4  C   UNL     1      -0.256  11.679  19.787  0.00  0.00    +0.000 A 
ATOM      5  C   UNL     1      -0.172  10.925  20.961  0.00  0.00    +0.000 A 
ATOM      6  C   UNL     1       0.531   9.688  20.849  0.00  0.00    +0.000 A 
ATOM      7  C   UNL     1       0.666   8.816  22.087  0.00  0.00    +0.000 C 
ATOM      8  C   UNL     1       0.284   9.512  23.379  0.00  0.00    +0.000 C 
ATOM      9  C   UNL     1      -1.013  10.246  23.119  0.00  0.00    +0.000 C 
ATOM     10  N   UNL     1      -0.702  11.338  22.197  0.00  0.00    +0.000 N 
ENDROOT
BRANCH   1  19
ATOM     11  C   UNL     1       4.828   4.135  17.668  0.00  0.00    +0.000 C 
ATOM     12  N   UNL     1       3.789   4.238  18.682  0.00  0.00    +0.000 N 
ATOM     13  C   UNL     1       3.457   3.095  19.408  0.00  0.00    +0.000 C 
ATOM     14  O   UNL     1       3.995   2.000  19.236  0.00  0.00    +0.000 OA
ATOM     15  C   UNL     1       2.299   3.223  20.373  0.00  0.00    +0.000 C 
ATOM     16  C   UNL     1       2.302   4.570  21.063  0.00  0.00    +0.000 C 
ATOM     17  C   UNL     1       2.335   5.660  20.032  0.00  0.00    +0.000 A 
ATOM     18  C   UNL     1       1.654   6.876  20.246  0.00  0.00    +0.000 A 
ATOM     19  C   UNL     1       1.802   7.973  19.377  0.00  0.00    +0.000 A 
ATOM     20  C   UNL     1       2.703   7.799  18.316  0.00  0.00    +0.000 A 
ATOM     21  C   UNL     1       3.329   6.576  18.055  0.00  0.00    +0.000 A 
ATOM     22  C   UNL     1       3.149   5.490  18.907  0.00  0.00    +0.000 A 
ENDBRANCH   1  19
BRANCH  10  23
ATOM     23  C   UNL     1      -1.332  12.655  22.406  0.00  0.00    +0.000 C 
BRANCH  23  24
ATOM     24  C   UNL     1      -2.473  12.613  23.444  0.00  0.00    +0.000 C 
BRANCH  24  25
ATOM     25  N   UNL     1      -3.736  12.163  22.899  0.00  0.00    +0.000 N 
ATOM     26  C   UNL     1      -4.601  13.067  22.348  0.00  0.00    +0.000 C 
ATOM     27  O   UNL     1      -4.408  14.275  22.360  0.00  0.00    +0.000 OA
ATOM     28  H   UNL     1      -3.959  11.182  22.815  0.00  0.00    +0.000 HD
BRANCH  26  29
ATOM     29  O   UNL     1      -5.670  12.433  21.812  0.00  0.00    +0.000 OA
BRANCH  29  30
ATOM     30  C   UNL     1      -6.989  12.703  22.359  0.00  0.00    +0.000 C 
ATOM     31  C   UNL     1      -7.569  14.007  21.792  0.00  0.00    +0.000 C 
ATOM     32  C   UNL     1      -7.884  11.543  21.912  0.00  0.00    +0.000 C 
ATOM     33  C   UNL     1      -6.948  12.707  23.893  0.00  0.00    +0.000 C 
ENDBRANCH  29  30
ENDBRANCH  26  29
ENDBRANCH  24  25
ENDBRANCH  23  24
ENDBRANCH  10  23
TORSDOF 6
ENDMDL
MODEL 4
REMARK VINA RESULT:      -8.4      1.572      2.482
REMARK  Name = 
REMARK  10 active torsions:
REMARK  status: ('A' for Active; 'I' for Inactive)
REMARK    1  A    between atoms: C_1  and  N_2
REMARK    2  A    between atoms: C_9  and  C_10
REMARK    3  A    between atoms: N_19  and  C_20
REMARK    4  A    between atoms: C_20  and  C_21
REMARK    5  A    between atoms: C_21  and  N_22
REMARK    6  A    between atoms: C_23  and  O_25
REMARK    7  A    between atoms: O_25  and  C_26
REMARK    8  A    between atoms: C_26  and  C_27
REMARK    9  A    between atoms: C_26  and  C_28
REMARK   10  A    between atoms: C_26  and  C_29
REMARK                            x       y       z     vdW  Elec       q    Type
REMARK                         _______ _______ _______ _____ _____    ______ ____
ROOT
ATOM      1  C   UNL     1       1.062   9.246  19.588  0.00  0.00    +0.000 A 
ATOM      2  C   UNL     1       0.859  10.110  18.506  0.00  0.00    +0.000 A 
ATOM      3  N   UNL     1       0.201  11.288  18.549  0.00  0.00    +0.000 NA
ATOM      4  C   UNL     1      -0.305  11.649  19.755  0.00  0.00    +0.000 A 
ATOM      5  C   UNL     1      -0.192  10.916  20.941  0.00  0.00    +0.000 A 
ATOM      6  C   UNL     1       0.529   9.688  20.839  0.00  0.00    +0.000 A 
ATOM      7  C   UNL     1       0.697   8.840  22.089  0.00  0.00    +0.000 C 
ATOM      8  C   UNL     1       0.324   9.552  23.375  0.00  0.00    +0.000 C 
ATOM      9  C   UNL     1      -0.989  10.261  23.122  0.00  0.00    +0.000 C 
ATOM     10  N   UNL     1      -0.709  11.342  22.178  0.00  0.00    +0.000 N 
ENDROOT
BRANCH   1  19
ATOM     11  C   UNL     1       4.887   4.160  17.703  0.00  0.00    +0.000 C 
ATOM     12  N   UNL     1       3.841   4.254  18.711  0.00  0.00    +0.000 N 
ATOM     13  C   UNL     1       3.518   3.112  19.440  0.00  0.00    +0.000 C 
ATOM     14  O   UNL     1       4.071   2.022  19.276  0.00  0.00    +0.000 OA
ATOM     15  C   UNL     1       2.353   3.230  20.398  0.00  0.00    +0.000 C 
ATOM     16  C   UNL     1       2.335   4.579  21.081  0.00  0.00    +0.000 C 
ATOM     17  C   UNL     1       2.362   5.665  20.046  0.00  0.00    +0.000 A 
ATOM     18  C   UNL     1       1.664   6.874  20.250  0.00  0.00    +0.000 A 
ATOM     19  C   UNL     1       1.805   7.969  19.376  0.00  0.00    +0.000 A 
ATOM     20  C   UNL     1       2.714   7.800  18.321  0.00  0.00    +0.000 A 
ATOM     21  C   UNL     1       3.356   6.584  18.070  0.00  0.00    +0.000 A 
ATOM     22  C   UNL     1       3.184   5.500  18.926  0.00  0.00    +0.000 A 
ENDBRANCH   1  19
BRANCH  10  23
ATOM     23  C   UNL     1      -1.356  12.653  22.375  0.00  0.00    +0.000 C 
BRANCH  23  24
ATOM     24  C   UNL     1      -2.415  12.632  23.497  0.00  0.00    +0.000 C 
BRANCH  24  25
ATOM     25  N   UNL     1      -3.712  12.159  23.061  0.00  0.00    +0.000 N 
ATOM     26  C   UNL     1      -4.676  13.055  22.692  0.00  0.00    +0.000 C 
ATOM     27  O   UNL     1      -4.537  14.267  22.786  0.00  0.00    +0.000 OA
ATOM     28  H   UNL     1      -3.899  11.177  22.919  0.00  0.00    +0.000 HD
BRANCH  26  29
ATOM     29  O   UNL     1      -5.771  12.409  22.227  0.00  0.00    +0.000 OA
BRANCH  29  30
ATOM     30  C   UNL     1      -6.063  12.462  20.805  0.00  0.00    +0.000 C 
ATOM     31  C   UNL     1      -6.810  11.204  20.343  0.00  0.00    +0.000 C 
ATOM     32  C   UNL     1      -6.984  13.670  20.602  0.00  0.00    +0.000 C 
ATOM     33  C   UNL     1      -4.780  12.703  19.998  0.00  0.00    +0.000 C 
ENDBRANCH  29  30
ENDBRANCH  26  29
ENDBRANCH  24  25
ENDBRANCH  23  24
ENDBRANCH  10  23
TORSDOF 6
ENDMDL
MODEL 5
REMARK VINA RESULT:      -8.4      1.818      3.167
REMARK  Name = 
REMARK  10 active torsions:
REMARK  status: ('A' for Active; 'I' for Inactive)
REMARK    1  A    between atoms: C_1  and  N_2
REMARK    2  A    between atoms: C_9  and  C_10
REMARK    3  A    between atoms: N_19  and  C_20
REMARK    4  A    between atoms: C_20  and  C_21
REMARK    5  A    between atoms: C_21  and  N_22
REMARK    6  A    between atoms: C_23  and  O_25
REMARK    7  A    between atoms: O_25  and  C_26
REMARK    8  A    between atoms: C_26  and  C_27
REMARK    9  A    between atoms: C_26  and  C_28
REMARK   10  A    between atoms: C_26  and  C_29
REMARK                            x       y       z     vdW  Elec       q    Type
REMARK                         _______ _______ _______ _____ _____    ______ ____
ROOT
ATOM      1  C   UNL     1       0.957   8.846  20.825  0.00  0.00    +0.000 A 
ATOM      2  C   UNL     1       1.124   9.076  22.196  0.00  0.00    +0.000 A 
ATOM      3  N   UNL     1       0.596  10.105  22.894  0.00  0.00    +0.000 NA
ATOM      4  C   UNL     1      -0.157  10.985  22.187  0.00  0.00    +0.000 A 
ATOM      5  C   UNL     1      -0.435  10.909  20.818  0.00  0.00    +0.000 A 
ATOM      6  C   UNL     1       0.134   9.792  20.136  0.00  0.00    +0.000 A 
ATOM      7  C   UNL     1      -0.129   9.640  18.647  0.00  0.00    +0.000 C 
ATOM      8  C   UNL     1      -1.222  10.549  18.117  0.00  0.00    +0.000 C 
ATOM      9  C   UNL     1      -0.974  11.924  18.697  0.00  0.00    +0.000 C 
ATOM     10  N   UNL     1      -1.245  11.831  20.131  0.00  0.00    +0.000 N 
ENDROOT
BRANCH   1  19
ATOM     11  C   UNL     1       4.304   4.405  17.204  0.00  0.00    +0.000 C 
ATOM     12  N   UNL     1       3.403   4.240  18.335  0.00  0.00    +0.000 N 
ATOM     13  C   UNL     1       3.134   2.949  18.785  0.00  0.00    +0.000 C 
ATOM     14  O   UNL     1       3.618   1.936  18.276  0.00  0.00    +0.000 OA
ATOM     15  C   UNL     1       2.109   2.820  19.890  0.00  0.00    +0.000 C 
ATOM     16  C   UNL     1       2.232   3.948  20.891  0.00  0.00    +0.000 C 
ATOM     17  C   UNL     1       2.166   5.264  20.173  0.00  0.00    +0.000 A 
ATOM     18  C   UNL     1       1.548   6.382  20.771  0.00  0.00    +0.000 A 
ATOM     19  C   UNL     1       1.615   7.664  20.195  0.00  0.00    +0.000 A 
ATOM     20  C   UNL     1       2.372   7.770  19.019  0.00  0.00    +0.000 A 
ATOM     21  C   UNL     1       2.929   6.658  18.381  0.00  0.00    +0.000 A 
ATOM     22  C   UNL     1       2.828   5.390  18.947  0.00  0.00    +0.000 A 
ENDBRANCH   1  19
BRANCH  10  23
ATOM     23  C   UNL     1      -1.958  12.936  20.799  0.00  0.00    +0.000 C 
BRANCH  23  24
ATOM     24  C   UNL     1      -3.475  12.925  20.515  0.00  0.00    +0.000 C 
BRANCH  24  25
ATOM     25  N   UNL     1      -4.223  13.860  21.328  0.00  0.00    +0.000 N 
ATOM     26  C   UNL     1      -4.910  13.414  22.422  0.00  0.00    +0.000 C 
ATOM     27  O   UNL     1      -5.003  12.231  22.721  0.00  0.00    +0.000 OA
ATOM     28  H   UNL     1      -4.172  14.856  21.175  0.00  0.00    +0.000 HD
BRANCH  26  29
ATOM     29  O   UNL     1      -5.457  14.454  23.095  0.00  0.00    +0.000 OA
BRANCH  29  30
ATOM     30  C   UNL     1      -6.892  14.662  23.011  0.00  0.00    +0.000 C 
ATOM     31  C   UNL     1      -7.441  14.212  21.650  0.00  0.00    +0.000 C 
ATOM     32  C   UNL     1      -7.517  13.780  24.097  0.00  0.00    +0.000 C 
ATOM     33  C   UNL     1      -7.246  16.122  23.324  0.00  0.00    +0.000 C 
ENDBRANCH  29  30
ENDBRANCH  26  29
ENDBRANCH  24  25
ENDBRANCH  23  24
ENDBRANCH  10  23
TORSDOF 6
ENDMDL
MODEL 6
REMARK VINA RESULT:      -8.4      1.836      3.261
REMARK  Name = 
REMARK  10 active torsions:
REMARK  status: ('A' for Active; 'I' for Inactive)
REMARK    1  A    between atoms: C_1  and  N_2
REMARK    2  A    between atoms: C_9  and  C_10
REMARK    3  A    between atoms: N_19  and  C_20
REMARK    4  A    between atoms: C_20  and  C_21
REMARK    5  A    between atoms: C_21  and  N_22
REMARK    6  A    between atoms: C_23  and  O_25
REMARK    7  A    between atoms: O_25  and  C_26
REMARK    8  A    between atoms: C_26  and  C_27
REMARK    9  A    between atoms: C_26  and  C_28
REMARK   10  A    between atoms: C_26  and  C_29
REMARK                            x       y       z     vdW  Elec       q    Type
REMARK                         _______ _______ _______ _____ _____    ______ ____
ROOT
ATOM      1  C   UNL     1       0.648   9.887  19.985  0.00  0.00    +0.000 A 
ATOM      2  C   UNL     1       0.987  10.447  21.223  0.00  0.00    +0.000 A 
ATOM      3  N   UNL     1       0.287  11.399  21.877  0.00  0.00    +0.000 NA
ATOM      4  C   UNL     1      -0.838  11.844  21.262  0.00  0.00    +0.000 A 
ATOM      5  C   UNL     1      -1.330  11.396  20.032  0.00  0.00    +0.000 A 
ATOM      6  C   UNL     1      -0.560  10.376  19.397  0.00  0.00    +0.000 A 
ATOM      7  C   UNL     1      -1.036   9.836  18.058  0.00  0.00    +0.000 C 
ATOM      8  C   UNL     1      -2.450  10.244  17.694  0.00  0.00    +0.000 C 
ATOM      9  C   UNL     1      -2.573  11.723  17.990  0.00  0.00    +0.000 C 
ATOM     10  N   UNL     1      -2.518  11.867  19.445  0.00  0.00    +0.000 N 
ENDROOT
BRANCH   1  19
ATOM     11  C   UNL     1       4.807   6.103  16.460  0.00  0.00    +0.000 C 
ATOM     12  N   UNL     1       3.979   5.800  17.618  0.00  0.00    +0.000 N 
ATOM     13  C   UNL     1       3.997   4.502  18.124  0.00  0.00    +0.000 C 
ATOM     14  O   UNL     1       4.677   3.593  17.642  0.00  0.00    +0.000 OA
ATOM     15  C   UNL     1       3.039   4.207  19.258  0.00  0.00    +0.000 C 
ATOM     16  C   UNL     1       2.936   5.377  20.210  0.00  0.00    +0.000 C 
ATOM     17  C   UNL     1       2.581   6.617  19.444  0.00  0.00    +0.000 A 
ATOM     18  C   UNL     1       1.748   7.604  20.013  0.00  0.00    +0.000 A 
ATOM     19  C   UNL     1       1.533   8.846  19.386  0.00  0.00    +0.000 A 
ATOM     20  C   UNL     1       2.233   9.059  18.189  0.00  0.00    +0.000 A 
ATOM     21  C   UNL     1       3.003   8.063  17.581  0.00  0.00    +0.000 A 
ATOM     22  C   UNL     1       3.182   6.828  18.199  0.00  0.00    +0.000 A 
ENDBRANCH   1  19
BRANCH  10  23
ATOM     23  C   UNL     1      -3.420  12.829  20.105  0.00  0.00    +0.000 C 
BRANCH  23  24
ATOM     24  C   UNL     1      -4.899  12.628  19.711  0.00  0.00    +0.000 C 
BRANCH  24  25
ATOM     25  N   UNL     1      -5.831  13.276  20.609  0.00  0.00    +0.000 N 
ATOM     26  C   UNL     1      -6.694  12.524  21.355  0.00  0.00    +0.000 C 
ATOM     27  O   UNL     1      -6.789  11.309  21.250  0.00  0.00    +0.000 OA
ATOM     28  H   UNL     1      -5.796  14.270  20.783  0.00  0.00    +0.000 HD
BRANCH  26  29
ATOM     29  O   UNL     1      -7.406  13.313  22.194  0.00  0.00    +0.000 OA
BRANCH  29  30
ATOM     30  C   UNL     1      -6.778  13.772  23.422  0.00  0.00    +0.000 C 
ATOM     31  C   UNL     1      -6.065  15.115  23.212  0.00  0.00    +0.000 C 
ATOM     32  C   UNL     1      -7.913  13.982  24.430  0.00  0.00    +0.000 C 
ATOM     33  C   UNL     1      -5.837  12.698  23.983  0.00  0.00    +0.000 C 
ENDBRANCH  29  30
ENDBRANCH  26  29
ENDBRANCH  24  25
ENDBRANCH  23  24
ENDBRANCH  10  23
TORSDOF 6
ENDMDL
MODEL 7
REMARK VINA RESULT:      -8.4      3.224      5.424
REMARK  Name = 
REMARK  10 active torsions:
REMARK  status: ('A' for Active; 'I' for Inactive)
REMARK    1  A    between atoms: C_1  and  N_2
REMARK    2  A    between atoms: C_9  and  C_10
REMARK    3  A    between atoms: N_19  and  C_20
REMARK    4  A    between atoms: C_20  and  C_21
REMARK    5  A    between atoms: C_21  and  N_22
REMARK    6  A    between atoms: C_23  and  O_25
REMARK    7  A    between atoms: O_25  and  C_26
REMARK    8  A    between atoms: C_26  and  C_27
REMARK    9  A    between atoms: C_26  and  C_28
REMARK   10  A    between atoms: C_26  and  C_29
REMARK                            x       y       z     vdW  Elec       q    Type
REMARK                         _______ _______ _______ _____ _____    ______ ____
ROOT
ATOM      1  C   UNL     1       0.765   9.083  20.829  0.00  0.00    +0.000 A 
ATOM      2  C   UNL     1       0.959   9.318  22.195  0.00  0.00    +0.000 A 
ATOM      3  N   UNL     1       0.392  10.309  22.915  0.00  0.00    +0.000 NA
ATOM      4  C   UNL     1      -0.433  11.146  22.236  0.00  0.00    +0.000 A 
ATOM      5  C   UNL     1      -0.747  11.059  20.876  0.00  0.00    +0.000 A 
ATOM      6  C   UNL     1      -0.133   9.981  20.171  0.00  0.00    +0.000 A 
ATOM      7  C   UNL     1      -0.431   9.820  18.689  0.00  0.00    +0.000 C 
ATOM      8  C   UNL     1      -1.592  10.663  18.197  0.00  0.00    +0.000 C 
ATOM      9  C   UNL     1      -1.409  12.048  18.777  0.00  0.00    +0.000 C 
ATOM     10  N   UNL     1      -1.631  11.933  20.218  0.00  0.00    +0.000 N 
ENDROOT
BRANCH   1  19
ATOM     11  C   UNL     1       4.277   4.871  17.092  0.00  0.00    +0.000 C 
ATOM     12  N   UNL     1       3.409   4.645  18.238  0.00  0.00    +0.000 N 
ATOM     13  C   UNL     1       3.221   3.336  18.678  0.00  0.00    +0.000 C 
ATOM     14  O   UNL     1       3.749   2.358  18.147  0.00  0.00    +0.000 OA
ATOM     15  C   UNL     1       2.226   3.140  19.802  0.00  0.00    +0.000 C 
ATOM     16  C   UNL     1       2.308   4.263  20.813  0.00  0.00    +0.000 C 
ATOM     17  C   UNL     1       2.155   5.580  20.112  0.00  0.00    +0.000 A 
ATOM     18  C   UNL     1       1.489   6.656  20.735  0.00  0.00    +0.000 A 
ATOM     19  C   UNL     1       1.475   7.947  20.173  0.00  0.00    +0.000 A 
ATOM     20  C   UNL     1       2.201   8.106  18.983  0.00  0.00    +0.000 A 
ATOM     21  C   UNL     1       2.805   7.033  18.321  0.00  0.00    +0.000 A 
ATOM     22  C   UNL     1       2.785   5.756  18.875  0.00  0.00    +0.000 A 
ENDBRANCH   1  19
BRANCH  10  23
ATOM     23  C   UNL     1      -2.390  12.990  20.914  0.00  0.00    +0.000 C 
BRANCH  23  24
ATOM     24  C   UNL     1      -1.903  14.409  20.554  0.00  0.00    +0.000 C 
BRANCH  24  25
ATOM     25  N   UNL     1      -0.479  14.598  20.737  0.00  0.00    +0.000 N 
ATOM     26  C   UNL     1       0.269  15.155  19.738  0.00  0.00    +0.000 C 
ATOM     27  O   UNL     1      -0.184  15.436  18.638  0.00  0.00    +0.000 OA
ATOM     28  H   UNL     1      -0.031  14.427  21.626  0.00  0.00    +0.000 HD
BRANCH  26  29
ATOM     29  O   UNL     1       1.548  15.332  20.147  0.00  0.00    +0.000 OA
BRANCH  29  30
ATOM     30  C   UNL     1       2.585  14.485  19.583  0.00  0.00    +0.000 C 
ATOM     31  C   UNL     1       3.043  15.004  18.213  0.00  0.00    +0.000 C 
ATOM     32  C   UNL     1       3.772  14.561  20.549  0.00  0.00    +0.000 C 
ATOM     33  C   UNL     1       2.116  13.025  19.522  0.00  0.00    +0.000 C 
ENDBRANCH  29  30
ENDBRANCH  26  29
ENDBRANCH  24  25
ENDBRANCH  23  24
ENDBRANCH  10  23
TORSDOF 6
ENDMDL
MODEL 8
REMARK VINA RESULT:      -8.3      1.879      3.271
REMARK  Name = 
REMARK  10 active torsions:
REMARK  status: ('A' for Active; 'I' for Inactive)
REMARK    1  A    between atoms: C_1  and  N_2
REMARK    2  A    between atoms: C_9  and  C_10
REMARK    3  A    between atoms: N_19  and  C_20
REMARK    4  A    between atoms: C_20  and  C_21
REMARK    5  A    between atoms: C_21  and  N_22
REMARK    6  A    between atoms: C_23  and  O_25
REMARK    7  A    between atoms: O_25  and  C_26
REMARK    8  A    between atoms: C_26  and  C_27
REMARK    9  A    between atoms: C_26  and  C_28
REMARK   10  A    between atoms: C_26  and  C_29
REMARK                            x       y       z     vdW  Elec       q    Type
REMARK                         _______ _______ _______ _____ _____    ______ ____
ROOT
ATOM      1  C   UNL     1       1.000   8.674  20.892  0.00  0.00    +0.000 A 
ATOM      2  C   UNL     1       1.141   8.870  22.271  0.00  0.00    +0.000 A 
ATOM      3  N   UNL     1       0.647   9.910  22.976  0.00  0.00    +0.000 NA
ATOM      4  C   UNL     1      -0.041  10.842  22.267  0.00  0.00    +0.000 A 
ATOM      5  C   UNL     1      -0.285  10.805  20.891  0.00  0.00    +0.000 A 
ATOM      6  C   UNL     1       0.245   9.674  20.201  0.00  0.00    +0.000 A 
ATOM      7  C   UNL     1       0.015   9.564  18.703  0.00  0.00    +0.000 C 
ATOM      8  C   UNL     1      -1.016  10.537  18.162  0.00  0.00    +0.000 C 
ATOM      9  C   UNL     1      -0.714  11.886  18.776  0.00  0.00    +0.000 C 
ATOM     10  N   UNL     1      -1.028  11.781  20.201  0.00  0.00    +0.000 N 
ENDROOT
BRANCH   1  19
ATOM     11  C   UNL     1       4.243   4.140  17.291  0.00  0.00    +0.000 C 
ATOM     12  N   UNL     1       3.278   3.999  18.371  0.00  0.00    +0.000 N 
ATOM     13  C   UNL     1       2.908   2.715  18.765  0.00  0.00    +0.000 C 
ATOM     14  O   UNL     1       3.353   1.690  18.246  0.00  0.00    +0.000 OA
ATOM     15  C   UNL     1       1.823   2.618  19.815  0.00  0.00    +0.000 C 
ATOM     16  C   UNL     1       1.966   3.706  20.857  0.00  0.00    +0.000 C 
ATOM     17  C   UNL     1       2.017   5.044  20.181  0.00  0.00    +0.000 A 
ATOM     18  C   UNL     1       1.440   6.181  20.785  0.00  0.00    +0.000 A 
ATOM     19  C   UNL     1       1.615   7.473  20.256  0.00  0.00    +0.000 A 
ATOM     20  C   UNL     1       2.434   7.566  19.121  0.00  0.00    +0.000 A 
ATOM     21  C   UNL     1       2.952   6.440  18.474  0.00  0.00    +0.000 A 
ATOM     22  C   UNL     1       2.746   5.165  18.993  0.00  0.00    +0.000 A 
ENDBRANCH   1  19
BRANCH  10  23
ATOM     23  C   UNL     1      -1.703  12.908  20.873  0.00  0.00    +0.000 C 
BRANCH  23  24
ATOM     24  C   UNL     1      -3.022  13.310  20.181  0.00  0.00    +0.000 C 
BRANCH  24  25
ATOM     25  N   UNL     1      -4.206  12.882  20.896  0.00  0.00    +0.000 N 
ATOM     26  C   UNL     1      -5.041  13.812  21.450  0.00  0.00    +0.000 C 
ATOM     27  O   UNL     1      -4.804  15.011  21.451  0.00  0.00    +0.000 OA
ATOM     28  H   UNL     1      -4.496  11.915  20.912  0.00  0.00    +0.000 HD
BRANCH  26  29
ATOM     29  O   UNL     1      -6.131  13.211  21.983  0.00  0.00    +0.000 OA
BRANCH  29  30
ATOM     30  C   UNL     1      -6.332  13.278  23.421  0.00  0.00    +0.000 C 
ATOM     31  C   UNL     1      -6.815  14.671  23.849  0.00  0.00    +0.000 C 
ATOM     32  C   UNL     1      -7.435  12.265  23.747  0.00  0.00    +0.000 C 
ATOM     33  C   UNL     1      -5.061  12.852  24.166  0.00  0.00    +0.000 C 
ENDBRANCH  29  30
ENDBRANCH  26  29
ENDBRANCH  24  25
ENDBRANCH  23  24
ENDBRANCH  10  23
TORSDOF 6
ENDMDL
MODEL 9
REMARK VINA RESULT:      -8.3      2.281      3.327
REMARK  Name = 
REMARK  10 active torsions:
REMARK  status: ('A' for Active; 'I' for Inactive)
REMARK    1  A    between atoms: C_1  and  N_2
REMARK    2  A    between atoms: C_9  and  C_10
REMARK    3  A    between atoms: N_19  and  C_20
REMARK    4  A    between atoms: C_20  and  C_21
REMARK    5  A    between atoms: C_21  and  N_22
REMARK    6  A    between atoms: C_23  and  O_25
REMARK    7  A    between atoms: O_25  and  C_26
REMARK    8  A    between atoms: C_26  and  C_27
REMARK    9  A    between atoms: C_26  and  C_28
REMARK   10  A    between atoms: C_26  and  C_29
REMARK                            x       y       z     vdW  Elec       q    Type
REMARK                         _______ _______ _______ _____ _____    ______ ____
ROOT
ATOM      1  C   UNL     1       0.746   8.975  21.177  0.00  0.00    +0.000 A 
ATOM      2  C   UNL     1       0.781   8.995  22.576  0.00  0.00    +0.000 A 
ATOM      3  N   UNL     1       0.213   9.930  23.367  0.00  0.00    +0.000 NA
ATOM      4  C   UNL     1      -0.441  10.935  22.732  0.00  0.00    +0.000 A 
ATOM      5  C   UNL     1      -0.582  11.072  21.347  0.00  0.00    +0.000 A 
ATOM      6  C   UNL     1       0.022  10.045  20.563  0.00  0.00    +0.000 A 
ATOM      7  C   UNL     1      -0.094  10.124  19.049  0.00  0.00    +0.000 C 
ATOM      8  C   UNL     1      -1.103  11.145  18.559  0.00  0.00    +0.000 C 
ATOM      9  C   UNL     1      -0.878  12.408  19.360  0.00  0.00    +0.000 C 
ATOM     10  N   UNL     1      -1.294  12.118  20.731  0.00  0.00    +0.000 N 
ENDROOT
BRANCH   1  19
ATOM     11  C   UNL     1       3.269   3.339  18.744  0.00  0.00    +0.000 C 
ATOM     12  N   UNL     1       3.511   4.731  18.394  0.00  0.00    +0.000 N 
ATOM     13  C   UNL     1       4.435   5.010  17.388  0.00  0.00    +0.000 C 
ATOM     14  O   UNL     1       5.061   4.140  16.780  0.00  0.00    +0.000 OA
ATOM     15  C   UNL     1       4.734   6.471  17.134  0.00  0.00    +0.000 C 
ATOM     16  C   UNL     1       3.486   7.318  17.257  0.00  0.00    +0.000 C 
ATOM     17  C   UNL     1       2.840   7.070  18.588  0.00  0.00    +0.000 A 
ATOM     18  C   UNL     1       2.186   8.112  19.278  0.00  0.00    +0.000 A 
ATOM     19  C   UNL     1       1.433   7.872  20.443  0.00  0.00    +0.000 A 
ATOM     20  C   UNL     1       1.336   6.532  20.847  0.00  0.00    +0.000 A 
ATOM     21  C   UNL     1       2.037   5.503  20.212  0.00  0.00    +0.000 A 
ATOM     22  C   UNL     1       2.802   5.760  19.078  0.00  0.00    +0.000 A 
ENDBRANCH   1  19
BRANCH  10  23
ATOM     23  C   UNL     1      -2.041  13.141  21.487  0.00  0.00    +0.000 C 
BRANCH  23  24
ATOM     24  C   UNL     1      -3.523  12.765  21.694  0.00  0.00    +0.000 C 
BRANCH  24  25
ATOM     25  N   UNL     1      -4.359  13.046  20.546  0.00  0.00    +0.000 N 
ATOM     26  C   UNL     1      -5.625  12.535  20.483  0.00  0.00    +0.000 C 
ATOM     27  O   UNL     1      -6.081  11.766  21.318  0.00  0.00    +0.000 OA
ATOM     28  H   UNL     1      -4.076  13.699  19.831  0.00  0.00    +0.000 HD
BRANCH  26  29
ATOM     29  O   UNL     1      -6.267  12.995  19.383  0.00  0.00    +0.000 OA
BRANCH  29  30
ATOM     30  C   UNL     1      -6.188  12.223  18.155  0.00  0.00    +0.000 C 
ATOM     31  C   UNL     1      -4.732  11.890  17.800  0.00  0.00    +0.000 C 
ATOM     32  C   UNL     1      -6.930  10.909  18.426  0.00  0.00    +0.000 C 
ATOM     33  C   UNL     1      -6.910  12.948  17.012  0.00  0.00    +0.000 C 
ENDBRANCH  29  30
ENDBRANCH  26  29
ENDBRANCH  24  25
ENDBRANCH  23  24
ENDBRANCH  10  23
TORSDOF 6
ENDMDL
