MODEL 1
REMARK VINA RESULT:      -7.9      0.000      0.000
REMARK  Name = 
REMARK  5 active torsions:
REMARK  status: ('A' for Active; 'I' for Inactive)
REMARK    1  A    between atoms: C_1  and  C_2
REMARK    2  A    between atoms: C_2  and  C_3
REMARK    3  A    between atoms: C_2  and  C_4
REMARK    4  A    between atoms: C_9  and  C_10
REMARK    5  A    between atoms: C_19  and  N_20
REMARK                            x       y       z     vdW  Elec       q    Type
REMARK                         _______ _______ _______ _____ _____    ______ ____
ROOT
ATOM      1  C   UNL     1       1.768  14.028  19.060  0.00  0.00    +0.000 A 
ATOM      2  C   UNL     1       1.421  13.932  20.390  0.00  0.00    +0.000 A 
ATOM      3  C   UNL     1       1.038  12.693  20.816  0.00  0.00    +0.000 A 
ATOM      4  N   UNL     1       1.024  11.628  20.011  0.00  0.00    +0.000 NA
ATOM      5  C   UNL     1       1.417  11.779  18.738  0.00  0.00    +0.000 A 
ATOM      6  N   UNL     1       1.524  10.658  17.920  0.00  0.00    +0.000 N 
ATOM      7  C   UNL     1       1.790   9.348  18.318  0.00  0.00    +0.000 A 
ATOM      8  C   UNL     1       1.478   8.838  19.575  0.00  0.00    +0.000 A 
ATOM      9  N   UNL     1       1.864   7.621  20.025  0.00  0.00    +0.000 NA
ATOM     10  C   UNL     1       2.552   6.839  19.176  0.00  0.00    +0.000 A 
ATOM     11  C   UNL     1       2.780   7.313  17.883  0.00  0.00    +0.000 A 
ATOM     12  N   UNL     1       2.425   8.554  17.431  0.00  0.00    +0.000 NA
ATOM     13  N   UNL     1       1.772  12.964  18.223  0.00  0.00    +0.000 NA
ATOM     14  H   UNL     1       1.929  10.872  17.022  0.00  0.00    +0.000 HD
ENDROOT
BRANCH   1  20
ATOM     15  C   UNL     1       1.487  16.517  18.260  0.00  0.00    +0.000 A 
ATOM     16  N   UNL     1       2.269  17.453  17.692  0.00  0.00    +0.000 NA
ATOM     17  N   UNL     1       3.457  16.850  17.559  0.00  0.00    +0.000 N 
ATOM     18  C   UNL     1       3.467  15.581  18.034  0.00  0.00    +0.000 A 
ATOM     19 CL   UNL     1       4.948  14.752  17.959  0.00  0.00    +0.000 Cl
ATOM     20  C   UNL     1       2.202  15.293  18.489  0.00  0.00    +0.000 A 
ATOM     21  H   UNL     1       4.222  17.360  17.137  0.00  0.00    +0.000 HD
BRANCH  15  23
ATOM     22  C   UNL     1      -0.121  17.354  19.991  0.00  0.00    +0.000 C 
ATOM     23  C   UNL     1       0.043  16.836  18.560  0.00  0.00    +0.000 C 
ATOM     24  C   UNL     1      -0.552  17.845  17.569  0.00  0.00    +0.000 C 
ENDBRANCH  15  23
ENDBRANCH   1  20
BRANCH  10  25
ATOM     25  N   UNL     1       2.939   5.612  19.648  0.00  0.00    +0.000 N 
ATOM     26  C   UNL     1       2.189   5.057  20.787  0.00  0.00    +0.000 C 
ATOM     27  C   UNL     1       2.106   3.524  20.653  0.00  0.00    +0.000 C 
ATOM     28  N   UNL     1       3.430   2.881  20.505  0.00  0.00    +0.000 NA
ATOM     29  C   UNL     1       4.147   3.497  19.369  0.00  0.00    +0.000 C 
ATOM     30  C   UNL     1       4.266   5.039  19.452  0.00  0.00    +0.000 C 
ATOM     31  H   UNL     1       3.286   1.893  20.304  0.00  0.00    +0.000 HD
ENDBRANCH  10  25
TORSDOF 3
ENDMDL
MODEL 2
REMARK VINA RESULT:      -7.9      3.536      9.871
REMARK  Name = 
REMARK  5 active torsions:
REMARK  status: ('A' for Active; 'I' for Inactive)
REMARK    1  A    between atoms: C_1  and  C_2
REMARK    2  A    between atoms: C_2  and  C_3
REMARK    3  A    between atoms: C_2  and  C_4
REMARK    4  A    between atoms: C_9  and  C_10
REMARK    5  A    between atoms: C_19  and  N_20
REMARK                            x       y       z     vdW  Elec       q    Type
REMARK                         _______ _______ _______ _____ _____    ______ ____
ROOT
ATOM      1  C   UNL     1       3.241   6.290  18.960  0.00  0.00    +0.000 A 
ATOM      2  C   UNL     1       3.482   7.125  17.890  0.00  0.00    +0.000 A 
ATOM      3  C   UNL     1       2.672   8.219  17.797  0.00  0.00    +0.000 A 
ATOM      4  N   UNL     1       1.722   8.490  18.696  0.00  0.00    +0.000 NA
ATOM      5  C   UNL     1       1.568   7.661  19.739  0.00  0.00    +0.000 A 
ATOM      6  N   UNL     1       0.668   7.993  20.746  0.00  0.00    +0.000 N 
ATOM      7  C   UNL     1       0.265   9.272  21.129  0.00  0.00    +0.000 A 
ATOM      8  C   UNL     1       0.264  10.374  20.278  0.00  0.00    +0.000 A 
ATOM      9  N   UNL     1       0.021  11.646  20.672  0.00  0.00    +0.000 NA
ATOM     10  C   UNL     1      -0.286  11.843  21.966  0.00  0.00    +0.000 A 
ATOM     11  C   UNL     1      -0.378  10.725  22.798  0.00  0.00    +0.000 A 
ATOM     12  N   UNL     1      -0.101   9.441  22.416  0.00  0.00    +0.000 NA
ATOM     13  N   UNL     1       2.292   6.543  19.891  0.00  0.00    +0.000 NA
ATOM     14  H   UNL     1       0.712   7.359  21.529  0.00  0.00    +0.000 HD
ENDROOT
BRANCH   1  20
ATOM     15  C   UNL     1       3.680   3.788  19.636  0.00  0.00    +0.000 A 
ATOM     16  N   UNL     1       4.744   2.967  19.701  0.00  0.00    +0.000 NA
ATOM     17  N   UNL     1       5.768   3.725  19.288  0.00  0.00    +0.000 N 
ATOM     18  C   UNL     1       5.396   4.983  18.948  0.00  0.00    +0.000 A 
ATOM     19 CL   UNL     1       6.619   6.004  18.360  0.00  0.00    +0.000 Cl
ATOM     20  C   UNL     1       4.044   5.096  19.172  0.00  0.00    +0.000 A 
ATOM     21  H   UNL     1       6.697   3.323  19.261  0.00  0.00    +0.000 HD
BRANCH  15  23
ATOM     22  C   UNL     1       1.914   2.063  19.202  0.00  0.00    +0.000 C 
ATOM     23  C   UNL     1       2.320   3.276  20.043  0.00  0.00    +0.000 C 
ATOM     24  C   UNL     1       2.249   2.922  21.534  0.00  0.00    +0.000 C 
ENDBRANCH  15  23
ENDBRANCH   1  20
BRANCH  10  25
ATOM     25  N   UNL     1      -0.524  13.136  22.351  0.00  0.00    +0.000 N 
ATOM     26  C   UNL     1      -1.687  13.379  23.220  0.00  0.00    +0.000 C 
ATOM     27  C   UNL     1      -1.370  14.528  24.198  0.00  0.00    +0.000 C 
ATOM     28  N   UNL     1      -0.926  15.764  23.518  0.00  0.00    +0.000 NA
ATOM     29  C   UNL     1       0.220  15.454  22.639  0.00  0.00    +0.000 C 
ATOM     30  C   UNL     1      -0.043  14.309  21.629  0.00  0.00    +0.000 C 
ATOM     31  H   UNL     1      -0.625  16.430  24.227  0.00  0.00    +0.000 HD
ENDBRANCH  10  25
TORSDOF 3
ENDMDL
MODEL 3
REMARK VINA RESULT:      -7.8      4.395      9.669
REMARK  Name = 
REMARK  5 active torsions:
REMARK  status: ('A' for Active; 'I' for Inactive)
REMARK    1  A    between atoms: C_1  and  C_2
REMARK    2  A    between atoms: C_2  and  C_3
REMARK    3  A    between atoms: C_2  and  C_4
REMARK    4  A    between atoms: C_9  and  C_10
REMARK    5  A    between atoms: C_19  and  N_20
REMARK                            x       y       z     vdW  Elec       q    Type
REMARK                         _______ _______ _______ _____ _____    ______ ____
ROOT
ATOM      1  C   UNL     1       2.176   7.193  18.979  0.00  0.00    +0.000 A 
ATOM      2  C   UNL     1       2.140   7.459  20.331  0.00  0.00    +0.000 A 
ATOM      3  C   UNL     1       1.448   8.577  20.698  0.00  0.00    +0.000 A 
ATOM      4  N   UNL     1       0.818   9.356  19.815  0.00  0.00    +0.000 NA
ATOM      5  C   UNL     1       0.854   9.017  18.518  0.00  0.00    +0.000 A 
ATOM      6  N   UNL     1       0.104   9.748  17.602  0.00  0.00    +0.000 N 
ATOM      7  C   UNL     1      -1.076  10.450  17.849  0.00  0.00    +0.000 A 
ATOM      8  C   UNL     1      -1.421  10.979  19.089  0.00  0.00    +0.000 A 
ATOM      9  N   UNL     1      -2.624  11.529  19.379  0.00  0.00    +0.000 NA
ATOM     10  C   UNL     1      -3.522  11.608  18.384  0.00  0.00    +0.000 A 
ATOM     11  C   UNL     1      -3.141  11.164  17.115  0.00  0.00    +0.000 A 
ATOM     12  N   UNL     1      -1.942  10.577  16.822  0.00  0.00    +0.000 NA
ATOM     13  N   UNL     1       1.539   7.960  18.062  0.00  0.00    +0.000 NA
ATOM     14  H   UNL     1       0.119   9.343  16.679  0.00  0.00    +0.000 HD
ENDROOT
BRANCH   1  20
ATOM     15  C   UNL     1       2.562   4.628  18.554  0.00  0.00    +0.000 A 
ATOM     16  N   UNL     1       3.490   3.869  17.943  0.00  0.00    +0.000 NA
ATOM     17  N   UNL     1       4.376   4.754  17.470  0.00  0.00    +0.000 N 
ATOM     18  C   UNL     1       4.041   6.039  17.738  0.00  0.00    +0.000 A 
ATOM     19 CL   UNL     1       5.079   7.239  17.130  0.00  0.00    +0.000 Cl
ATOM     20  C   UNL     1       2.873   6.026  18.464  0.00  0.00    +0.000 A 
ATOM     21  H   UNL     1       5.189   4.416  16.970  0.00  0.00    +0.000 HD
BRANCH  15  23
ATOM     22  C   UNL     1       1.090   2.600  18.604  0.00  0.00    +0.000 C 
ATOM     23  C   UNL     1       1.386   3.965  19.229  0.00  0.00    +0.000 C 
ATOM     24  C   UNL     1       1.588   3.812  20.742  0.00  0.00    +0.000 C 
ENDBRANCH  15  23
ENDBRANCH   1  20
BRANCH  10  25
ATOM     25  N   UNL     1      -4.737  12.162  18.694  0.00  0.00    +0.000 N 
ATOM     26  C   UNL     1      -5.665  12.424  17.582  0.00  0.00    +0.000 C 
ATOM     27  C   UNL     1      -7.115  12.204  18.055  0.00  0.00    +0.000 C 
ATOM     28  N   UNL     1      -7.461  12.997  19.255  0.00  0.00    +0.000 NA
ATOM     29  C   UNL     1      -6.481  12.717  20.325  0.00  0.00    +0.000 C 
ATOM     30  C   UNL     1      -5.005  12.926  19.908  0.00  0.00    +0.000 C 
ATOM     31  H   UNL     1      -8.385  12.711  19.574  0.00  0.00    +0.000 HD
ENDBRANCH  10  25
TORSDOF 3
ENDMDL
MODEL 4
REMARK VINA RESULT:      -7.7      2.471     10.010
REMARK  Name = 
REMARK  5 active torsions:
REMARK  status: ('A' for Active; 'I' for Inactive)
REMARK    1  A    between atoms: C_1  and  C_2
REMARK    2  A    between atoms: C_2  and  C_3
REMARK    3  A    between atoms: C_2  and  C_4
REMARK    4  A    between atoms: C_9  and  C_10
REMARK    5  A    between atoms: C_19  and  N_20
REMARK                            x       y       z     vdW  Elec       q    Type
REMARK                         _______ _______ _______ _____ _____    ______ ____
ROOT
ATOM      1  C   UNL     1       3.459   5.887  18.607  0.00  0.00    +0.000 A 
ATOM      2  C   UNL     1       4.004   6.422  17.460  0.00  0.00    +0.000 A 
ATOM      3  C   UNL     1       3.508   7.633  17.075  0.00  0.00    +0.000 A 
ATOM      4  N   UNL     1       2.572   8.283  17.774  0.00  0.00    +0.000 NA
ATOM      5  C   UNL     1       2.115   7.729  18.906  0.00  0.00    +0.000 A 
ATOM      6  N   UNL     1       1.233   8.446  19.707  0.00  0.00    +0.000 N 
ATOM      7  C   UNL     1       1.128   9.833  19.814  0.00  0.00    +0.000 A 
ATOM      8  C   UNL     1       1.486  10.719  18.802  0.00  0.00    +0.000 A 
ATOM      9  N   UNL     1       1.532  12.065  18.944  0.00  0.00    +0.000 NA
ATOM     10  C   UNL     1       1.160  12.573  20.131  0.00  0.00    +0.000 A 
ATOM     11  C   UNL     1       0.709  11.689  21.114  0.00  0.00    +0.000 A 
ATOM     12  N   UNL     1       0.692  10.327  20.991  0.00  0.00    +0.000 NA
ATOM     13  N   UNL     1       2.517   6.526  19.340  0.00  0.00    +0.000 NA
ATOM     14  H   UNL     1       1.040   7.983  20.581  0.00  0.00    +0.000 HD
ENDROOT
BRANCH   1  20
ATOM     15  C   UNL     1       3.206   3.570  19.821  0.00  0.00    +0.000 A 
ATOM     16  N   UNL     1       4.013   2.540  20.136  0.00  0.00    +0.000 NA
ATOM     17  N   UNL     1       5.208   2.902  19.654  0.00  0.00    +0.000 N 
ATOM     18  C   UNL     1       5.190   4.105  19.032  0.00  0.00    +0.000 A 
ATOM     19 CL   UNL     1       6.651   4.625  18.338  0.00  0.00    +0.000 Cl
ATOM     20  C   UNL     1       3.912   4.606  19.124  0.00  0.00    +0.000 A 
ATOM     21  H   UNL     1       5.998   2.281  19.781  0.00  0.00    +0.000 HD
BRANCH  15  23
ATOM     22  C   UNL     1       0.906   2.836  19.147  0.00  0.00    +0.000 C 
ATOM     23  C   UNL     1       1.752   3.524  20.221  0.00  0.00    +0.000 C 
ATOM     24  C   UNL     1       1.537   2.833  21.574  0.00  0.00    +0.000 C 
ENDBRANCH  15  23
ENDBRANCH   1  20
BRANCH  10  25
ATOM     25  N   UNL     1       1.217  13.936  20.261  0.00  0.00    +0.000 N 
ATOM     26  C   UNL     1       1.704  14.706  19.105  0.00  0.00    +0.000 C 
ATOM     27  C   UNL     1       0.961  16.055  19.032  0.00  0.00    +0.000 C 
ATOM     28  N   UNL     1       1.049  16.835  20.286  0.00  0.00    +0.000 NA
ATOM     29  C   UNL     1       0.577  16.004  21.413  0.00  0.00    +0.000 C 
ATOM     30  C   UNL     1       1.293  14.636  21.539  0.00  0.00    +0.000 C 
ATOM     31  H   UNL     1       0.442  17.648  20.201  0.00  0.00    +0.000 HD
ENDBRANCH  10  25
TORSDOF 3
ENDMDL
MODEL 5
REMARK VINA RESULT:      -7.7      2.620      9.963
REMARK  Name = 
REMARK  5 active torsions:
REMARK  status: ('A' for Active; 'I' for Inactive)
REMARK    1  A    between atoms: C_1  and  C_2
REMARK    2  A    between atoms: C_2  and  C_3
REMARK    3  A    between atoms: C_2  and  C_4
REMARK    4  A    between atoms: C_9  and  C_10
REMARK    5  A    between atoms: C_19  and  N_20
REMARK                            x       y       z     vdW  Elec       q    Type
REMARK                         _______ _______ _______ _____ _____    ______ ____
ROOT
ATOM      1  C   UNL     1       3.428   5.913  18.614  0.00  0.00    +0.000 A 
ATOM      2  C   UNL     1       3.976   6.476  17.482  0.00  0.00    +0.000 A 
ATOM      3  C   UNL     1       3.478   7.696  17.125  0.00  0.00    +0.000 A 
ATOM      4  N   UNL     1       2.540   8.326  17.836  0.00  0.00    +0.000 NA
ATOM      5  C   UNL     1       2.081   7.744  18.954  0.00  0.00    +0.000 A 
ATOM      6  N   UNL     1       1.194   8.440  19.769  0.00  0.00    +0.000 N 
ATOM      7  C   UNL     1       1.087   9.824  19.909  0.00  0.00    +0.000 A 
ATOM      8  C   UNL     1       1.446  10.736  18.920  0.00  0.00    +0.000 A 
ATOM      9  N   UNL     1       1.490  12.078  19.095  0.00  0.00    +0.000 NA
ATOM     10  C   UNL     1       1.113  12.556  20.293  0.00  0.00    +0.000 A 
ATOM     11  C   UNL     1       0.661  11.648  21.252  0.00  0.00    +0.000 A 
ATOM     12  N   UNL     1       0.647  10.289  21.096  0.00  0.00    +0.000 NA
ATOM     13  N   UNL     1       2.483   6.532  19.360  0.00  0.00    +0.000 NA
ATOM     14  H   UNL     1       1.000   7.956  20.631  0.00  0.00    +0.000 HD
ENDROOT
BRANCH   1  20
ATOM     15  C   UNL     1       3.158   3.528  19.687  0.00  0.00    +0.000 A 
ATOM     16  N   UNL     1       3.972   2.508  20.014  0.00  0.00    +0.000 NA
ATOM     17  N   UNL     1       5.189   2.930  19.648  0.00  0.00    +0.000 N 
ATOM     18  C   UNL     1       5.179   4.163  19.087  0.00  0.00    +0.000 A 
ATOM     19 CL   UNL     1       6.672   4.762  18.540  0.00  0.00    +0.000 Cl
ATOM     20  C   UNL     1       3.882   4.620  19.101  0.00  0.00    +0.000 A 
ATOM     21  H   UNL     1       5.986   2.327  19.807  0.00  0.00    +0.000 HD
BRANCH  15  23
ATOM     22  C   UNL     1       0.978   2.581  18.894  0.00  0.00    +0.000 C 
ATOM     23  C   UNL     1       1.680   3.419  19.966  0.00  0.00    +0.000 C 
ATOM     24  C   UNL     1       1.387   2.838  21.355  0.00  0.00    +0.000 C 
ENDBRANCH  15  23
ENDBRANCH   1  20
BRANCH  10  25
ATOM     25  N   UNL     1       1.167  13.916  20.456  0.00  0.00    +0.000 N 
ATOM     26  C   UNL     1       0.787  14.454  21.772  0.00  0.00    +0.000 C 
ATOM     27  C   UNL     1       1.643  15.696  22.089  0.00  0.00    +0.000 C 
ATOM     28  N   UNL     1       1.579  16.731  21.034  0.00  0.00    +0.000 NA
ATOM     29  C   UNL     1       1.939  16.128  19.735  0.00  0.00    +0.000 C 
ATOM     30  C   UNL     1       1.106  14.877  19.360  0.00  0.00    +0.000 C 
ATOM     31  H   UNL     1       2.255  17.459  21.257  0.00  0.00    +0.000 HD
ENDBRANCH  10  25
TORSDOF 3
ENDMDL
MODEL 6
REMARK VINA RESULT:      -7.6      4.400      9.707
REMARK  Name = 
REMARK  5 active torsions:
REMARK  status: ('A' for Active; 'I' for Inactive)
REMARK    1  A    between atoms: C_1  and  C_2
REMARK    2  A    between atoms: C_2  and  C_3
REMARK    3  A    between atoms: C_2  and  C_4
REMARK    4  A    between atoms: C_9  and  C_10
REMARK    5  A    between atoms: C_19  and  N_20
REMARK                            x       y       z     vdW  Elec       q    Type
REMARK                         _______ _______ _______ _____ _____    ______ ____
ROOT
ATOM      1  C   UNL     1       2.202   7.150  18.910  0.00  0.00    +0.000 A 
ATOM      2  C   UNL     1       2.168   7.439  20.257  0.00  0.00    +0.000 A 
ATOM      3  C   UNL     1       1.484   8.567  20.606  0.00  0.00    +0.000 A 
ATOM      4  N   UNL     1       0.859   9.335  19.710  0.00  0.00    +0.000 NA
ATOM      5  C   UNL     1       0.891   8.974  18.419  0.00  0.00    +0.000 A 
ATOM      6  N   UNL     1       0.145   9.694  17.491  0.00  0.00    +0.000 N 
ATOM      7  C   UNL     1      -1.030  10.407  17.726  0.00  0.00    +0.000 A 
ATOM      8  C   UNL     1      -1.371  10.960  18.958  0.00  0.00    +0.000 A 
ATOM      9  N   UNL     1      -2.570  11.522  19.239  0.00  0.00    +0.000 NA
ATOM     10  C   UNL     1      -3.469  11.590  18.243  0.00  0.00    +0.000 A 
ATOM     11  C   UNL     1      -3.091  11.122  16.982  0.00  0.00    +0.000 A 
ATOM     12  N   UNL     1      -1.896  10.522  16.698  0.00  0.00    +0.000 NA
ATOM     13  N   UNL     1       1.570   7.904  17.981  0.00  0.00    +0.000 NA
ATOM     14  H   UNL     1       0.157   9.273  16.575  0.00  0.00    +0.000 HD
ENDROOT
BRANCH   1  20
ATOM     15  C   UNL     1       2.552   4.577  18.498  0.00  0.00    +0.000 A 
ATOM     16  N   UNL     1       3.482   3.801  17.912  0.00  0.00    +0.000 NA
ATOM     17  N   UNL     1       4.397   4.669  17.462  0.00  0.00    +0.000 N 
ATOM     18  C   UNL     1       4.079   5.960  17.721  0.00  0.00    +0.000 A 
ATOM     19 CL   UNL     1       5.154   7.140  17.140  0.00  0.00    +0.000 Cl
ATOM     20  C   UNL     1       2.891   5.969  18.415  0.00  0.00    +0.000 A 
ATOM     21  H   UNL     1       5.217   4.316  16.985  0.00  0.00    +0.000 HD
BRANCH  15  23
ATOM     22  C   UNL     1       1.100   2.536  18.575  0.00  0.00    +0.000 C 
ATOM     23  C   UNL     1       1.347   3.937  19.141  0.00  0.00    +0.000 C 
ATOM     24  C   UNL     1       1.465   3.868  20.669  0.00  0.00    +0.000 C 
ENDBRANCH  15  23
ENDBRANCH   1  20
BRANCH  10  25
ATOM     25  N   UNL     1      -4.680  12.156  18.544  0.00  0.00    +0.000 N 
ATOM     26  C   UNL     1      -4.894  12.594  19.933  0.00  0.00    +0.000 C 
ATOM     27  C   UNL     1      -5.774  13.860  19.946  0.00  0.00    +0.000 C 
ATOM     28  N   UNL     1      -7.053  13.685  19.223  0.00  0.00    +0.000 NA
ATOM     29  C   UNL     1      -6.778  13.217  17.849  0.00  0.00    +0.000 C 
ATOM     30  C   UNL     1      -5.901  11.943  17.774  0.00  0.00    +0.000 C 
ATOM     31  H   UNL     1      -7.520  14.589  19.174  0.00  0.00    +0.000 HD
ENDBRANCH  10  25
TORSDOF 3
ENDMDL
MODEL 7
REMARK VINA RESULT:      -7.6      1.356      2.389
REMARK  Name = 
REMARK  5 active torsions:
REMARK  status: ('A' for Active; 'I' for Inactive)
REMARK    1  A    between atoms: C_1  and  C_2
REMARK    2  A    between atoms: C_2  and  C_3
REMARK    3  A    between atoms: C_2  and  C_4
REMARK    4  A    between atoms: C_9  and  C_10
REMARK    5  A    between atoms: C_19  and  N_20
REMARK                            x       y       z     vdW  Elec       q    Type
REMARK                         _______ _______ _______ _____ _____    ______ ____
ROOT
ATOM      1  C   UNL     1       1.584  13.966  19.416  0.00  0.00    +0.000 A 
ATOM      2  C   UNL     1       1.161  13.774  20.713  0.00  0.00    +0.000 A 
ATOM      3  C   UNL     1       0.798  12.499  21.038  0.00  0.00    +0.000 A 
ATOM      4  N   UNL     1       0.871  11.487  20.169  0.00  0.00    +0.000 NA
ATOM      5  C   UNL     1       1.335  11.731  18.935  0.00  0.00    +0.000 A 
ATOM      6  N   UNL     1       1.531  10.669  18.059  0.00  0.00    +0.000 N 
ATOM      7  C   UNL     1       1.820   9.345  18.391  0.00  0.00    +0.000 A 
ATOM      8  C   UNL     1       1.452   8.747  19.593  0.00  0.00    +0.000 A 
ATOM      9  N   UNL     1       1.853   7.516  19.990  0.00  0.00    +0.000 NA
ATOM     10  C   UNL     1       2.618   6.813  19.140  0.00  0.00    +0.000 A 
ATOM     11  C   UNL     1       2.907   7.375  17.894  0.00  0.00    +0.000 A 
ATOM     12  N   UNL     1       2.536   8.630  17.499  0.00  0.00    +0.000 NA
ATOM     13  N   UNL     1       1.677  12.958  18.517  0.00  0.00    +0.000 NA
ATOM     14  H   UNL     1       1.981  10.952  17.202  0.00  0.00    +0.000 HD
ENDROOT
BRANCH   1  20
ATOM     15  C   UNL     1       3.313  15.853  18.816  0.00  0.00    +0.000 A 
ATOM     16  N   UNL     1       3.258  17.116  18.356  0.00  0.00    +0.000 NA
ATOM     17  N   UNL     1       1.949  17.350  18.198  0.00  0.00    +0.000 N 
ATOM     18  C   UNL     1       1.175  16.286  18.520  0.00  0.00    +0.000 A 
ATOM     19 CL   UNL     1      -0.499  16.469  18.300  0.00  0.00    +0.000 Cl
ATOM     20  C   UNL     1       2.005  15.278  18.952  0.00  0.00    +0.000 A 
ATOM     21  H   UNL     1       1.649  18.258  17.866  0.00  0.00    +0.000 HD
BRANCH  15  23
ATOM     22  C   UNL     1       5.389  14.841  17.842  0.00  0.00    +0.000 C 
ATOM     23  C   UNL     1       4.653  15.232  19.126  0.00  0.00    +0.000 C 
ATOM     24  C   UNL     1       5.541  16.149  19.977  0.00  0.00    +0.000 C 
ENDBRANCH  15  23
ENDBRANCH   1  20
BRANCH  10  25
ATOM     25  N   UNL     1       3.021   5.571  19.558  0.00  0.00    +0.000 N 
ATOM     26  C   UNL     1       2.265   4.951  20.659  0.00  0.00    +0.000 C 
ATOM     27  C   UNL     1       2.211   3.424  20.452  0.00  0.00    +0.000 C 
ATOM     28  N   UNL     1       3.547   2.812  20.292  0.00  0.00    +0.000 NA
ATOM     29  C   UNL     1       4.269   3.492  19.198  0.00  0.00    +0.000 C 
ATOM     30  C   UNL     1       4.360   5.030  19.355  0.00  0.00    +0.000 C 
ATOM     31  H   UNL     1       3.424   1.832  20.044  0.00  0.00    +0.000 HD
ENDBRANCH  10  25
TORSDOF 3
ENDMDL
MODEL 8
REMARK VINA RESULT:      -7.6      6.320     10.549
REMARK  Name = 
REMARK  5 active torsions:
REMARK  status: ('A' for Active; 'I' for Inactive)
REMARK    1  A    between atoms: C_1  and  C_2
REMARK    2  A    between atoms: C_2  and  C_3
REMARK    3  A    between atoms: C_2  and  C_4
REMARK    4  A    between atoms: C_9  and  C_10
REMARK    5  A    between atoms: C_19  and  N_20
REMARK                            x       y       z     vdW  Elec       q    Type
REMARK                         _______ _______ _______ _____ _____    ______ ____
ROOT
ATOM      1  C   UNL     1       6.014   5.628  18.163  0.00  0.00    +0.000 A 
ATOM      2  C   UNL     1       6.752   5.148  19.223  0.00  0.00    +0.000 A 
ATOM      3  C   UNL     1       7.867   5.865  19.545  0.00  0.00    +0.000 A 
ATOM      4  N   UNL     1       8.216   6.980  18.897  0.00  0.00    +0.000 NA
ATOM      5  C   UNL     1       7.431   7.420  17.903  0.00  0.00    +0.000 A 
ATOM      6  N   UNL     1       7.714   8.642  17.301  0.00  0.00    +0.000 N 
ATOM      7  C   UNL     1       8.361   9.735  17.877  0.00  0.00    +0.000 A 
ATOM      8  C   UNL     1       9.278   9.636  18.920  0.00  0.00    +0.000 A 
ATOM      9  N   UNL     1       9.797  10.694  19.587  0.00  0.00    +0.000 NA
ATOM     10  C   UNL     1       9.435  11.920  19.175  0.00  0.00    +0.000 A 
ATOM     11  C   UNL     1       8.590  12.021  18.068  0.00  0.00    +0.000 A 
ATOM     12  N   UNL     1       8.034  10.958  17.411  0.00  0.00    +0.000 NA
ATOM     13  N   UNL     1       6.339   6.760  17.495  0.00  0.00    +0.000 NA
ATOM     14  H   UNL     1       7.002   8.924  16.646  0.00  0.00    +0.000 HD
ENDROOT
BRANCH   1  20
ATOM     15  C   UNL     1       3.481   4.937  18.300  0.00  0.00    +0.000 A 
ATOM     16  N   UNL     1       2.639   4.170  17.584  0.00  0.00    +0.000 NA
ATOM     17  N   UNL     1       3.394   3.706  16.579  0.00  0.00    +0.000 N 
ATOM     18  C   UNL     1       4.669   4.161  16.617  0.00  0.00    +0.000 A 
ATOM     19 CL   UNL     1       5.690   3.670  15.350  0.00  0.00    +0.000 Cl
ATOM     20  C   UNL     1       4.799   4.956  17.731  0.00  0.00    +0.000 A 
ATOM     21  H   UNL     1       2.977   3.084  15.898  0.00  0.00    +0.000 HD
BRANCH  15  23
ATOM     22  C   UNL     1       2.491   7.048  19.220  0.00  0.00    +0.000 C 
ATOM     23  C   UNL     1       2.979   5.633  19.541  0.00  0.00    +0.000 C 
ATOM     24  C   UNL     1       1.866   4.846  20.245  0.00  0.00    +0.000 C 
ENDBRANCH  15  23
ENDBRANCH   1  20
BRANCH  10  25
ATOM     25  N   UNL     1       9.965  12.980  19.863  0.00  0.00    +0.000 N 
ATOM     26  C   UNL     1      10.912  13.847  19.144  0.00  0.00    +0.000 C 
ATOM     27  C   UNL     1      10.748  15.303  19.624  0.00  0.00    +0.000 C 
ATOM     28  N   UNL     1      10.877  15.449  21.090  0.00  0.00    +0.000 NA
ATOM     29  C   UNL     1       9.927  14.536  21.758  0.00  0.00    +0.000 C 
ATOM     30  C   UNL     1      10.049  13.056  21.318  0.00  0.00    +0.000 C 
ATOM     31  H   UNL     1      10.641  16.408  21.340  0.00  0.00    +0.000 HD
ENDBRANCH  10  25
TORSDOF 3
ENDMDL
MODEL 9
REMARK VINA RESULT:      -7.6      3.888      9.669
REMARK  Name = 
REMARK  5 active torsions:
REMARK  status: ('A' for Active; 'I' for Inactive)
REMARK    1  A    between atoms: C_1  and  C_2
REMARK    2  A    between atoms: C_2  and  C_3
REMARK    3  A    between atoms: C_2  and  C_4
REMARK    4  A    between atoms: C_9  and  C_10
REMARK    5  A    between atoms: C_19  and  N_20
REMARK                            x       y       z     vdW  Elec       q    Type
REMARK                         _______ _______ _______ _____ _____    ______ ____
ROOT
ATOM      1  C   UNL     1       3.455   6.471  18.745  0.00  0.00    +0.000 A 
ATOM      2  C   UNL     1       3.572   7.310  17.658  0.00  0.00    +0.000 A 
ATOM      3  C   UNL     1       2.684   8.345  17.609  0.00  0.00    +0.000 A 
ATOM      4  N   UNL     1       1.772   8.557  18.562  0.00  0.00    +0.000 NA
ATOM      5  C   UNL     1       1.740   7.730  19.617  0.00  0.00    +0.000 A 
ATOM      6  N   UNL     1       0.881   8.007  20.675  0.00  0.00    +0.000 N 
ATOM      7  C   UNL     1       0.413   9.259  21.075  0.00  0.00    +0.000 A 
ATOM      8  C   UNL     1       0.284  10.350  20.220  0.00  0.00    +0.000 A 
ATOM      9  N   UNL     1      -0.024  11.606  20.622  0.00  0.00    +0.000 NA
ATOM     10  C   UNL     1      -0.265  11.793  21.930  0.00  0.00    +0.000 A 
ATOM     11  C   UNL     1      -0.229  10.680  22.772  0.00  0.00    +0.000 A 
ATOM     12  N   UNL     1       0.114   9.415  22.381  0.00  0.00    +0.000 NA
ATOM     13  N   UNL     1       2.548   6.666  19.731  0.00  0.00    +0.000 NA
ATOM     14  H   UNL     1       1.016   7.385  21.457  0.00  0.00    +0.000 HD
ENDROOT
BRANCH   1  20
ATOM     15  C   UNL     1       5.767   5.220  18.719  0.00  0.00    +0.000 A 
ATOM     16  N   UNL     1       6.206   3.975  18.979  0.00  0.00    +0.000 NA
ATOM     17  N   UNL     1       5.101   3.307  19.334  0.00  0.00    +0.000 N 
ATOM     18  C   UNL     1       3.987   4.078  19.328  0.00  0.00    +0.000 A 
ATOM     19 CL   UNL     1       2.543   3.330  19.818  0.00  0.00    +0.000 Cl
ATOM     20  C   UNL     1       4.351   5.338  18.914  0.00  0.00    +0.000 A 
ATOM     21  H   UNL     1       5.176   2.325  19.571  0.00  0.00    +0.000 HD
BRANCH  15  23
ATOM     22  C   UNL     1       8.038   6.213  19.092  0.00  0.00    +0.000 C 
ATOM     23  C   UNL     1       6.748   6.276  18.270  0.00  0.00    +0.000 C 
ATOM     24  C   UNL     1       7.077   6.173  16.776  0.00  0.00    +0.000 C 
ENDBRANCH  15  23
ENDBRANCH   1  20
BRANCH  10  25
ATOM     25  N   UNL     1      -0.570  13.071  22.322  0.00  0.00    +0.000 N 
ATOM     26  C   UNL     1      -1.758  13.252  23.172  0.00  0.00    +0.000 C 
ATOM     27  C   UNL     1      -1.512  14.404  24.166  0.00  0.00    +0.000 C 
ATOM     28  N   UNL     1      -1.114  15.666  23.505  0.00  0.00    +0.000 NA
ATOM     29  C   UNL     1       0.062  15.417  22.645  0.00  0.00    +0.000 C 
ATOM     30  C   UNL     1      -0.130  14.272  21.621  0.00  0.00    +0.000 C 
ATOM     31  H   UNL     1      -0.856  16.338  24.226  0.00  0.00    +0.000 HD
ENDBRANCH  10  25
TORSDOF 3
ENDMDL
