MODEL 1
REMARK VINA RESULT:      -8.2      0.000      0.000
REMARK  Name = 
REMARK  14 active torsions:
REMARK  status: ('A' for Active; 'I' for Inactive)
REMARK    1  A    between atoms: C_1  and  C_2
REMARK    2  A    between atoms: C_4  and  C_5
REMARK    3  A    between atoms: C_5  and  N_6
REMARK    4  A    between atoms: N_6  and  C_7
REMARK    5  A    between atoms: C_7  and  C_8
REMARK    6  A    between atoms: C_8  and  C_9
REMARK    7  A    between atoms: C_9  and  C_10
REMARK    8  A    between atoms: C_10  and  C_11
REMARK    9  A    between atoms: C_11  and  N_12
REMARK   10  A    between atoms: C_11  and  C_22
REMARK   11  A    between atoms: N_12  and  C_13
REMARK   12  A    between atoms: C_15  and  C_16
REMARK   13  A    between atoms: C_19  and  C_20
REMARK   14  A    between atoms: N_24  and  O_25
REMARK                            x       y       z     vdW  Elec       q    Type
REMARK                         _______ _______ _______ _____ _____    ______ ____
ROOT
ATOM      1  C   UNL     1       5.826   4.266  16.720  0.00  0.00    +0.000 C 
ENDROOT
BRANCH   1   2
ATOM      2  C   UNL     1       6.534   4.344  15.352  0.00  0.00    +0.000 C 
ATOM      3  O   UNL     1       7.406   5.170  15.082  0.00  0.00    +0.000 OA
ATOM      4  N   UNL     1       6.101   3.422  14.429  0.00  0.00    +0.000 N 
ATOM      5  H   UNL     1       5.589   2.580  14.674  0.00  0.00    +0.000 HD
BRANCH   4   6
ATOM      6  O   UNL     1       6.654   3.508  13.135  0.00  0.00    +0.000 OA
ATOM      7  H   UNL     1       5.861   3.677  12.578  0.00  0.00    +0.000 HD
ENDBRANCH   4   6
ENDBRANCH   1   2
BRANCH   1   8
ATOM      8  N   UNL     1       4.623   5.146  16.650  0.00  0.00    +0.000 N 
ATOM      9  H   UNL     1       4.219   5.123  15.710  0.00  0.00    +0.000 HD
BRANCH   8  10
ATOM     10  C   UNL     1       3.576   4.919  17.569  0.00  0.00    +0.000 A 
ATOM     11  C   UNL     1       2.901   3.699  17.668  0.00  0.00    +0.000 A 
ATOM     12  C   UNL     1       1.892   3.493  18.621  0.00  0.00    +0.000 A 
ATOM     13  C   UNL     1       1.139   2.197  18.673  0.00  0.00    +0.000 C 
ATOM     14  C   UNL     1       1.588   4.516  19.521  0.00  0.00    +0.000 A 
ATOM     15  F   UNL     1       0.623   4.314  20.428  0.00  0.00    +0.000 F 
ATOM     16  C   UNL     1       2.275   5.727  19.493  0.00  0.00    +0.000 A 
ATOM     17  C   UNL     1       1.963   6.806  20.486  0.00  0.00    +0.000 C 
ATOM     18  C   UNL     1       3.277   5.909  18.522  0.00  0.00    +0.000 A 
ENDBRANCH   8  10
ENDBRANCH   1   8
BRANCH   1  19
ATOM     19  C   UNL     1       6.778   4.717  17.859  0.00  0.00    +0.000 C 
BRANCH  19  20
ATOM     20  C   UNL     1       6.624   6.186  18.323  0.00  0.00    +0.000 C 
BRANCH  20  21
ATOM     21  C   UNL     1       7.937   6.976  18.349  0.00  0.00    +0.000 C 
BRANCH  21  22
ATOM     22  C   UNL     1       8.046   8.152  17.378  0.00  0.00    +0.000 C 
BRANCH  22  23
ATOM     23  N   UNL     1       7.949   9.438  18.060  0.00  0.00    +0.000 NA
ATOM     24  H   UNL     1       8.030  10.203  17.392  0.00  0.00    +0.000 HD
BRANCH  23  25
ATOM     25  C   UNL     1       9.016   9.568  19.056  0.00  0.00    +0.000 C 
BRANCH  25  29
ATOM     26  C   UNL     1      10.299  13.993  21.141  0.00  0.00    +0.000 C 
ATOM     27  C   UNL     1      10.319  13.042  19.985  0.00  0.00    +0.000 A 
ATOM     28  C   UNL     1       9.690  11.793  20.059  0.00  0.00    +0.000 A 
ATOM     29  C   UNL     1       9.694  10.914  18.961  0.00  0.00    +0.000 A 
ATOM     30  C   UNL     1      10.354  11.295  17.785  0.00  0.00    +0.000 A 
ATOM     31  C   UNL     1      10.986  12.538  17.705  0.00  0.00    +0.000 A 
ATOM     32  C   UNL     1      10.962  13.394  18.800  0.00  0.00    +0.000 A 
ATOM     33  F   UNL     1      11.574  14.585  18.700  0.00  0.00    +0.000 F 
ENDBRANCH  25  29
ENDBRANCH  23  25
ENDBRANCH  22  23
ENDBRANCH  21  22
ENDBRANCH  20  21
ENDBRANCH  19  20
ENDBRANCH   1  19
TORSDOF 11
ENDMDL
MODEL 2
REMARK VINA RESULT:      -8.1      5.524      7.852
REMARK  Name = 
REMARK  14 active torsions:
REMARK  status: ('A' for Active; 'I' for Inactive)
REMARK    1  A    between atoms: C_1  and  C_2
REMARK    2  A    between atoms: C_4  and  C_5
REMARK    3  A    between atoms: C_5  and  N_6
REMARK    4  A    between atoms: N_6  and  C_7
REMARK    5  A    between atoms: C_7  and  C_8
REMARK    6  A    between atoms: C_8  and  C_9
REMARK    7  A    between atoms: C_9  and  C_10
REMARK    8  A    between atoms: C_10  and  C_11
REMARK    9  A    between atoms: C_11  and  N_12
REMARK   10  A    between atoms: C_11  and  C_22
REMARK   11  A    between atoms: N_12  and  C_13
REMARK   12  A    between atoms: C_15  and  C_16
REMARK   13  A    between atoms: C_19  and  C_20
REMARK   14  A    between atoms: N_24  and  O_25
REMARK                            x       y       z     vdW  Elec       q    Type
REMARK                         _______ _______ _______ _____ _____    ______ ____
ROOT
ATOM      1  C   UNL     1       4.952   3.863  17.007  0.00  0.00    +0.000 C 
ENDROOT
BRANCH   1   2
ATOM      2  C   UNL     1       5.776   4.382  18.203  0.00  0.00    +0.000 C 
ATOM      3  O   UNL     1       5.273   4.842  19.228  0.00  0.00    +0.000 OA
ATOM      4  N   UNL     1       7.138   4.311  18.035  0.00  0.00    +0.000 N 
ATOM      5  H   UNL     1       7.589   3.721  17.342  0.00  0.00    +0.000 HD
BRANCH   4   6
ATOM      6  O   UNL     1       7.936   4.854  19.063  0.00  0.00    +0.000 OA
ATOM      7  H   UNL     1       8.766   5.080  18.587  0.00  0.00    +0.000 HD
ENDBRANCH   4   6
ENDBRANCH   1   2
BRANCH   1   8
ATOM      8  N   UNL     1       5.012   4.904  15.939  0.00  0.00    +0.000 N 
ATOM      9  H   UNL     1       5.418   5.768  16.307  0.00  0.00    +0.000 HD
BRANCH   8  10
ATOM     10  C   UNL     1       5.688   4.592  14.741  0.00  0.00    +0.000 A 
ATOM     11  C   UNL     1       5.182   3.699  13.792  0.00  0.00    +0.000 A 
ATOM     12  C   UNL     1       5.861   3.441  12.591  0.00  0.00    +0.000 A 
ATOM     13  C   UNL     1       5.332   2.437  11.611  0.00  0.00    +0.000 C 
ATOM     14  C   UNL     1       7.045   4.128  12.318  0.00  0.00    +0.000 A 
ATOM     15  F   UNL     1       7.688   3.878  11.170  0.00  0.00    +0.000 F 
ATOM     16  C   UNL     1       7.554   5.067  13.211  0.00  0.00    +0.000 A 
ATOM     17  C   UNL     1       8.809   5.823  12.892  0.00  0.00    +0.000 C 
ATOM     18  C   UNL     1       6.858   5.300  14.411  0.00  0.00    +0.000 A 
ENDBRANCH   8  10
ENDBRANCH   1   8
BRANCH   1  19
ATOM     19  C   UNL     1       3.484   3.584  17.428  0.00  0.00    +0.000 C 
BRANCH  19  20
ATOM     20  C   UNL     1       3.268   2.352  18.340  0.00  0.00    +0.000 C 
BRANCH  20  21
ATOM     21  C   UNL     1       1.828   2.188  18.839  0.00  0.00    +0.000 C 
BRANCH  21  22
ATOM     22  C   UNL     1       1.550   2.621  20.278  0.00  0.00    +0.000 C 
BRANCH  22  23
ATOM     23  N   UNL     1       1.033   3.983  20.353  0.00  0.00    +0.000 NA
ATOM     24  H   UNL     1       0.702   4.290  19.440  0.00  0.00    +0.000 HD
BRANCH  23  25
ATOM     25  C   UNL     1       2.082   4.901  20.807  0.00  0.00    +0.000 C 
BRANCH  25  29
ATOM     26  C   UNL     1       0.738   9.775  20.870  0.00  0.00    +0.000 C 
ATOM     27  C   UNL     1       1.334   8.597  20.166  0.00  0.00    +0.000 A 
ATOM     28  C   UNL     1       1.434   7.348  20.793  0.00  0.00    +0.000 A 
ATOM     29  C   UNL     1       1.975   6.240  20.117  0.00  0.00    +0.000 A 
ATOM     30  C   UNL     1       2.432   6.400  18.801  0.00  0.00    +0.000 A 
ATOM     31  C   UNL     1       2.337   7.642  18.171  0.00  0.00    +0.000 A 
ATOM     32  C   UNL     1       1.793   8.722  18.856  0.00  0.00    +0.000 A 
ATOM     33  F   UNL     1       1.709   9.907  18.229  0.00  0.00    +0.000 F 
ENDBRANCH  25  29
ENDBRANCH  23  25
ENDBRANCH  22  23
ENDBRANCH  21  22
ENDBRANCH  20  21
ENDBRANCH  19  20
ENDBRANCH   1  19
TORSDOF 11
ENDMDL
MODEL 3
REMARK VINA RESULT:      -8.0      1.142      2.236
REMARK  Name = 
REMARK  14 active torsions:
REMARK  status: ('A' for Active; 'I' for Inactive)
REMARK    1  A    between atoms: C_1  and  C_2
REMARK    2  A    between atoms: C_4  and  C_5
REMARK    3  A    between atoms: C_5  and  N_6
REMARK    4  A    between atoms: N_6  and  C_7
REMARK    5  A    between atoms: C_7  and  C_8
REMARK    6  A    between atoms: C_8  and  C_9
REMARK    7  A    between atoms: C_9  and  C_10
REMARK    8  A    between atoms: C_10  and  C_11
REMARK    9  A    between atoms: C_11  and  N_12
REMARK   10  A    between atoms: C_11  and  C_22
REMARK   11  A    between atoms: N_12  and  C_13
REMARK   12  A    between atoms: C_15  and  C_16
REMARK   13  A    between atoms: C_19  and  C_20
REMARK   14  A    between atoms: N_24  and  O_25
REMARK                            x       y       z     vdW  Elec       q    Type
REMARK                         _______ _______ _______ _____ _____    ______ ____
ROOT
ATOM      1  C   UNL     1       6.322   4.642  16.517  0.00  0.00    +0.000 C 
ENDROOT
BRANCH   1   2
ATOM      2  C   UNL     1       6.789   4.574  15.048  0.00  0.00    +0.000 C 
ATOM      3  O   UNL     1       7.575   5.377  14.545  0.00  0.00    +0.000 OA
ATOM      4  N   UNL     1       6.242   3.544  14.320  0.00  0.00    +0.000 N 
ATOM      5  H   UNL     1       5.808   2.728  14.740  0.00  0.00    +0.000 HD
BRANCH   4   6
ATOM      6  O   UNL     1       6.570   3.490  12.949  0.00  0.00    +0.000 OA
ATOM      7  H   UNL     1       6.039   2.723  12.637  0.00  0.00    +0.000 HD
ENDBRANCH   4   6
ENDBRANCH   1   2
BRANCH   1   8
ATOM      8  N   UNL     1       5.161   5.579  16.571  0.00  0.00    +0.000 N 
ATOM      9  H   UNL     1       4.747   5.688  15.642  0.00  0.00    +0.000 HD
BRANCH   8  10
ATOM     10  C   UNL     1       4.114   5.292  17.473  0.00  0.00    +0.000 A 
ATOM     11  C   UNL     1       3.558   6.252  18.324  0.00  0.00    +0.000 A 
ATOM     12  C   UNL     1       2.490   5.943  19.180  0.00  0.00    +0.000 A 
ATOM     13  C   UNL     1       1.945   6.970  20.127  0.00  0.00    +0.000 C 
ATOM     14  C   UNL     1       1.941   4.660  19.148  0.00  0.00    +0.000 A 
ATOM     15  F   UNL     1       0.923   4.371  19.968  0.00  0.00    +0.000 F 
ATOM     16  C   UNL     1       2.429   3.690  18.276  0.00  0.00    +0.000 A 
ATOM     17  C   UNL     1       1.811   2.325  18.226  0.00  0.00    +0.000 C 
ATOM     18  C   UNL     1       3.506   4.024  17.433  0.00  0.00    +0.000 A 
ENDBRANCH   8  10
ENDBRANCH   1   8
BRANCH   1  19
ATOM     19  C   UNL     1       7.471   5.128  17.439  0.00  0.00    +0.000 C 
BRANCH  19  20
ATOM     20  C   UNL     1       7.186   6.417  18.246  0.00  0.00    +0.000 C 
BRANCH  20  21
ATOM     21  C   UNL     1       7.692   7.701  17.576  0.00  0.00    +0.000 C 
BRANCH  21  22
ATOM     22  C   UNL     1       8.567   8.618  18.431  0.00  0.00    +0.000 C 
BRANCH  22  23
ATOM     23  N   UNL     1       8.355  10.028  18.119  0.00  0.00    +0.000 NA
ATOM     24  H   UNL     1       7.935  10.130  17.197  0.00  0.00    +0.000 HD
BRANCH  23  25
ATOM     25  C   UNL     1       9.629  10.750  18.139  0.00  0.00    +0.000 C 
BRANCH  25  29
ATOM     26  C   UNL     1       9.684  15.556  19.710  0.00  0.00    +0.000 C 
ATOM     27  C   UNL     1       9.680  14.089  20.005  0.00  0.00    +0.000 A 
ATOM     28  C   UNL     1       9.649  13.140  18.975  0.00  0.00    +0.000 A 
ATOM     29  C   UNL     1       9.668  11.763  19.258  0.00  0.00    +0.000 A 
ATOM     30  C   UNL     1       9.701  11.342  20.595  0.00  0.00    +0.000 A 
ATOM     31  C   UNL     1       9.729  12.282  21.627  0.00  0.00    +0.000 A 
ATOM     32  C   UNL     1       9.717  13.639  21.323  0.00  0.00    +0.000 A 
ATOM     33  F   UNL     1       9.747  14.526  22.331  0.00  0.00    +0.000 F 
ENDBRANCH  25  29
ENDBRANCH  23  25
ENDBRANCH  22  23
ENDBRANCH  21  22
ENDBRANCH  20  21
ENDBRANCH  19  20
ENDBRANCH   1  19
TORSDOF 11
ENDMDL
MODEL 4
REMARK VINA RESULT:      -7.9      1.595      2.708
REMARK  Name = 
REMARK  14 active torsions:
REMARK  status: ('A' for Active; 'I' for Inactive)
REMARK    1  A    between atoms: C_1  and  C_2
REMARK    2  A    between atoms: C_4  and  C_5
REMARK    3  A    between atoms: C_5  and  N_6
REMARK    4  A    between atoms: N_6  and  C_7
REMARK    5  A    between atoms: C_7  and  C_8
REMARK    6  A    between atoms: C_8  and  C_9
REMARK    7  A    between atoms: C_9  and  C_10
REMARK    8  A    between atoms: C_10  and  C_11
REMARK    9  A    between atoms: C_11  and  N_12
REMARK   10  A    between atoms: C_11  and  C_22
REMARK   11  A    between atoms: N_12  and  C_13
REMARK   12  A    between atoms: C_15  and  C_16
REMARK   13  A    between atoms: C_19  and  C_20
REMARK   14  A    between atoms: N_24  and  O_25
REMARK                            x       y       z     vdW  Elec       q    Type
REMARK                         _______ _______ _______ _____ _____    ______ ____
ROOT
ATOM      1  C   UNL     1       6.293   6.447  17.497  0.00  0.00    +0.000 C 
ENDROOT
BRANCH   1   2
ATOM      2  C   UNL     1       7.135   5.494  16.622  0.00  0.00    +0.000 C 
ATOM      3  O   UNL     1       7.806   4.568  17.076  0.00  0.00    +0.000 OA
ATOM      4  N   UNL     1       7.097   5.768  15.276  0.00  0.00    +0.000 N 
ATOM      5  H   UNL     1       6.378   6.337  14.838  0.00  0.00    +0.000 HD
BRANCH   4   6
ATOM      6  O   UNL     1       7.918   4.981  14.443  0.00  0.00    +0.000 OA
ATOM      7  H   UNL     1       8.410   4.431  15.092  0.00  0.00    +0.000 HD
ENDBRANCH   4   6
ENDBRANCH   1   2
BRANCH   1   8
ATOM      8  N   UNL     1       4.883   6.365  17.013  0.00  0.00    +0.000 N 
ATOM      9  H   UNL     1       4.853   5.974  16.069  0.00  0.00    +0.000 HD
BRANCH   8  10
ATOM     10  C   UNL     1       3.949   5.658  17.799  0.00  0.00    +0.000 A 
ATOM     11  C   UNL     1       3.230   6.247  18.842  0.00  0.00    +0.000 A 
ATOM     12  C   UNL     1       2.278   5.524  19.578  0.00  0.00    +0.000 A 
ATOM     13  C   UNL     1       1.559   6.157  20.732  0.00  0.00    +0.000 C 
ATOM     14  C   UNL     1       2.010   4.200  19.228  0.00  0.00    +0.000 A 
ATOM     15  F   UNL     1       1.101   3.515  19.934  0.00  0.00    +0.000 F 
ATOM     16  C   UNL     1       2.664   3.592  18.159  0.00  0.00    +0.000 A 
ATOM     17  C   UNL     1       2.344   2.179  17.771  0.00  0.00    +0.000 C 
ATOM     18  C   UNL     1       3.620   4.337  17.444  0.00  0.00    +0.000 A 
ENDBRANCH   8  10
ENDBRANCH   1   8
BRANCH   1  19
ATOM     19  C   UNL     1       6.829   7.900  17.402  0.00  0.00    +0.000 C 
BRANCH  19  20
ATOM     20  C   UNL     1       8.187   8.162  18.096  0.00  0.00    +0.000 C 
BRANCH  20  21
ATOM     21  C   UNL     1       8.528   9.648  18.265  0.00  0.00    +0.000 C 
BRANCH  21  22
ATOM     22  C   UNL     1       9.491  10.004  19.397  0.00  0.00    +0.000 C 
BRANCH  22  23
ATOM     23  N   UNL     1       9.218  11.323  19.958  0.00  0.00    +0.000 NA
ATOM     24  H   UNL     1       8.610  11.855  19.337  0.00  0.00    +0.000 HD
BRANCH  23  25
ATOM     25  C   UNL     1      10.467  12.065  20.145  0.00  0.00    +0.000 C 
BRANCH  25  29
ATOM     26  C   UNL     1       9.503  16.683  18.324  0.00  0.00    +0.000 C 
ATOM     27  C   UNL     1      10.184  15.355  18.214  0.00  0.00    +0.000 A 
ATOM     28  C   UNL     1      10.022  14.370  19.197  0.00  0.00    +0.000 A 
ATOM     29  C   UNL     1      10.646  13.116  19.076  0.00  0.00    +0.000 A 
ATOM     30  C   UNL     1      11.455  12.862  17.959  0.00  0.00    +0.000 A 
ATOM     31  C   UNL     1      11.623  13.840  16.976  0.00  0.00    +0.000 A 
ATOM     32  C   UNL     1      10.990  15.069  17.114  0.00  0.00    +0.000 A 
ATOM     33  F   UNL     1      11.164  15.995  16.156  0.00  0.00    +0.000 F 
ENDBRANCH  25  29
ENDBRANCH  23  25
ENDBRANCH  22  23
ENDBRANCH  21  22
ENDBRANCH  20  21
ENDBRANCH  19  20
ENDBRANCH   1  19
TORSDOF 11
ENDMDL
MODEL 5
REMARK VINA RESULT:      -7.9      4.854      8.256
REMARK  Name = 
REMARK  14 active torsions:
REMARK  status: ('A' for Active; 'I' for Inactive)
REMARK    1  A    between atoms: C_1  and  C_2
REMARK    2  A    between atoms: C_4  and  C_5
REMARK    3  A    between atoms: C_5  and  N_6
REMARK    4  A    between atoms: N_6  and  C_7
REMARK    5  A    between atoms: C_7  and  C_8
REMARK    6  A    between atoms: C_8  and  C_9
REMARK    7  A    between atoms: C_9  and  C_10
REMARK    8  A    between atoms: C_10  and  C_11
REMARK    9  A    between atoms: C_11  and  N_12
REMARK   10  A    between atoms: C_11  and  C_22
REMARK   11  A    between atoms: N_12  and  C_13
REMARK   12  A    between atoms: C_15  and  C_16
REMARK   13  A    between atoms: C_19  and  C_20
REMARK   14  A    between atoms: N_24  and  O_25
REMARK                            x       y       z     vdW  Elec       q    Type
REMARK                         _______ _______ _______ _____ _____    ______ ____
ROOT
ATOM      1  C   UNL     1       2.825   3.926  19.250  0.00  0.00    +0.000 C 
ENDROOT
BRANCH   1   2
ATOM      2  C   UNL     1       2.133   2.941  20.215  0.00  0.00    +0.000 C 
ATOM      3  O   UNL     1       1.578   1.905  19.849  0.00  0.00    +0.000 OA
ATOM      4  N   UNL     1       2.164   3.316  21.537  0.00  0.00    +0.000 N 
ATOM      5  H   UNL     1       2.812   4.003  21.911  0.00  0.00    +0.000 HD
BRANCH   4   6
ATOM      6  O   UNL     1       1.471   2.494  22.449  0.00  0.00    +0.000 OA
ATOM      7  H   UNL     1       1.922   2.696  23.299  0.00  0.00    +0.000 HD
ENDBRANCH   4   6
ENDBRANCH   1   2
BRANCH   1   8
ATOM      8  N   UNL     1       4.297   3.786  19.451  0.00  0.00    +0.000 N 
ATOM      9  H   UNL     1       4.559   2.798  19.487  0.00  0.00    +0.000 HD
BRANCH   8  10
ATOM     10  C   UNL     1       5.159   4.423  18.534  0.00  0.00    +0.000 A 
ATOM     11  C   UNL     1       6.148   5.331  18.922  0.00  0.00    +0.000 A 
ATOM     12  C   UNL     1       7.016   5.916  17.987  0.00  0.00    +0.000 A 
ATOM     13  C   UNL     1       8.032   6.932  18.415  0.00  0.00    +0.000 C 
ATOM     14  C   UNL     1       6.918   5.547  16.645  0.00  0.00    +0.000 A 
ATOM     15  F   UNL     1       7.748   6.109  15.757  0.00  0.00    +0.000 F 
ATOM     16  C   UNL     1       5.984   4.604  16.224  0.00  0.00    +0.000 A 
ATOM     17  C   UNL     1       5.910   4.190  14.784  0.00  0.00    +0.000 C 
ATOM     18  C   UNL     1       5.121   4.039  17.181  0.00  0.00    +0.000 A 
ENDBRANCH   8  10
ENDBRANCH   1   8
BRANCH   1  19
ATOM     19  C   UNL     1       2.363   5.382  19.524  0.00  0.00    +0.000 C 
BRANCH  19  20
ATOM     20  C   UNL     1       1.986   6.215  18.276  0.00  0.00    +0.000 C 
BRANCH  20  21
ATOM     21  C   UNL     1       2.982   7.332  17.945  0.00  0.00    +0.000 C 
BRANCH  21  22
ATOM     22  C   UNL     1       2.386   8.696  17.591  0.00  0.00    +0.000 C 
BRANCH  22  23
ATOM     23  N   UNL     1       1.917   9.413  18.771  0.00  0.00    +0.000 NA
ATOM     24  H   UNL     1       1.874   8.789  19.575  0.00  0.00    +0.000 HD
BRANCH  23  25
ATOM     25  C   UNL     1       0.581   9.966  18.532  0.00  0.00    +0.000 C 
BRANCH  25  29
ATOM     26  C   UNL     1      -0.085   9.483  23.521  0.00  0.00    +0.000 C 
ATOM     27  C   UNL     1      -0.363  10.191  22.232  0.00  0.00    +0.000 A 
ATOM     28  C   UNL     1       0.222   9.771  21.031  0.00  0.00    +0.000 A 
ATOM     29  C   UNL     1      -0.061  10.426  19.819  0.00  0.00    +0.000 A 
ATOM     30  C   UNL     1      -0.931  11.526  19.825  0.00  0.00    +0.000 A 
ATOM     31  C   UNL     1      -1.516  11.952  21.020  0.00  0.00    +0.000 A 
ATOM     32  C   UNL     1      -1.227  11.284  22.204  0.00  0.00    +0.000 A 
ATOM     33  F   UNL     1      -1.802  11.709  23.341  0.00  0.00    +0.000 F 
ENDBRANCH  25  29
ENDBRANCH  23  25
ENDBRANCH  22  23
ENDBRANCH  21  22
ENDBRANCH  20  21
ENDBRANCH  19  20
ENDBRANCH   1  19
TORSDOF 11
ENDMDL
MODEL 6
REMARK VINA RESULT:      -7.8      5.019      9.047
REMARK  Name = 
REMARK  14 active torsions:
REMARK  status: ('A' for Active; 'I' for Inactive)
REMARK    1  A    between atoms: C_1  and  C_2
REMARK    2  A    between atoms: C_4  and  C_5
REMARK    3  A    between atoms: C_5  and  N_6
REMARK    4  A    between atoms: N_6  and  C_7
REMARK    5  A    between atoms: C_7  and  C_8
REMARK    6  A    between atoms: C_8  and  C_9
REMARK    7  A    between atoms: C_9  and  C_10
REMARK    8  A    between atoms: C_10  and  C_11
REMARK    9  A    between atoms: C_11  and  N_12
REMARK   10  A    between atoms: C_11  and  C_22
REMARK   11  A    between atoms: N_12  and  C_13
REMARK   12  A    between atoms: C_15  and  C_16
REMARK   13  A    between atoms: C_19  and  C_20
REMARK   14  A    between atoms: N_24  and  O_25
REMARK                            x       y       z     vdW  Elec       q    Type
REMARK                         _______ _______ _______ _____ _____    ______ ____
ROOT
ATOM      1  C   UNL     1       2.531   4.749  19.199  0.00  0.00    +0.000 C 
ENDROOT
BRANCH   1   2
ATOM      2  C   UNL     1       1.547   3.846  18.426  0.00  0.00    +0.000 C 
ATOM      3  O   UNL     1       1.080   4.134  17.325  0.00  0.00    +0.000 OA
ATOM      4  N   UNL     1       1.208   2.682  19.074  0.00  0.00    +0.000 N 
ATOM      5  H   UNL     1       1.748   2.286  19.838  0.00  0.00    +0.000 HD
BRANCH   4   6
ATOM      6  O   UNL     1       0.245   1.864  18.450  0.00  0.00    +0.000 OA
ATOM      7  H   UNL     1      -0.451   1.793  19.141  0.00  0.00    +0.000 HD
ENDBRANCH   4   6
ENDBRANCH   1   2
BRANCH   1   8
ATOM      8  N   UNL     1       3.864   4.078  19.173  0.00  0.00    +0.000 N 
ATOM      9  H   UNL     1       3.757   3.078  18.988  0.00  0.00    +0.000 HD
BRANCH   8  10
ATOM     10  C   UNL     1       4.843   4.574  18.286  0.00  0.00    +0.000 A 
ATOM     11  C   UNL     1       5.836   5.477  18.675  0.00  0.00    +0.000 A 
ATOM     12  C   UNL     1       6.820   5.918  17.776  0.00  0.00    +0.000 A 
ATOM     13  C   UNL     1       7.842   6.932  18.196  0.00  0.00    +0.000 C 
ATOM     14  C   UNL     1       6.833   5.408  16.478  0.00  0.00    +0.000 A 
ATOM     15  F   UNL     1       7.774   5.833  15.625  0.00  0.00    +0.000 F 
ATOM     16  C   UNL     1       5.896   4.464  16.066  0.00  0.00    +0.000 A 
ATOM     17  C   UNL     1       5.940   3.897  14.678  0.00  0.00    +0.000 C 
ATOM     18  C   UNL     1       4.916   4.044  16.985  0.00  0.00    +0.000 A 
ENDBRANCH   8  10
ENDBRANCH   1   8
BRANCH   1  19
ATOM     19  C   UNL     1       2.048   4.969  20.657  0.00  0.00    +0.000 C 
BRANCH  19  20
ATOM     20  C   UNL     1       1.239   6.264  20.909  0.00  0.00    +0.000 C 
BRANCH  20  21
ATOM     21  C   UNL     1       1.893   7.531  20.346  0.00  0.00    +0.000 C 
BRANCH  21  22
ATOM     22  C   UNL     1       1.310   8.866  20.811  0.00  0.00    +0.000 C 
BRANCH  22  23
ATOM     23  N   UNL     1       0.032   9.160  20.172  0.00  0.00    +0.000 NA
ATOM     24  H   UNL     1      -0.132   8.525  19.393  0.00  0.00    +0.000 HD
BRANCH  23  25
ATOM     25  C   UNL     1       0.020  10.537  19.670  0.00  0.00    +0.000 C 
BRANCH  25  29
ATOM     26  C   UNL     1      -2.788   9.785  15.532  0.00  0.00    +0.000 C 
ATOM     27  C   UNL     1      -2.579  10.432  16.865  0.00  0.00    +0.000 A 
ATOM     28  C   UNL     1      -1.426  10.186  17.621  0.00  0.00    +0.000 A 
ATOM     29  C   UNL     1      -1.226  10.815  18.863  0.00  0.00    +0.000 A 
ATOM     30  C   UNL     1      -2.208  11.688  19.352  0.00  0.00    +0.000 A 
ATOM     31  C   UNL     1      -3.362  11.936  18.605  0.00  0.00    +0.000 A 
ATOM     32  C   UNL     1      -3.534  11.309  17.376  0.00  0.00    +0.000 A 
ATOM     33  F   UNL     1      -4.651  11.563  16.674  0.00  0.00    +0.000 F 
ENDBRANCH  25  29
ENDBRANCH  23  25
ENDBRANCH  22  23
ENDBRANCH  21  22
ENDBRANCH  20  21
ENDBRANCH  19  20
ENDBRANCH   1  19
TORSDOF 11
ENDMDL
MODEL 7
REMARK VINA RESULT:      -7.8      1.334      1.863
REMARK  Name = 
REMARK  14 active torsions:
REMARK  status: ('A' for Active; 'I' for Inactive)
REMARK    1  A    between atoms: C_1  and  C_2
REMARK    2  A    between atoms: C_4  and  C_5
REMARK    3  A    between atoms: C_5  and  N_6
REMARK    4  A    between atoms: N_6  and  C_7
REMARK    5  A    between atoms: C_7  and  C_8
REMARK    6  A    between atoms: C_8  and  C_9
REMARK    7  A    between atoms: C_9  and  C_10
REMARK    8  A    between atoms: C_10  and  C_11
REMARK    9  A    between atoms: C_11  and  N_12
REMARK   10  A    between atoms: C_11  and  C_22
REMARK   11  A    between atoms: N_12  and  C_13
REMARK   12  A    between atoms: C_15  and  C_16
REMARK   13  A    between atoms: C_19  and  C_20
REMARK   14  A    between atoms: N_24  and  O_25
REMARK                            x       y       z     vdW  Elec       q    Type
REMARK                         _______ _______ _______ _____ _____    ______ ____
ROOT
ATOM      1  C   UNL     1       6.248   4.842  17.493  0.00  0.00    +0.000 C 
ENDROOT
BRANCH   1   2
ATOM      2  C   UNL     1       6.274   4.723  15.955  0.00  0.00    +0.000 C 
ATOM      3  O   UNL     1       6.240   5.691  15.196  0.00  0.00    +0.000 OA
ATOM      4  N   UNL     1       6.321   3.434  15.481  0.00  0.00    +0.000 N 
ATOM      5  H   UNL     1       6.605   2.638  16.043  0.00  0.00    +0.000 HD
BRANCH   4   6
ATOM      6  O   UNL     1       6.257   3.268  14.082  0.00  0.00    +0.000 OA
ATOM      7  H   UNL     1       7.208   3.256  13.828  0.00  0.00    +0.000 HD
ENDBRANCH   4   6
ENDBRANCH   1   2
BRANCH   1   8
ATOM      8  N   UNL     1       5.194   5.839  17.845  0.00  0.00    +0.000 N 
ATOM      9  H   UNL     1       4.969   6.419  17.034  0.00  0.00    +0.000 HD
BRANCH   8  10
ATOM     10  C   UNL     1       3.979   5.363  18.381  0.00  0.00    +0.000 A 
ATOM     11  C   UNL     1       3.496   4.072  18.145  0.00  0.00    +0.000 A 
ATOM     12  C   UNL     1       2.303   3.617  18.727  0.00  0.00    +0.000 A 
ATOM     13  C   UNL     1       1.771   2.250  18.416  0.00  0.00    +0.000 C 
ATOM     14  C   UNL     1       1.607   4.457  19.598  0.00  0.00    +0.000 A 
ATOM     15  F   UNL     1       0.469   4.018  20.150  0.00  0.00    +0.000 F 
ATOM     16  C   UNL     1       2.083   5.730  19.903  0.00  0.00    +0.000 A 
ATOM     17  C   UNL     1       1.345   6.611  20.866  0.00  0.00    +0.000 C 
ATOM     18  C   UNL     1       3.277   6.164  19.300  0.00  0.00    +0.000 A 
ENDBRANCH   8  10
ENDBRANCH   1   8
BRANCH   1  19
ATOM     19  C   UNL     1       7.634   5.284  18.035  0.00  0.00    +0.000 C 
BRANCH  19  20
ATOM     20  C   UNL     1       7.718   6.738  18.558  0.00  0.00    +0.000 C 
BRANCH  20  21
ATOM     21  C   UNL     1       7.815   7.797  17.453  0.00  0.00    +0.000 C 
BRANCH  21  22
ATOM     22  C   UNL     1       8.057   9.237  17.906  0.00  0.00    +0.000 C 
BRANCH  22  23
ATOM     23  N   UNL     1       8.917   9.305  19.083  0.00  0.00    +0.000 NA
ATOM     24  H   UNL     1       8.364   9.483  19.920  0.00  0.00    +0.000 HD
BRANCH  23  25
ATOM     25  C   UNL     1       9.901  10.381  18.932  0.00  0.00    +0.000 C 
BRANCH  25  29
ATOM     26  C   UNL     1      10.837  15.005  20.751  0.00  0.00    +0.000 C 
ATOM     27  C   UNL     1      10.204  13.656  20.885  0.00  0.00    +0.000 A 
ATOM     28  C   UNL     1      10.335  12.688  19.881  0.00  0.00    +0.000 A 
ATOM     29  C   UNL     1       9.756  11.414  20.024  0.00  0.00    +0.000 A 
ATOM     30  C   UNL     1       9.025  11.123  21.184  0.00  0.00    +0.000 A 
ATOM     31  C   UNL     1       8.887  12.084  22.187  0.00  0.00    +0.000 A 
ATOM     32  C   UNL     1       9.475  13.334  22.028  0.00  0.00    +0.000 A 
ATOM     33  F   UNL     1       9.332  14.243  23.007  0.00  0.00    +0.000 F 
ENDBRANCH  25  29
ENDBRANCH  23  25
ENDBRANCH  22  23
ENDBRANCH  21  22
ENDBRANCH  20  21
ENDBRANCH  19  20
ENDBRANCH   1  19
TORSDOF 11
ENDMDL
MODEL 8
REMARK VINA RESULT:      -7.7      5.156      8.617
REMARK  Name = 
REMARK  14 active torsions:
REMARK  status: ('A' for Active; 'I' for Inactive)
REMARK    1  A    between atoms: C_1  and  C_2
REMARK    2  A    between atoms: C_4  and  C_5
REMARK    3  A    between atoms: C_5  and  N_6
REMARK    4  A    between atoms: N_6  and  C_7
REMARK    5  A    between atoms: C_7  and  C_8
REMARK    6  A    between atoms: C_8  and  C_9
REMARK    7  A    between atoms: C_9  and  C_10
REMARK    8  A    between atoms: C_10  and  C_11
REMARK    9  A    between atoms: C_11  and  N_12
REMARK   10  A    between atoms: C_11  and  C_22
REMARK   11  A    between atoms: N_12  and  C_13
REMARK   12  A    between atoms: C_15  and  C_16
REMARK   13  A    between atoms: C_19  and  C_20
REMARK   14  A    between atoms: N_24  and  O_25
REMARK                            x       y       z     vdW  Elec       q    Type
REMARK                         _______ _______ _______ _____ _____    ______ ____
ROOT
ATOM      1  C   UNL     1       5.567   4.941  17.399  0.00  0.00    +0.000 C 
ENDROOT
BRANCH   1   2
ATOM      2  C   UNL     1       6.744   5.477  18.240  0.00  0.00    +0.000 C 
ATOM      3  O   UNL     1       7.643   6.182  17.782  0.00  0.00    +0.000 OA
ATOM      4  N   UNL     1       6.729   5.091  19.559  0.00  0.00    +0.000 N 
ATOM      5  H   UNL     1       5.902   4.740  20.032  0.00  0.00    +0.000 HD
BRANCH   4   6
ATOM      6  O   UNL     1       7.829   5.482  20.350  0.00  0.00    +0.000 OA
ATOM      7  H   UNL     1       8.174   4.619  20.672  0.00  0.00    +0.000 HD
ENDBRANCH   4   6
ENDBRANCH   1   2
BRANCH   1   8
ATOM      8  N   UNL     1       6.095   3.834  16.550  0.00  0.00    +0.000 N 
ATOM      9  H   UNL     1       5.469   3.026  16.588  0.00  0.00    +0.000 HD
BRANCH   8  10
ATOM     10  C   UNL     1       6.360   4.104  15.190  0.00  0.00    +0.000 A 
ATOM     11  C   UNL     1       7.455   4.861  14.764  0.00  0.00    +0.000 A 
ATOM     12  C   UNL     1       7.712   5.076  13.401  0.00  0.00    +0.000 A 
ATOM     13  C   UNL     1       8.858   5.939  12.964  0.00  0.00    +0.000 C 
ATOM     14  C   UNL     1       6.881   4.483  12.450  0.00  0.00    +0.000 A 
ATOM     15  F   UNL     1       7.131   4.692  11.151  0.00  0.00    +0.000 F 
ATOM     16  C   UNL     1       5.813   3.675  12.831  0.00  0.00    +0.000 A 
ATOM     17  C   UNL     1       4.947   3.015  11.800  0.00  0.00    +0.000 C 
ATOM     18  C   UNL     1       5.572   3.482  14.204  0.00  0.00    +0.000 A 
ENDBRANCH   8  10
ENDBRANCH   1   8
BRANCH   1  19
ATOM     19  C   UNL     1       4.956   6.069  16.525  0.00  0.00    +0.000 C 
BRANCH  19  20
ATOM     20  C   UNL     1       4.592   7.375  17.270  0.00  0.00    +0.000 C 
BRANCH  20  21
ATOM     21  C   UNL     1       3.085   7.604  17.433  0.00  0.00    +0.000 C 
BRANCH  21  22
ATOM     22  C   UNL     1       2.571   7.780  18.863  0.00  0.00    +0.000 C 
BRANCH  22  23
ATOM     23  N   UNL     1       1.505   6.838  19.184  0.00  0.00    +0.000 NA
ATOM     24  H   UNL     1       0.689   7.331  19.542  0.00  0.00    +0.000 HD
BRANCH  23  25
ATOM     25  C   UNL     1       1.959   5.881  20.197  0.00  0.00    +0.000 C 
BRANCH  25  29
ATOM     26  C   UNL     1       4.812   1.709  20.338  0.00  0.00    +0.000 C 
ATOM     27  C   UNL     1       3.804   2.576  19.651  0.00  0.00    +0.000 A 
ATOM     28  C   UNL     1       3.362   3.774  20.226  0.00  0.00    +0.000 A 
ATOM     29  C   UNL     1       2.431   4.595  19.564  0.00  0.00    +0.000 A 
ATOM     30  C   UNL     1       1.931   4.192  18.317  0.00  0.00    +0.000 A 
ATOM     31  C   UNL     1       2.366   2.998  17.739  0.00  0.00    +0.000 A 
ATOM     32  C   UNL     1       3.292   2.206  18.408  0.00  0.00    +0.000 A 
ATOM     33  F   UNL     1       3.697   1.062  17.833  0.00  0.00    +0.000 F 
ENDBRANCH  25  29
ENDBRANCH  23  25
ENDBRANCH  22  23
ENDBRANCH  21  22
ENDBRANCH  20  21
ENDBRANCH  19  20
ENDBRANCH   1  19
TORSDOF 11
ENDMDL
MODEL 9
REMARK VINA RESULT:      -7.7      5.750      8.183
REMARK  Name = 
REMARK  14 active torsions:
REMARK  status: ('A' for Active; 'I' for Inactive)
REMARK    1  A    between atoms: C_1  and  C_2
REMARK    2  A    between atoms: C_4  and  C_5
REMARK    3  A    between atoms: C_5  and  N_6
REMARK    4  A    between atoms: N_6  and  C_7
REMARK    5  A    between atoms: C_7  and  C_8
REMARK    6  A    between atoms: C_8  and  C_9
REMARK    7  A    between atoms: C_9  and  C_10
REMARK    8  A    between atoms: C_10  and  C_11
REMARK    9  A    between atoms: C_11  and  N_12
REMARK   10  A    between atoms: C_11  and  C_22
REMARK   11  A    between atoms: N_12  and  C_13
REMARK   12  A    between atoms: C_15  and  C_16
REMARK   13  A    between atoms: C_19  and  C_20
REMARK   14  A    between atoms: N_24  and  O_25
REMARK                            x       y       z     vdW  Elec       q    Type
REMARK                         _______ _______ _______ _____ _____    ______ ____
ROOT
ATOM      1  C   UNL     1       4.720   4.709  16.971  0.00  0.00    +0.000 C 
ENDROOT
BRANCH   1   2
ATOM      2  C   UNL     1       4.363   3.531  17.901  0.00  0.00    +0.000 C 
ATOM      3  O   UNL     1       3.321   2.883  17.811  0.00  0.00    +0.000 OA
ATOM      4  N   UNL     1       5.301   3.261  18.868  0.00  0.00    +0.000 N 
ATOM      5  H   UNL     1       6.264   3.583  18.824  0.00  0.00    +0.000 HD
BRANCH   4   6
ATOM      6  O   UNL     1       4.983   2.250  19.799  0.00  0.00    +0.000 OA
ATOM      7  H   UNL     1       5.707   2.337  20.459  0.00  0.00    +0.000 HD
ENDBRANCH   4   6
ENDBRANCH   1   2
BRANCH   1   8
ATOM      8  N   UNL     1       6.147   4.541  16.566  0.00  0.00    +0.000 N 
ATOM      9  H   UNL     1       6.552   3.721  17.024  0.00  0.00    +0.000 HD
BRANCH   8  10
ATOM     10  C   UNL     1       6.443   4.450  15.190  0.00  0.00    +0.000 A 
ATOM     11  C   UNL     1       5.673   3.706  14.292  0.00  0.00    +0.000 A 
ATOM     12  C   UNL     1       5.972   3.670  12.921  0.00  0.00    +0.000 A 
ATOM     13  C   UNL     1       5.169   2.819  11.983  0.00  0.00    +0.000 C 
ATOM     14  C   UNL     1       7.036   4.433  12.437  0.00  0.00    +0.000 A 
ATOM     15  F   UNL     1       7.317   4.394  11.129  0.00  0.00    +0.000 F 
ATOM     16  C   UNL     1       7.794   5.232  13.289  0.00  0.00    +0.000 A 
ATOM     17  C   UNL     1       8.913   6.074  12.753  0.00  0.00    +0.000 C 
ATOM     18  C   UNL     1       7.478   5.243  14.660  0.00  0.00    +0.000 A 
ENDBRANCH   8  10
ENDBRANCH   1   8
BRANCH   1  19
ATOM     19  C   UNL     1       4.504   6.066  17.692  0.00  0.00    +0.000 C 
BRANCH  19  20
ATOM     20  C   UNL     1       3.030   6.489  17.902  0.00  0.00    +0.000 C 
BRANCH  20  21
ATOM     21  C   UNL     1       2.848   7.971  18.251  0.00  0.00    +0.000 C 
BRANCH  21  22
ATOM     22  C   UNL     1       1.775   8.730  17.469  0.00  0.00    +0.000 C 
BRANCH  22  23
ATOM     23  N   UNL     1       1.544  10.066  18.008  0.00  0.00    +0.000 NA
ATOM     24  H   UNL     1       2.200  10.266  18.761  0.00  0.00    +0.000 HD
BRANCH  23  25
ATOM     25  C   UNL     1       0.179  10.174  18.531  0.00  0.00    +0.000 C 
BRANCH  25  29
ATOM     26  C   UNL     1      -1.394  11.643  23.107  0.00  0.00    +0.000 C 
ATOM     27  C   UNL     1      -0.629  10.699  22.232  0.00  0.00    +0.000 A 
ATOM     28  C   UNL     1      -0.590  10.865  20.842  0.00  0.00    +0.000 A 
ATOM     29  C   UNL     1       0.149   9.987  20.029  0.00  0.00    +0.000 A 
ATOM     30  C   UNL     1       0.841   8.923  20.625  0.00  0.00    +0.000 A 
ATOM     31  C   UNL     1       0.804   8.751  22.010  0.00  0.00    +0.000 A 
ATOM     32  C   UNL     1       0.073   9.635  22.795  0.00  0.00    +0.000 A 
ATOM     33  F   UNL     1       0.053   9.451  24.125  0.00  0.00    +0.000 F 
ENDBRANCH  25  29
ENDBRANCH  23  25
ENDBRANCH  22  23
ENDBRANCH  21  22
ENDBRANCH  20  21
ENDBRANCH  19  20
ENDBRANCH   1  19
TORSDOF 11
ENDMDL
