MODEL 1
REMARK VINA RESULT:      -8.2      0.000      0.000
REMARK  Name = 
REMARK  7 active torsions:
REMARK  status: ('A' for Active; 'I' for Inactive)
REMARK    1  A    between atoms: C_1  and  C_2
REMARK    2  A    between atoms: C_2  and  C_3
REMARK    3  A    between atoms: C_3  and  C_4
REMARK    4  A    between atoms: C_8  and  C_9
REMARK    5  A    between atoms: N_11  and  C_12
REMARK    6  A    between atoms: C_12  and  C_13
REMARK    7  A    between atoms: C_17  and  C_19
REMARK                            x       y       z     vdW  Elec       q    Type
REMARK                         _______ _______ _______ _____ _____    ______ ____
ROOT
ATOM      1  C   UNL     1       2.045   4.664  19.162  0.00  0.00    +0.000 C 
ATOM      2  C   UNL     1       2.058   5.740  18.059  0.00  0.00    +0.000 C 
ATOM      3  C   UNL     1       2.701   7.047  18.523  0.00  0.00    +0.000 C 
ATOM      4  N   UNL     1       2.052   7.543  19.738  0.00  0.00    +0.000 N 
ATOM      5  C   UNL     1       1.453   8.810  19.691  0.00  0.00    +0.000 C 
ATOM      6  O   UNL     1       1.414   9.477  18.654  0.00  0.00    +0.000 OA
ATOM      7  C   UNL     1       2.018   6.587  20.846  0.00  0.00    +0.000 C 
ATOM      8  C   UNL     1       1.409   5.251  20.429  0.00  0.00    +0.000 C 
ENDROOT
BRANCH   5   9
ATOM      9  C   UNL     1       0.796   9.411  20.885  0.00  0.00    +0.000 A 
ATOM     10  C   UNL     1       1.031   8.978  22.188  0.00  0.00    +0.000 A 
ATOM     11  C   UNL     1       0.303   9.558  23.211  0.00  0.00    +0.000 A 
ATOM     12  N   UNL     1      -0.556  10.582  23.033  0.00  0.00    +0.000 NA
ATOM     13  C   UNL     1      -0.687  11.057  21.777  0.00  0.00    +0.000 A 
ATOM     14  C   UNL     1      -0.048  10.508  20.681  0.00  0.00    +0.000 A 
ENDBRANCH   5   9
BRANCH   1  15
ATOM     15  C   UNL     1       3.439   4.084  19.463  0.00  0.00    +0.000 C 
BRANCH  15  18
ATOM     16  C   UNL     1       4.714   3.733  17.353  0.00  0.00    +0.000 C 
ATOM     17  O   UNL     1       4.180   2.646  17.171  0.00  0.00    +0.000 OA
ATOM     18  N   UNL     1       4.426   4.486  18.481  0.00  0.00    +0.000 N 
ATOM     19  H   UNL     1       4.862   5.393  18.584  0.00  0.00    +0.000 HD
BRANCH  16  24
ATOM     20  C   UNL     1       6.983   4.730  16.615  0.00  0.00    +0.000 A 
ATOM     21  N   UNL     1       7.599   5.222  15.463  0.00  0.00    +0.000 NA
ATOM     22  N   UNL     1       6.793   5.214  14.420  0.00  0.00    +0.000 NA
ATOM     23  S   UNL     1       5.289   4.604  14.777  0.00  0.00    +0.000 S 
ATOM     24  C   UNL     1       5.665   4.318  16.429  0.00  0.00    +0.000 A 
BRANCH  20  25
ATOM     25  C   UNL     1       7.816   4.698  17.858  0.00  0.00    +0.000 C 
BRANCH  25  27
ATOM     26  C   UNL     1       7.751   7.217  17.982  0.00  0.00    +0.000 C 
ATOM     27  C   UNL     1       7.576   5.918  18.754  0.00  0.00    +0.000 C 
ENDBRANCH  25  27
ENDBRANCH  20  25
ENDBRANCH  16  24
ENDBRANCH  15  18
ENDBRANCH   1  15
TORSDOF 6
ENDMDL
MODEL 2
REMARK VINA RESULT:      -8.2      1.320      1.434
REMARK  Name = 
REMARK  7 active torsions:
REMARK  status: ('A' for Active; 'I' for Inactive)
REMARK    1  A    between atoms: C_1  and  C_2
REMARK    2  A    between atoms: C_2  and  C_3
REMARK    3  A    between atoms: C_3  and  C_4
REMARK    4  A    between atoms: C_8  and  C_9
REMARK    5  A    between atoms: N_11  and  C_12
REMARK    6  A    between atoms: C_12  and  C_13
REMARK    7  A    between atoms: C_17  and  C_19
REMARK                            x       y       z     vdW  Elec       q    Type
REMARK                         _______ _______ _______ _____ _____    ______ ____
ROOT
ATOM      1  C   UNL     1       1.716   3.942  18.822  0.00  0.00    +0.000 C 
ATOM      2  C   UNL     1       1.650   5.113  17.822  0.00  0.00    +0.000 C 
ATOM      3  C   UNL     1       2.463   6.322  18.283  0.00  0.00    +0.000 C 
ATOM      4  N   UNL     1       2.050   6.747  19.622  0.00  0.00    +0.000 N 
ATOM      5  C   UNL     1       1.558   8.051  19.775  0.00  0.00    +0.000 C 
ATOM      6  O   UNL     1       1.418   8.813  18.815  0.00  0.00    +0.000 OA
ATOM      7  C   UNL     1       2.106   5.696  20.639  0.00  0.00    +0.000 C 
ATOM      8  C   UNL     1       1.332   4.451  20.217  0.00  0.00    +0.000 C 
ENDROOT
BRANCH   5   9
ATOM      9  C   UNL     1       1.144   8.582  21.103  0.00  0.00    +0.000 A 
ATOM     10  C   UNL     1       2.048   8.982  22.084  0.00  0.00    +0.000 A 
ATOM     11  C   UNL     1       1.549   9.384  23.310  0.00  0.00    +0.000 A 
ATOM     12  N   UNL     1       0.233   9.497  23.582  0.00  0.00    +0.000 NA
ATOM     13  C   UNL     1      -0.624   9.207  22.582  0.00  0.00    +0.000 A 
ATOM     14  C   UNL     1      -0.224   8.743  21.342  0.00  0.00    +0.000 A 
ENDBRANCH   5   9
BRANCH   1  15
ATOM     15  C   UNL     1       3.087   3.241  18.848  0.00  0.00    +0.000 C 
BRANCH  15  18
ATOM     16  C   UNL     1       5.242   4.293  18.179  0.00  0.00    +0.000 C 
ATOM     17  O   UNL     1       5.601   4.380  19.347  0.00  0.00    +0.000 OA
ATOM     18  N   UNL     1       3.997   3.775  17.855  0.00  0.00    +0.000 N 
ATOM     19  H   UNL     1       3.745   3.690  16.880  0.00  0.00    +0.000 HD
BRANCH  16  24
ATOM     20  C   UNL     1       6.693   5.922  16.790  0.00  0.00    +0.000 A 
ATOM     21  N   UNL     1       7.437   5.934  15.610  0.00  0.00    +0.000 NA
ATOM     22  N   UNL     1       7.379   4.783  14.969  0.00  0.00    +0.000 NA
ATOM     23  S   UNL     1       6.455   3.653  15.762  0.00  0.00    +0.000 S 
ATOM     24  C   UNL     1       6.063   4.708  17.060  0.00  0.00    +0.000 A 
BRANCH  20  25
ATOM     25  C   UNL     1       6.693   7.185  17.594  0.00  0.00    +0.000 C 
BRANCH  25  27
ATOM     26  C   UNL     1       8.289   9.079  18.066  0.00  0.00    +0.000 C 
ATOM     27  C   UNL     1       8.095   7.571  18.076  0.00  0.00    +0.000 C 
ENDBRANCH  25  27
ENDBRANCH  20  25
ENDBRANCH  16  24
ENDBRANCH  15  18
ENDBRANCH   1  15
TORSDOF 6
ENDMDL
MODEL 3
REMARK VINA RESULT:      -8.1      1.298      1.536
REMARK  Name = 
REMARK  7 active torsions:
REMARK  status: ('A' for Active; 'I' for Inactive)
REMARK    1  A    between atoms: C_1  and  C_2
REMARK    2  A    between atoms: C_2  and  C_3
REMARK    3  A    between atoms: C_3  and  C_4
REMARK    4  A    between atoms: C_8  and  C_9
REMARK    5  A    between atoms: N_11  and  C_12
REMARK    6  A    between atoms: C_12  and  C_13
REMARK    7  A    between atoms: C_17  and  C_19
REMARK                            x       y       z     vdW  Elec       q    Type
REMARK                         _______ _______ _______ _____ _____    ______ ____
ROOT
ATOM      1  C   UNL     1       2.107   4.708  19.352  0.00  0.00    +0.000 C 
ATOM      2  C   UNL     1       1.914   5.651  18.149  0.00  0.00    +0.000 C 
ATOM      3  C   UNL     1       2.502   7.041  18.395  0.00  0.00    +0.000 C 
ATOM      4  N   UNL     1       1.955   7.628  19.620  0.00  0.00    +0.000 N 
ATOM      5  C   UNL     1       1.258   8.840  19.513  0.00  0.00    +0.000 C 
ATOM      6  O   UNL     1       1.053   9.382  18.424  0.00  0.00    +0.000 OA
ATOM      7  C   UNL     1       2.118   6.801  20.818  0.00  0.00    +0.000 C 
ATOM      8  C   UNL     1       1.571   5.391  20.617  0.00  0.00    +0.000 C 
ENDROOT
BRANCH   5   9
ATOM      9  C   UNL     1       0.693   9.527  20.707  0.00  0.00    +0.000 A 
ATOM     10  C   UNL     1       0.188   8.850  21.814  0.00  0.00    +0.000 A 
ATOM     11  C   UNL     1      -0.385   9.592  22.831  0.00  0.00    +0.000 A 
ATOM     12  N   UNL     1      -0.403  10.940  22.856  0.00  0.00    +0.000 NA
ATOM     13  C   UNL     1       0.188  11.577  21.824  0.00  0.00    +0.000 A 
ATOM     14  C   UNL     1       0.735  10.925  20.735  0.00  0.00    +0.000 A 
ENDBRANCH   5   9
BRANCH   1  15
ATOM     15  C   UNL     1       3.566   4.257  19.544  0.00  0.00    +0.000 C 
BRANCH  15  18
ATOM     16  C   UNL     1       5.727   5.051  18.595  0.00  0.00    +0.000 C 
ATOM     17  O   UNL     1       6.215   5.167  19.712  0.00  0.00    +0.000 OA
ATOM     18  N   UNL     1       4.412   4.642  18.432  0.00  0.00    +0.000 N 
ATOM     19  H   UNL     1       4.051   4.528  17.494  0.00  0.00    +0.000 HD
BRANCH  16  24
ATOM     20  C   UNL     1       7.038   6.494  16.896  0.00  0.00    +0.000 A 
ATOM     21  N   UNL     1       7.701   6.353  15.676  0.00  0.00    +0.000 NA
ATOM     22  N   UNL     1       7.630   5.124  15.205  0.00  0.00    +0.000 NA
ATOM     23  S   UNL     1       6.791   4.100  16.210  0.00  0.00    +0.000 S 
ATOM     24  C   UNL     1       6.460   5.320  17.374  0.00  0.00    +0.000 A 
BRANCH  20  25
ATOM     25  C   UNL     1       7.059   7.856  17.515  0.00  0.00    +0.000 C 
BRANCH  25  27
ATOM     26  C   UNL     1       8.647   9.605  18.398  0.00  0.00    +0.000 C 
ATOM     27  C   UNL     1       8.344   8.118  18.308  0.00  0.00    +0.000 C 
ENDBRANCH  25  27
ENDBRANCH  20  25
ENDBRANCH  16  24
ENDBRANCH  15  18
ENDBRANCH   1  15
TORSDOF 6
ENDMDL
MODEL 4
REMARK VINA RESULT:      -8.1      1.384      1.659
REMARK  Name = 
REMARK  7 active torsions:
REMARK  status: ('A' for Active; 'I' for Inactive)
REMARK    1  A    between atoms: C_1  and  C_2
REMARK    2  A    between atoms: C_2  and  C_3
REMARK    3  A    between atoms: C_3  and  C_4
REMARK    4  A    between atoms: C_8  and  C_9
REMARK    5  A    between atoms: N_11  and  C_12
REMARK    6  A    between atoms: C_12  and  C_13
REMARK    7  A    between atoms: C_17  and  C_19
REMARK                            x       y       z     vdW  Elec       q    Type
REMARK                         _______ _______ _______ _____ _____    ______ ____
ROOT
ATOM      1  C   UNL     1       2.297   3.678  19.401  0.00  0.00    +0.000 C 
ATOM      2  C   UNL     1       1.881   4.367  18.088  0.00  0.00    +0.000 C 
ATOM      3  C   UNL     1       2.546   5.732  17.905  0.00  0.00    +0.000 C 
ATOM      4  N   UNL     1       2.287   6.595  19.060  0.00  0.00    +0.000 N 
ATOM      5  C   UNL     1       1.617   7.806  18.836  0.00  0.00    +0.000 C 
ATOM      6  O   UNL     1       1.202   8.127  17.720  0.00  0.00    +0.000 OA
ATOM      7  C   UNL     1       2.676   6.021  20.349  0.00  0.00    +0.000 C 
ATOM      8  C   UNL     1       2.061   4.643  20.571  0.00  0.00    +0.000 C 
ENDROOT
BRANCH   5   9
ATOM      9  C   UNL     1       1.337   8.762  19.943  0.00  0.00    +0.000 A 
ATOM     10  C   UNL     1       1.339   8.400  21.287  0.00  0.00    +0.000 A 
ATOM     11  C   UNL     1       0.986   9.356  22.224  0.00  0.00    +0.000 A 
ATOM     12  N   UNL     1       0.727  10.643  21.918  0.00  0.00    +0.000 NA
ATOM     13  C   UNL     1       0.836  10.997  20.622  0.00  0.00    +0.000 A 
ATOM     14  C   UNL     1       1.126  10.103  19.607  0.00  0.00    +0.000 A 
ENDBRANCH   5   9
BRANCH   1  15
ATOM     15  C   UNL     1       3.751   3.172  19.389  0.00  0.00    +0.000 C 
BRANCH  15  18
ATOM     16  C   UNL     1       5.653   4.526  18.522  0.00  0.00    +0.000 C 
ATOM     17  O   UNL     1       6.009   4.815  19.658  0.00  0.00    +0.000 OA
ATOM     18  N   UNL     1       4.526   3.748  18.308  0.00  0.00    +0.000 N 
ATOM     19  H   UNL     1       4.277   3.503  17.358  0.00  0.00    +0.000 HD
BRANCH  16  24
ATOM     20  C   UNL     1       7.253   6.005  17.130  0.00  0.00    +0.000 A 
ATOM     21  N   UNL     1       7.763   6.084  15.833  0.00  0.00    +0.000 NA
ATOM     22  N   UNL     1       7.278   5.145  15.045  0.00  0.00    +0.000 NA
ATOM     23  S   UNL     1       6.217   4.134  15.830  0.00  0.00    +0.000 S 
ATOM     24  C   UNL     1       6.360   4.954  17.333  0.00  0.00    +0.000 A 
BRANCH  20  25
ATOM     25  C   UNL     1       7.742   7.029  18.105  0.00  0.00    +0.000 C 
BRANCH  25  27
ATOM     26  C   UNL     1       8.659   9.366  18.356  0.00  0.00    +0.000 C 
ATOM     27  C   UNL     1       7.838   8.427  17.485  0.00  0.00    +0.000 C 
ENDBRANCH  25  27
ENDBRANCH  20  25
ENDBRANCH  16  24
ENDBRANCH  15  18
ENDBRANCH   1  15
TORSDOF 6
ENDMDL
MODEL 5
REMARK VINA RESULT:      -8.1      0.635      1.197
REMARK  Name = 
REMARK  7 active torsions:
REMARK  status: ('A' for Active; 'I' for Inactive)
REMARK    1  A    between atoms: C_1  and  C_2
REMARK    2  A    between atoms: C_2  and  C_3
REMARK    3  A    between atoms: C_3  and  C_4
REMARK    4  A    between atoms: C_8  and  C_9
REMARK    5  A    between atoms: N_11  and  C_12
REMARK    6  A    between atoms: C_12  and  C_13
REMARK    7  A    between atoms: C_17  and  C_19
REMARK                            x       y       z     vdW  Elec       q    Type
REMARK                         _______ _______ _______ _____ _____    ______ ____
ROOT
ATOM      1  C   UNL     1       2.281   5.115  19.150  0.00  0.00    +0.000 C 
ATOM      2  C   UNL     1       2.203   6.194  18.052  0.00  0.00    +0.000 C 
ATOM      3  C   UNL     1       2.695   7.558  18.537  0.00  0.00    +0.000 C 
ATOM      4  N   UNL     1       1.972   7.975  19.739  0.00  0.00    +0.000 N 
ATOM      5  C   UNL     1       1.243   9.172  19.686  0.00  0.00    +0.000 C 
ATOM      6  O   UNL     1       1.156   9.838  18.651  0.00  0.00    +0.000 OA
ATOM      7  C   UNL     1       2.016   7.012  20.842  0.00  0.00    +0.000 C 
ATOM      8  C   UNL     1       1.561   5.623  20.405  0.00  0.00    +0.000 C 
ENDROOT
BRANCH   5   9
ATOM      9  C   UNL     1       0.502   9.692  20.868  0.00  0.00    +0.000 A 
ATOM     10  C   UNL     1      -0.353  10.790  20.814  0.00  0.00    +0.000 A 
ATOM     11  C   UNL     1      -0.925  11.233  21.993  0.00  0.00    +0.000 A 
ATOM     12  N   UNL     1      -0.776  10.608  23.179  0.00  0.00    +0.000 NA
ATOM     13  C   UNL     1      -0.031   9.484  23.187  0.00  0.00    +0.000 A 
ATOM     14  C   UNL     1       0.629   8.995  22.074  0.00  0.00    +0.000 A 
ENDBRANCH   5   9
BRANCH   1  15
ATOM     15  C   UNL     1       3.722   4.684  19.478  0.00  0.00    +0.000 C 
BRANCH  15  18
ATOM     16  C   UNL     1       4.961   4.084  17.403  0.00  0.00    +0.000 C 
ATOM     17  O   UNL     1       4.511   2.945  17.422  0.00  0.00    +0.000 OA
ATOM     18  N   UNL     1       4.647   4.990  18.404  0.00  0.00    +0.000 N 
ATOM     19  H   UNL     1       5.012   5.931  18.341  0.00  0.00    +0.000 HD
BRANCH  16  24
ATOM     20  C   UNL     1       6.889   5.488  16.404  0.00  0.00    +0.000 A 
ATOM     21  N   UNL     1       7.529   5.689  15.180  0.00  0.00    +0.000 NA
ATOM     22  N   UNL     1       6.990   4.979  14.209  0.00  0.00    +0.000 NA
ATOM     23  S   UNL     1       5.722   4.040  14.730  0.00  0.00    +0.000 S 
ATOM     24  C   UNL     1       5.836   4.576  16.359  0.00  0.00    +0.000 A 
BRANCH  20  25
ATOM     25  C   UNL     1       7.427   6.252  17.574  0.00  0.00    +0.000 C 
BRANCH  25  27
ATOM     26  C   UNL     1       8.294   8.572  18.053  0.00  0.00    +0.000 C 
ATOM     27  C   UNL     1       7.153   7.756  17.465  0.00  0.00    +0.000 C 
ENDBRANCH  25  27
ENDBRANCH  20  25
ENDBRANCH  16  24
ENDBRANCH  15  18
ENDBRANCH   1  15
TORSDOF 6
ENDMDL
MODEL 6
REMARK VINA RESULT:      -8.0      1.260      1.532
REMARK  Name = 
REMARK  7 active torsions:
REMARK  status: ('A' for Active; 'I' for Inactive)
REMARK    1  A    between atoms: C_1  and  C_2
REMARK    2  A    between atoms: C_2  and  C_3
REMARK    3  A    between atoms: C_3  and  C_4
REMARK    4  A    between atoms: C_8  and  C_9
REMARK    5  A    between atoms: N_11  and  C_12
REMARK    6  A    between atoms: C_12  and  C_13
REMARK    7  A    between atoms: C_17  and  C_19
REMARK                            x       y       z     vdW  Elec       q    Type
REMARK                         _______ _______ _______ _____ _____    ______ ____
ROOT
ATOM      1  C   UNL     1       2.036   5.450  19.614  0.00  0.00    +0.000 C 
ATOM      2  C   UNL     1       1.836   6.148  18.255  0.00  0.00    +0.000 C 
ATOM      3  C   UNL     1       2.401   7.568  18.239  0.00  0.00    +0.000 C 
ATOM      4  N   UNL     1       1.837   8.365  19.330  0.00  0.00    +0.000 N 
ATOM      5  C   UNL     1       1.122   9.524  18.996  0.00  0.00    +0.000 C 
ATOM      6  O   UNL     1       0.916   9.849  17.824  0.00  0.00    +0.000 OA
ATOM      7  C   UNL     1       2.006   7.780  20.662  0.00  0.00    +0.000 C 
ATOM      8  C   UNL     1       1.483   6.348  20.727  0.00  0.00    +0.000 C 
ENDROOT
BRANCH   5   9
ATOM      9  C   UNL     1       0.540  10.414  20.038  0.00  0.00    +0.000 A 
ATOM     10  C   UNL     1      -0.386   9.982  20.984  0.00  0.00    +0.000 A 
ATOM     11  C   UNL     1      -0.919  10.916  21.854  0.00  0.00    +0.000 A 
ATOM     12  N   UNL     1      -0.528  12.206  21.898  0.00  0.00    +0.000 NA
ATOM     13  C   UNL     1       0.448  12.578  21.045  0.00  0.00    +0.000 A 
ATOM     14  C   UNL     1       1.002  11.733  20.101  0.00  0.00    +0.000 A 
ENDBRANCH   5   9
BRANCH   1  15
ATOM     15  C   UNL     1       3.501   5.066  19.892  0.00  0.00    +0.000 C 
BRANCH  15  18
ATOM     16  C   UNL     1       5.413   4.512  18.395  0.00  0.00    +0.000 C 
ATOM     17  O   UNL     1       5.692   3.523  19.062  0.00  0.00    +0.000 OA
ATOM     18  N   UNL     1       4.366   5.344  18.763  0.00  0.00    +0.000 N 
ATOM     19  H   UNL     1       4.144   6.135  18.173  0.00  0.00    +0.000 HD
BRANCH  16  24
ATOM     20  C   UNL     1       7.115   5.849  16.981  0.00  0.00    +0.000 A 
ATOM     21  N   UNL     1       7.595   5.901  15.672  0.00  0.00    +0.000 NA
ATOM     22  N   UNL     1       6.997   5.031  14.883  0.00  0.00    +0.000 NA
ATOM     23  S   UNL     1       5.861   4.116  15.682  0.00  0.00    +0.000 S 
ATOM     24  C   UNL     1       6.127   4.890  17.193  0.00  0.00    +0.000 A 
BRANCH  20  25
ATOM     25  C   UNL     1       7.731   6.801  17.958  0.00  0.00    +0.000 C 
BRANCH  25  27
ATOM     26  C   UNL     1       8.423   9.208  18.260  0.00  0.00    +0.000 C 
ATOM     27  C   UNL     1       7.411   8.263  17.631  0.00  0.00    +0.000 C 
ENDBRANCH  25  27
ENDBRANCH  20  25
ENDBRANCH  16  24
ENDBRANCH  15  18
ENDBRANCH   1  15
TORSDOF 6
ENDMDL
MODEL 7
REMARK VINA RESULT:      -8.0      1.394      2.185
REMARK  Name = 
REMARK  7 active torsions:
REMARK  status: ('A' for Active; 'I' for Inactive)
REMARK    1  A    between atoms: C_1  and  C_2
REMARK    2  A    between atoms: C_2  and  C_3
REMARK    3  A    between atoms: C_3  and  C_4
REMARK    4  A    between atoms: C_8  and  C_9
REMARK    5  A    between atoms: N_11  and  C_12
REMARK    6  A    between atoms: C_12  and  C_13
REMARK    7  A    between atoms: C_17  and  C_19
REMARK                            x       y       z     vdW  Elec       q    Type
REMARK                         _______ _______ _______ _____ _____    ______ ____
ROOT
ATOM      1  C   UNL     1       1.969   4.491  19.245  0.00  0.00    +0.000 C 
ATOM      2  C   UNL     1       2.029   5.506  18.088  0.00  0.00    +0.000 C 
ATOM      3  C   UNL     1       2.722   6.809  18.488  0.00  0.00    +0.000 C 
ATOM      4  N   UNL     1       2.087   7.394  19.671  0.00  0.00    +0.000 N 
ATOM      5  C   UNL     1       1.538   8.679  19.555  0.00  0.00    +0.000 C 
ATOM      6  O   UNL     1       1.531   9.291  18.484  0.00  0.00    +0.000 OA
ATOM      7  C   UNL     1       2.011   6.498  20.827  0.00  0.00    +0.000 C 
ATOM      8  C   UNL     1       1.351   5.168  20.476  0.00  0.00    +0.000 C 
ENDROOT
BRANCH   5   9
ATOM      9  C   UNL     1       0.901   9.367  20.711  0.00  0.00    +0.000 A 
ATOM     10  C   UNL     1       0.590   8.726  21.908  0.00  0.00    +0.000 A 
ATOM     11  C   UNL     1      -0.074   9.446  22.884  0.00  0.00    +0.000 A 
ATOM     12  N   UNL     1      -0.360  10.760  22.781  0.00  0.00    +0.000 NA
ATOM     13  C   UNL     1       0.047  11.387  21.657  0.00  0.00    +0.000 A 
ATOM     14  C   UNL     1       0.665  10.741  20.602  0.00  0.00    +0.000 A 
ENDBRANCH   5   9
BRANCH   1  15
ATOM     15  C   UNL     1       3.338   3.873  19.585  0.00  0.00    +0.000 C 
BRANCH  15  18
ATOM     16  C   UNL     1       4.920   3.992  17.665  0.00  0.00    +0.000 C 
ATOM     17  O   UNL     1       4.498   2.937  17.209  0.00  0.00    +0.000 OA
ATOM     18  N   UNL     1       4.422   4.501  18.855  0.00  0.00    +0.000 N 
ATOM     19  H   UNL     1       4.771   5.390  19.188  0.00  0.00    +0.000 HD
BRANCH  16  24
ATOM     20  C   UNL     1       6.541   4.664  15.766  0.00  0.00    +0.000 A 
ATOM     21  N   UNL     1       7.482   5.652  15.477  0.00  0.00    +0.000 NA
ATOM     22  N   UNL     1       7.634   6.506  16.470  0.00  0.00    +0.000 NA
ATOM     23  S   UNL     1       6.649   6.166  17.764  0.00  0.00    +0.000 S 
ATOM     24  C   UNL     1       5.946   4.786  17.020  0.00  0.00    +0.000 A 
BRANCH  20  25
ATOM     25  C   UNL     1       6.295   3.642  14.700  0.00  0.00    +0.000 C 
BRANCH  25  27
ATOM     26  C   UNL     1       5.574   3.404  12.294  0.00  0.00    +0.000 C 
ATOM     27  C   UNL     1       5.366   4.161  13.597  0.00  0.00    +0.000 C 
ENDBRANCH  25  27
ENDBRANCH  20  25
ENDBRANCH  16  24
ENDBRANCH  15  18
ENDBRANCH   1  15
TORSDOF 6
ENDMDL
MODEL 8
REMARK VINA RESULT:      -7.8      1.710      2.436
REMARK  Name = 
REMARK  7 active torsions:
REMARK  status: ('A' for Active; 'I' for Inactive)
REMARK    1  A    between atoms: C_1  and  C_2
REMARK    2  A    between atoms: C_2  and  C_3
REMARK    3  A    between atoms: C_3  and  C_4
REMARK    4  A    between atoms: C_8  and  C_9
REMARK    5  A    between atoms: N_11  and  C_12
REMARK    6  A    between atoms: C_12  and  C_13
REMARK    7  A    between atoms: C_17  and  C_19
REMARK                            x       y       z     vdW  Elec       q    Type
REMARK                         _______ _______ _______ _____ _____    ______ ____
ROOT
ATOM      1  C   UNL     1       1.977   5.271  19.701  0.00  0.00    +0.000 C 
ATOM      2  C   UNL     1       1.846   5.930  18.315  0.00  0.00    +0.000 C 
ATOM      3  C   UNL     1       2.464   7.328  18.272  0.00  0.00    +0.000 C 
ATOM      4  N   UNL     1       1.896   8.180  19.319  0.00  0.00    +0.000 N 
ATOM      5  C   UNL     1       1.235   9.353  18.924  0.00  0.00    +0.000 C 
ATOM      6  O   UNL     1       1.078   9.646  17.737  0.00  0.00    +0.000 OA
ATOM      7  C   UNL     1       2.000   7.634  20.673  0.00  0.00    +0.000 C 
ATOM      8  C   UNL     1       1.422   6.225  20.767  0.00  0.00    +0.000 C 
ENDROOT
BRANCH   5   9
ATOM      9  C   UNL     1       0.654  10.297  19.918  0.00  0.00    +0.000 A 
ATOM     10  C   UNL     1      -0.370   9.951  20.797  0.00  0.00    +0.000 A 
ATOM     11  C   UNL     1      -0.886  10.934  21.621  0.00  0.00    +0.000 A 
ATOM     12  N   UNL     1      -0.396  12.188  21.689  0.00  0.00    +0.000 NA
ATOM     13  C   UNL     1       0.666  12.471  20.908  0.00  0.00    +0.000 A 
ATOM     14  C   UNL     1       1.216  11.575  20.009  0.00  0.00    +0.000 A 
ENDBRANCH   5   9
BRANCH   1  15
ATOM     15  C   UNL     1       3.417   4.844  20.039  0.00  0.00    +0.000 C 
BRANCH  15  18
ATOM     16  C   UNL     1       5.495   4.653  18.680  0.00  0.00    +0.000 C 
ATOM     17  O   UNL     1       5.744   3.551  19.154  0.00  0.00    +0.000 OA
ATOM     18  N   UNL     1       4.382   5.369  19.094  0.00  0.00    +0.000 N 
ATOM     19  H   UNL     1       4.190   6.262  18.660  0.00  0.00    +0.000 HD
BRANCH  16  24
ATOM     20  C   UNL     1       6.423   5.051  16.299  0.00  0.00    +0.000 A 
ATOM     21  N   UNL     1       7.307   5.903  15.636  0.00  0.00    +0.000 NA
ATOM     22  N   UNL     1       7.883   6.762  16.452  0.00  0.00    +0.000 NA
ATOM     23  S   UNL     1       7.375   6.593  18.025  0.00  0.00    +0.000 S 
ATOM     24  C   UNL     1       6.314   5.289  17.668  0.00  0.00    +0.000 A 
BRANCH  20  25
ATOM     25  C   UNL     1       5.715   4.034  15.459  0.00  0.00    +0.000 C 
BRANCH  25  27
ATOM     26  C   UNL     1       5.337   3.753  12.981  0.00  0.00    +0.000 C 
ATOM     27  C   UNL     1       6.375   3.848  14.088  0.00  0.00    +0.000 C 
ENDBRANCH  25  27
ENDBRANCH  20  25
ENDBRANCH  16  24
ENDBRANCH  15  18
ENDBRANCH   1  15
TORSDOF 6
ENDMDL
MODEL 9
REMARK VINA RESULT:      -7.8      3.041      5.377
REMARK  Name = 
REMARK  7 active torsions:
REMARK  status: ('A' for Active; 'I' for Inactive)
REMARK    1  A    between atoms: C_1  and  C_2
REMARK    2  A    between atoms: C_2  and  C_3
REMARK    3  A    between atoms: C_3  and  C_4
REMARK    4  A    between atoms: C_8  and  C_9
REMARK    5  A    between atoms: N_11  and  C_12
REMARK    6  A    between atoms: C_12  and  C_13
REMARK    7  A    between atoms: C_17  and  C_19
REMARK                            x       y       z     vdW  Elec       q    Type
REMARK                         _______ _______ _______ _____ _____    ______ ____
ROOT
ATOM      1  C   UNL     1      -0.021   8.666  21.190  0.00  0.00    +0.000 C 
ATOM      2  C   UNL     1      -0.360   9.631  20.038  0.00  0.00    +0.000 C 
ATOM      3  C   UNL     1      -0.003  11.081  20.364  0.00  0.00    +0.000 C 
ATOM      4  N   UNL     1      -0.639  11.505  21.613  0.00  0.00    +0.000 N 
ATOM      5  C   UNL     1      -1.521  12.594  21.565  0.00  0.00    +0.000 C 
ATOM      6  O   UNL     1      -1.808  13.155  20.504  0.00  0.00    +0.000 OA
ATOM      7  C   UNL     1      -0.348  10.651  22.766  0.00  0.00    +0.000 C 
ATOM      8  C   UNL     1      -0.661   9.184  22.485  0.00  0.00    +0.000 C 
ENDROOT
BRANCH   5   9
ATOM      9  C   UNL     1      -2.190  13.116  22.788  0.00  0.00    +0.000 A 
ATOM     10  C   UNL     1      -3.365  12.578  23.307  0.00  0.00    +0.000 A 
ATOM     11  C   UNL     1      -3.940  13.196  24.403  0.00  0.00    +0.000 A 
ATOM     12  N   UNL     1      -3.382  14.236  25.055  0.00  0.00    +0.000 NA
ATOM     13  C   UNL     1      -2.189  14.673  24.600  0.00  0.00    +0.000 A 
ATOM     14  C   UNL     1      -1.564  14.159  23.478  0.00  0.00    +0.000 A 
ENDBRANCH   5   9
BRANCH   1  15
ATOM     15  C   UNL     1       1.492   8.444  21.373  0.00  0.00    +0.000 C 
BRANCH  15  18
ATOM     16  C   UNL     1       2.369   7.137  19.444  0.00  0.00    +0.000 C 
ATOM     17  O   UNL     1       2.317   8.118  18.711  0.00  0.00    +0.000 OA
ATOM     18  N   UNL     1       1.945   7.211  20.761  0.00  0.00    +0.000 N 
ATOM     19  H   UNL     1       2.030   6.390  21.346  0.00  0.00    +0.000 HD
BRANCH  16  24
ATOM     20  C   UNL     1       2.334   4.568  19.147  0.00  0.00    +0.000 A 
ATOM     21  N   UNL     1       3.102   3.559  18.566  0.00  0.00    +0.000 NA
ATOM     22  N   UNL     1       4.205   4.022  18.014  0.00  0.00    +0.000 NA
ATOM     23  S   UNL     1       4.349   5.672  18.156  0.00  0.00    +0.000 S 
ATOM     24  C   UNL     1       2.870   5.848  19.013  0.00  0.00    +0.000 A 
BRANCH  20  25
ATOM     25  C   UNL     1       1.056   4.144  19.803  0.00  0.00    +0.000 C 
BRANCH  25  27
ATOM     26  C   UNL     1       2.129   3.152  21.858  0.00  0.00    +0.000 C 
ATOM     27  C   UNL     1       1.229   2.887  20.661  0.00  0.00    +0.000 C 
ENDBRANCH  25  27
ENDBRANCH  20  25
ENDBRANCH  16  24
ENDBRANCH  15  18
ENDBRANCH   1  15
TORSDOF 6
ENDMDL
