MODEL 1
REMARK VINA RESULT:      -8.4      0.000      0.000
REMARK  Name = 
REMARK  8 active torsions:
REMARK  status: ('A' for Active; 'I' for Inactive)
REMARK    1  A    between atoms: C_1  and  C_2
REMARK    2  A    between atoms: C_2  and  C_3
REMARK    3  A    between atoms: C_8  and  N_9
REMARK    4  A    between atoms: C_10  and  C_12
REMARK    5  A    between atoms: C_12  and  S_13
REMARK    6  A    between atoms: S_13  and  C_14
REMARK    7  A    between atoms: C_17  and  C_18
REMARK    8  A    between atoms: C_23  and  N_24
REMARK                            x       y       z     vdW  Elec       q    Type
REMARK                         _______ _______ _______ _____ _____    ______ ____
ROOT
ATOM      1  C   UNL     1       7.965   7.335  18.412  0.00  0.00    +0.000 A 
ATOM      2  N   UNL     1       7.464   7.967  17.382  0.00  0.00    +0.000 NA
ATOM      3  N   UNL     1       7.959   9.255  17.419  0.00  0.00    +0.000 NA
ATOM      4  C   UNL     1       8.774   9.365  18.456  0.00  0.00    +0.000 A 
ATOM      5  N   UNL     1       8.745   8.175  19.140  0.00  0.00    +0.000 N 
ATOM      6  H   UNL     1       9.240   7.965  19.994  0.00  0.00    +0.000 HD
ENDROOT
BRANCH   4   7
ATOM      7  C   UNL     1       9.558  10.541  18.842  0.00  0.00    +0.000 A 
ATOM      8  C   UNL     1      10.217  11.248  17.818  0.00  0.00    +0.000 A 
ATOM      9  C   UNL     1      10.992  12.373  18.096  0.00  0.00    +0.000 A 
ATOM     10  C   UNL     1      11.115  12.819  19.406  0.00  0.00    +0.000 A 
ATOM     11  C   UNL     1      10.459  12.140  20.435  0.00  0.00    +0.000 A 
ATOM     12  C   UNL     1       9.714  10.973  20.179  0.00  0.00    +0.000 A 
BRANCH  12  13
ATOM     13  N   UNL     1       9.024  10.375  21.262  0.00  0.00    +0.000 N 
ATOM     14  H   UNL     1       8.513   9.542  20.975  0.00  0.00    +0.000 HD
ATOM     15  H   UNL     1       8.379  11.024  21.708  0.00  0.00    +0.000 HD
ENDBRANCH  12  13
ENDBRANCH   4   7
BRANCH   1  16
ATOM     16  S   UNL     1       7.750   5.698  18.884  0.00  0.00    +0.000 S 
BRANCH  16  17
ATOM     17  C   UNL     1       7.424   4.905  17.278  0.00  0.00    +0.000 C 
BRANCH  17  19
ATOM     18  N   UNL     1       5.342   3.954  18.154  0.00  0.00    +0.000 N 
ATOM     19  C   UNL     1       5.922   4.717  17.141  0.00  0.00    +0.000 C 
ATOM     20  O   UNL     1       5.341   5.184  16.163  0.00  0.00    +0.000 OA
ATOM     21  H   UNL     1       5.973   3.483  18.788  0.00  0.00    +0.000 HD
BRANCH  18  27
ATOM     22  C   UNL     1       3.024   4.585  18.736  0.00  0.00    +0.000 A 
ATOM     23  C   UNL     1       1.666   4.206  18.866  0.00  0.00    +0.000 A 
ATOM     24  C   UNL     1       1.233   2.929  18.527  0.00  0.00    +0.000 A 
ATOM     25  C   UNL     1       2.143   2.008  18.042  0.00  0.00    +0.000 A 
ATOM     26  C   UNL     1       3.488   2.366  17.903  0.00  0.00    +0.000 A 
ATOM     27  C   UNL     1       3.959   3.636  18.265  0.00  0.00    +0.000 A 
BRANCH  22  29
ATOM     28  C   UNL     1       2.906   7.038  18.217  0.00  0.00    +0.000 C 
ATOM     29  C   UNL     1       3.369   5.981  19.209  0.00  0.00    +0.000 C 
ENDBRANCH  22  29
ENDBRANCH  18  27
ENDBRANCH  17  19
ENDBRANCH  16  17
ENDBRANCH   1  16
TORSDOF 7
ENDMDL
MODEL 2
REMARK VINA RESULT:      -8.2      1.052      1.118
REMARK  Name = 
REMARK  8 active torsions:
REMARK  status: ('A' for Active; 'I' for Inactive)
REMARK    1  A    between atoms: C_1  and  C_2
REMARK    2  A    between atoms: C_2  and  C_3
REMARK    3  A    between atoms: C_8  and  N_9
REMARK    4  A    between atoms: C_10  and  C_12
REMARK    5  A    between atoms: C_12  and  S_13
REMARK    6  A    between atoms: S_13  and  C_14
REMARK    7  A    between atoms: C_17  and  C_18
REMARK    8  A    between atoms: C_23  and  N_24
REMARK                            x       y       z     vdW  Elec       q    Type
REMARK                         _______ _______ _______ _____ _____    ______ ____
ROOT
ATOM      1  C   UNL     1       7.949   7.546  18.329  0.00  0.00    +0.000 A 
ATOM      2  N   UNL     1       7.354   8.303  17.443  0.00  0.00    +0.000 NA
ATOM      3  N   UNL     1       7.894   9.568  17.567  0.00  0.00    +0.000 NA
ATOM      4  C   UNL     1       8.825   9.541  18.507  0.00  0.00    +0.000 A 
ATOM      5  N   UNL     1       8.835   8.280  19.050  0.00  0.00    +0.000 N 
ATOM      6  H   UNL     1       9.417   7.962  19.810  0.00  0.00    +0.000 HD
ENDROOT
BRANCH   4   7
ATOM      7  C   UNL     1       9.688  10.648  18.928  0.00  0.00    +0.000 A 
ATOM      8  C   UNL     1      10.432  11.307  17.932  0.00  0.00    +0.000 A 
ATOM      9  C   UNL     1      11.285  12.366  18.246  0.00  0.00    +0.000 A 
ATOM     10  C   UNL     1      11.401  12.791  19.563  0.00  0.00    +0.000 A 
ATOM     11  C   UNL     1      10.661  12.159  20.564  0.00  0.00    +0.000 A 
ATOM     12  C   UNL     1       9.833  11.057  20.274  0.00  0.00    +0.000 A 
BRANCH  12  13
ATOM     13  N   UNL     1       9.064  10.508  21.329  0.00  0.00    +0.000 N 
ATOM     14  H   UNL     1       8.478   9.737  21.012  0.00  0.00    +0.000 HD
ATOM     15  H   UNL     1       8.479  11.209  21.778  0.00  0.00    +0.000 HD
ENDBRANCH  12  13
ENDBRANCH   4   7
BRANCH   1  16
ATOM     16  S   UNL     1       7.735   5.870  18.634  0.00  0.00    +0.000 S 
BRANCH  16  17
ATOM     17  C   UNL     1       6.329   5.487  17.544  0.00  0.00    +0.000 C 
BRANCH  17  19
ATOM     18  N   UNL     1       3.995   4.847  17.932  0.00  0.00    +0.000 N 
ATOM     19  C   UNL     1       5.317   4.681  18.343  0.00  0.00    +0.000 C 
ATOM     20  O   UNL     1       5.701   4.001  19.293  0.00  0.00    +0.000 OA
ATOM     21  H   UNL     1       3.815   5.579  17.259  0.00  0.00    +0.000 HD
BRANCH  18  27
ATOM     22  C   UNL     1       2.151   4.791  19.576  0.00  0.00    +0.000 A 
ATOM     23  C   UNL     1       1.054   4.091  20.138  0.00  0.00    +0.000 A 
ATOM     24  C   UNL     1       0.656   2.853  19.648  0.00  0.00    +0.000 A 
ATOM     25  C   UNL     1       1.336   2.291  18.584  0.00  0.00    +0.000 A 
ATOM     26  C   UNL     1       2.418   2.968  18.014  0.00  0.00    +0.000 A 
ATOM     27  C   UNL     1       2.861   4.204  18.505  0.00  0.00    +0.000 A 
BRANCH  22  29
ATOM     28  C   UNL     1       2.197   7.292  19.372  0.00  0.00    +0.000 C 
ATOM     29  C   UNL     1       2.520   6.093  20.253  0.00  0.00    +0.000 C 
ENDBRANCH  22  29
ENDBRANCH  18  27
ENDBRANCH  17  19
ENDBRANCH  16  17
ENDBRANCH   1  16
TORSDOF 7
ENDMDL
MODEL 3
REMARK VINA RESULT:      -8.2      4.780      6.592
REMARK  Name = 
REMARK  8 active torsions:
REMARK  status: ('A' for Active; 'I' for Inactive)
REMARK    1  A    between atoms: C_1  and  C_2
REMARK    2  A    between atoms: C_2  and  C_3
REMARK    3  A    between atoms: C_8  and  N_9
REMARK    4  A    between atoms: C_10  and  C_12
REMARK    5  A    between atoms: C_12  and  S_13
REMARK    6  A    between atoms: S_13  and  C_14
REMARK    7  A    between atoms: C_17  and  C_18
REMARK    8  A    between atoms: C_23  and  N_24
REMARK                            x       y       z     vdW  Elec       q    Type
REMARK                         _______ _______ _______ _____ _____    ______ ____
ROOT
ATOM      1  C   UNL     1       4.502   3.314  19.578  0.00  0.00    +0.000 A 
ATOM      2  N   UNL     1       5.405   4.135  20.049  0.00  0.00    +0.000 NA
ATOM      3  N   UNL     1       6.125   4.605  18.969  0.00  0.00    +0.000 NA
ATOM      4  C   UNL     1       5.621   4.080  17.863  0.00  0.00    +0.000 A 
ATOM      5  N   UNL     1       4.628   3.205  18.230  0.00  0.00    +0.000 N 
ATOM      6  H   UNL     1       4.081   2.629  17.609  0.00  0.00    +0.000 HD
ENDROOT
BRANCH   4   7
ATOM      7  C   UNL     1       6.044   4.346  16.486  0.00  0.00    +0.000 A 
ATOM      8  C   UNL     1       5.484   3.551  15.469  0.00  0.00    +0.000 A 
ATOM      9  C   UNL     1       5.837   3.731  14.131  0.00  0.00    +0.000 A 
ATOM     10  C   UNL     1       6.751   4.718  13.786  0.00  0.00    +0.000 A 
ATOM     11  C   UNL     1       7.308   5.526  14.779  0.00  0.00    +0.000 A 
ATOM     12  C   UNL     1       7.003   5.326  16.139  0.00  0.00    +0.000 A 
BRANCH  12  13
ATOM     13  N   UNL     1       7.556   6.225  17.083  0.00  0.00    +0.000 N 
ATOM     14  H   UNL     1       6.876   6.502  17.789  0.00  0.00    +0.000 HD
ATOM     15  H   UNL     1       7.934   7.059  16.638  0.00  0.00    +0.000 HD
ENDBRANCH  12  13
ENDBRANCH   4   7
BRANCH   1  16
ATOM     16  S   UNL     1       3.288   2.444  20.424  0.00  0.00    +0.000 S 
BRANCH  16  17
ATOM     17  C   UNL     1       2.527   3.768  21.415  0.00  0.00    +0.000 C 
BRANCH  17  19
ATOM     18  N   UNL     1       2.586   6.059  20.543  0.00  0.00    +0.000 N 
ATOM     19  C   UNL     1       1.968   4.811  20.461  0.00  0.00    +0.000 C 
ATOM     20  O   UNL     1       1.014   4.521  19.740  0.00  0.00    +0.000 OA
ATOM     21  H   UNL     1       3.229   6.199  21.310  0.00  0.00    +0.000 HD
BRANCH  18  27
ATOM     22  C   UNL     1       1.527   8.279  20.304  0.00  0.00    +0.000 A 
ATOM     23  C   UNL     1       1.192   9.374  19.469  0.00  0.00    +0.000 A 
ATOM     24  C   UNL     1       1.580   9.414  18.136  0.00  0.00    +0.000 A 
ATOM     25  C   UNL     1       2.317   8.370  17.608  0.00  0.00    +0.000 A 
ATOM     26  C   UNL     1       2.661   7.283  18.418  0.00  0.00    +0.000 A 
ATOM     27  C   UNL     1       2.258   7.200  19.758  0.00  0.00    +0.000 A 
BRANCH  22  29
ATOM     28  C   UNL     1      -0.415   8.940  21.750  0.00  0.00    +0.000 C 
ATOM     29  C   UNL     1       0.980   8.331  21.714  0.00  0.00    +0.000 C 
ENDBRANCH  22  29
ENDBRANCH  18  27
ENDBRANCH  17  19
ENDBRANCH  16  17
ENDBRANCH   1  16
TORSDOF 7
ENDMDL
MODEL 4
REMARK VINA RESULT:      -8.2      0.937      1.494
REMARK  Name = 
REMARK  8 active torsions:
REMARK  status: ('A' for Active; 'I' for Inactive)
REMARK    1  A    between atoms: C_1  and  C_2
REMARK    2  A    between atoms: C_2  and  C_3
REMARK    3  A    between atoms: C_8  and  N_9
REMARK    4  A    between atoms: C_10  and  C_12
REMARK    5  A    between atoms: C_12  and  S_13
REMARK    6  A    between atoms: S_13  and  C_14
REMARK    7  A    between atoms: C_17  and  C_18
REMARK    8  A    between atoms: C_23  and  N_24
REMARK                            x       y       z     vdW  Elec       q    Type
REMARK                         _______ _______ _______ _____ _____    ______ ____
ROOT
ATOM      1  C   UNL     1       7.942   7.558  18.215  0.00  0.00    +0.000 A 
ATOM      2  N   UNL     1       7.545   8.357  17.258  0.00  0.00    +0.000 NA
ATOM      3  N   UNL     1       8.055   9.608  17.542  0.00  0.00    +0.000 NA
ATOM      4  C   UNL     1       8.774   9.531  18.650  0.00  0.00    +0.000 A 
ATOM      5  N   UNL     1       8.665   8.250  19.132  0.00  0.00    +0.000 N 
ATOM      6  H   UNL     1       9.078   7.895  19.982  0.00  0.00    +0.000 HD
ENDROOT
BRANCH   4   7
ATOM      7  C   UNL     1       9.538  10.609  19.284  0.00  0.00    +0.000 A 
ATOM      8  C   UNL     1       9.292  10.866  20.646  0.00  0.00    +0.000 A 
ATOM      9  C   UNL     1       9.968  11.880  21.326  0.00  0.00    +0.000 A 
ATOM     10  C   UNL     1      10.912  12.648  20.657  0.00  0.00    +0.000 A 
ATOM     11  C   UNL     1      11.179  12.401  19.309  0.00  0.00    +0.000 A 
ATOM     12  C   UNL     1      10.471  11.416  18.593  0.00  0.00    +0.000 A 
BRANCH  12  13
ATOM     13  N   UNL     1      10.842  11.178  17.247  0.00  0.00    +0.000 N 
ATOM     14  H   UNL     1      10.904  10.182  17.040  0.00  0.00    +0.000 HD
ATOM     15  H   UNL     1      11.726  11.624  17.012  0.00  0.00    +0.000 HD
ENDBRANCH  12  13
ENDBRANCH   4   7
BRANCH   1  16
ATOM     16  S   UNL     1       7.660   5.874  18.401  0.00  0.00    +0.000 S 
BRANCH  16  17
ATOM     17  C   UNL     1       7.399   5.364  16.674  0.00  0.00    +0.000 C 
BRANCH  17  19
ATOM     18  N   UNL     1       5.350   4.531  17.730  0.00  0.00    +0.000 N 
ATOM     19  C   UNL     1       5.958   4.900  16.531  0.00  0.00    +0.000 C 
ATOM     20  O   UNL     1       5.453   4.833  15.411  0.00  0.00    +0.000 OA
ATOM     21  H   UNL     1       5.948   4.464  18.543  0.00  0.00    +0.000 HD
BRANCH  18  27
ATOM     22  C   UNL     1       2.935   4.976  18.012  0.00  0.00    +0.000 A 
ATOM     23  C   UNL     1       1.626   4.465  18.192  0.00  0.00    +0.000 A 
ATOM     24  C   UNL     1       1.378   3.098  18.221  0.00  0.00    +0.000 A 
ATOM     25  C   UNL     1       2.427   2.212  18.061  0.00  0.00    +0.000 A 
ATOM     26  C   UNL     1       3.726   2.697  17.878  0.00  0.00    +0.000 A 
ATOM     27  C   UNL     1       4.011   4.070  17.874  0.00  0.00    +0.000 A 
BRANCH  22  29
ATOM     28  C   UNL     1       2.508   7.042  19.372  0.00  0.00    +0.000 C 
ATOM     29  C   UNL     1       3.071   6.481  18.073  0.00  0.00    +0.000 C 
ENDBRANCH  22  29
ENDBRANCH  18  27
ENDBRANCH  17  19
ENDBRANCH  16  17
ENDBRANCH   1  16
TORSDOF 7
ENDMDL
MODEL 5
REMARK VINA RESULT:      -8.1      1.143      2.401
REMARK  Name = 
REMARK  8 active torsions:
REMARK  status: ('A' for Active; 'I' for Inactive)
REMARK    1  A    between atoms: C_1  and  C_2
REMARK    2  A    between atoms: C_2  and  C_3
REMARK    3  A    between atoms: C_8  and  N_9
REMARK    4  A    between atoms: C_10  and  C_12
REMARK    5  A    between atoms: C_12  and  S_13
REMARK    6  A    between atoms: S_13  and  C_14
REMARK    7  A    between atoms: C_17  and  C_18
REMARK    8  A    between atoms: C_23  and  N_24
REMARK                            x       y       z     vdW  Elec       q    Type
REMARK                         _______ _______ _______ _____ _____    ______ ____
ROOT
ATOM      1  C   UNL     1       8.013   7.597  18.297  0.00  0.00    +0.000 A 
ATOM      2  N   UNL     1       7.621   8.364  17.312  0.00  0.00    +0.000 NA
ATOM      3  N   UNL     1       8.116   9.628  17.564  0.00  0.00    +0.000 NA
ATOM      4  C   UNL     1       8.822   9.591  18.683  0.00  0.00    +0.000 A 
ATOM      5  N   UNL     1       8.719   8.323  19.202  0.00  0.00    +0.000 N 
ATOM      6  H   UNL     1       9.124   7.998  20.066  0.00  0.00    +0.000 HD
ENDROOT
BRANCH   4   7
ATOM      7  C   UNL     1       9.568  10.694  19.294  0.00  0.00    +0.000 A 
ATOM      8  C   UNL     1       9.298  10.992  20.643  0.00  0.00    +0.000 A 
ATOM      9  C   UNL     1       9.956  12.032  21.301  0.00  0.00    +0.000 A 
ATOM     10  C   UNL     1      10.905  12.786  20.623  0.00  0.00    +0.000 A 
ATOM     11  C   UNL     1      11.196  12.498  19.288  0.00  0.00    +0.000 A 
ATOM     12  C   UNL     1      10.506  11.486  18.593  0.00  0.00    +0.000 A 
BRANCH  12  13
ATOM     13  N   UNL     1      10.901  11.207  17.261  0.00  0.00    +0.000 N 
ATOM     14  H   UNL     1      10.116  10.902  16.688  0.00  0.00    +0.000 HD
ATOM     15  H   UNL     1      11.637  10.506  17.221  0.00  0.00    +0.000 HD
ENDBRANCH  12  13
ENDBRANCH   4   7
BRANCH   1  16
ATOM     16  S   UNL     1       7.745   5.917  18.529  0.00  0.00    +0.000 S 
BRANCH  16  17
ATOM     17  C   UNL     1       6.778   5.503  17.044  0.00  0.00    +0.000 C 
BRANCH  17  19
ATOM     18  N   UNL     1       4.984   4.766  18.543  0.00  0.00    +0.000 N 
ATOM     19  C   UNL     1       5.304   5.525  17.418  0.00  0.00    +0.000 C 
ATOM     20  O   UNL     1       4.510   6.141  16.710  0.00  0.00    +0.000 OA
ATOM     21  H   UNL     1       5.711   4.167  18.911  0.00  0.00    +0.000 HD
BRANCH  18  27
ATOM     22  C   UNL     1       2.843   3.548  18.745  0.00  0.00    +0.000 A 
ATOM     23  C   UNL     1       1.543   3.475  19.304  0.00  0.00    +0.000 A 
ATOM     24  C   UNL     1       1.087   4.428  20.207  0.00  0.00    +0.000 A 
ATOM     25  C   UNL     1       1.920   5.467  20.580  0.00  0.00    +0.000 A 
ATOM     26  C   UNL     1       3.207   5.553  20.042  0.00  0.00    +0.000 A 
ATOM     27  C   UNL     1       3.684   4.624  19.106  0.00  0.00    +0.000 A 
BRANCH  22  29
ATOM     28  C   UNL     1       3.748   1.236  18.379  0.00  0.00    +0.000 C 
ATOM     29  C   UNL     1       3.183   2.487  17.721  0.00  0.00    +0.000 C 
ENDBRANCH  22  29
ENDBRANCH  18  27
ENDBRANCH  17  19
ENDBRANCH  16  17
ENDBRANCH   1  16
TORSDOF 7
ENDMDL
MODEL 6
REMARK VINA RESULT:      -8.1      1.337      1.798
REMARK  Name = 
REMARK  8 active torsions:
REMARK  status: ('A' for Active; 'I' for Inactive)
REMARK    1  A    between atoms: C_1  and  C_2
REMARK    2  A    between atoms: C_2  and  C_3
REMARK    3  A    between atoms: C_8  and  N_9
REMARK    4  A    between atoms: C_10  and  C_12
REMARK    5  A    between atoms: C_12  and  S_13
REMARK    6  A    between atoms: S_13  and  C_14
REMARK    7  A    between atoms: C_17  and  C_18
REMARK    8  A    between atoms: C_23  and  N_24
REMARK                            x       y       z     vdW  Elec       q    Type
REMARK                         _______ _______ _______ _____ _____    ______ ____
ROOT
ATOM      1  C   UNL     1       7.984   7.544  18.293  0.00  0.00    +0.000 A 
ATOM      2  N   UNL     1       7.643   8.298  17.280  0.00  0.00    +0.000 NA
ATOM      3  N   UNL     1       8.155   9.557  17.525  0.00  0.00    +0.000 NA
ATOM      4  C   UNL     1       8.820   9.528  18.670  0.00  0.00    +0.000 A 
ATOM      5  N   UNL     1       8.672   8.273  19.208  0.00  0.00    +0.000 N 
ATOM      6  H   UNL     1       9.040   7.957  20.092  0.00  0.00    +0.000 HD
ENDROOT
BRANCH   4   7
ATOM      7  C   UNL     1       9.568  10.628  19.285  0.00  0.00    +0.000 A 
ATOM      8  C   UNL     1       9.288  10.930  20.631  0.00  0.00    +0.000 A 
ATOM      9  C   UNL     1       9.946  11.967  21.293  0.00  0.00    +0.000 A 
ATOM     10  C   UNL     1      10.905  12.714  20.622  0.00  0.00    +0.000 A 
ATOM     11  C   UNL     1      11.206  12.422  19.290  0.00  0.00    +0.000 A 
ATOM     12  C   UNL     1      10.517  11.413  18.591  0.00  0.00    +0.000 A 
BRANCH  12  13
ATOM     13  N   UNL     1      10.921  11.130  17.263  0.00  0.00    +0.000 N 
ATOM     14  H   UNL     1      11.894  10.833  17.217  0.00  0.00    +0.000 HD
ATOM     15  H   UNL     1      10.786  11.929  16.646  0.00  0.00    +0.000 HD
ENDBRANCH  12  13
ENDBRANCH   4   7
BRANCH   1  16
ATOM     16  S   UNL     1       7.673   5.875  18.548  0.00  0.00    +0.000 S 
BRANCH  16  17
ATOM     17  C   UNL     1       6.714   5.460  17.057  0.00  0.00    +0.000 C 
BRANCH  17  19
ATOM     18  N   UNL     1       5.113   5.020  18.860  0.00  0.00    +0.000 N 
ATOM     19  C   UNL     1       5.382   4.877  17.499  0.00  0.00    +0.000 C 
ATOM     20  O   UNL     1       4.674   4.295  16.678  0.00  0.00    +0.000 OA
ATOM     21  H   UNL     1       5.869   5.355  19.441  0.00  0.00    +0.000 HD
BRANCH  18  27
ATOM     22  C   UNL     1       2.855   5.446  19.771  0.00  0.00    +0.000 A 
ATOM     23  C   UNL     1       1.725   4.959  20.473  0.00  0.00    +0.000 A 
ATOM     24  C   UNL     1       1.653   3.642  20.909  0.00  0.00    +0.000 A 
ATOM     25  C   UNL     1       2.701   2.780  20.647  0.00  0.00    +0.000 A 
ATOM     26  C   UNL     1       3.824   3.240  19.952  0.00  0.00    +0.000 A 
ATOM     27  C   UNL     1       3.937   4.571  19.526  0.00  0.00    +0.000 A 
BRANCH  22  29
ATOM     28  C   UNL     1       2.404   7.140  17.975  0.00  0.00    +0.000 C 
ATOM     29  C   UNL     1       2.832   6.917  19.419  0.00  0.00    +0.000 C 
ENDBRANCH  22  29
ENDBRANCH  18  27
ENDBRANCH  17  19
ENDBRANCH  16  17
ENDBRANCH   1  16
TORSDOF 7
ENDMDL
MODEL 7
REMARK VINA RESULT:      -8.0      5.154      7.029
REMARK  Name = 
REMARK  8 active torsions:
REMARK  status: ('A' for Active; 'I' for Inactive)
REMARK    1  A    between atoms: C_1  and  C_2
REMARK    2  A    between atoms: C_2  and  C_3
REMARK    3  A    between atoms: C_8  and  N_9
REMARK    4  A    between atoms: C_10  and  C_12
REMARK    5  A    between atoms: C_12  and  S_13
REMARK    6  A    between atoms: S_13  and  C_14
REMARK    7  A    between atoms: C_17  and  C_18
REMARK    8  A    between atoms: C_23  and  N_24
REMARK                            x       y       z     vdW  Elec       q    Type
REMARK                         _______ _______ _______ _____ _____    ______ ____
ROOT
ATOM      1  C   UNL     1       2.498   2.807  19.005  0.00  0.00    +0.000 A 
ATOM      2  N   UNL     1       1.782   2.802  17.909  0.00  0.00    +0.000 NA
ATOM      3  N   UNL     1       2.593   3.275  16.897  0.00  0.00    +0.000 NA
ATOM      4  C   UNL     1       3.792   3.528  17.398  0.00  0.00    +0.000 A 
ATOM      5  N   UNL     1       3.738   3.298  18.751  0.00  0.00    +0.000 N 
ATOM      6  H   UNL     1       4.489   3.435  19.410  0.00  0.00    +0.000 HD
ENDROOT
BRANCH   4   7
ATOM      7  C   UNL     1       4.974   3.994  16.668  0.00  0.00    +0.000 A 
ATOM      8  C   UNL     1       4.855   4.159  15.276  0.00  0.00    +0.000 A 
ATOM      9  C   UNL     1       5.932   4.590  14.501  0.00  0.00    +0.000 A 
ATOM     10  C   UNL     1       7.148   4.875  15.110  0.00  0.00    +0.000 A 
ATOM     11  C   UNL     1       7.283   4.730  16.492  0.00  0.00    +0.000 A 
ATOM     12  C   UNL     1       6.222   4.248  17.282  0.00  0.00    +0.000 A 
BRANCH  12  13
ATOM     13  N   UNL     1       6.412   4.190  18.685  0.00  0.00    +0.000 N 
ATOM     14  H   UNL     1       7.316   4.569  18.962  0.00  0.00    +0.000 HD
ATOM     15  H   UNL     1       6.325   3.240  19.041  0.00  0.00    +0.000 HD
ENDBRANCH  12  13
ENDBRANCH   4   7
BRANCH   1  16
ATOM     16  S   UNL     1       2.056   2.298  20.584  0.00  0.00    +0.000 S 
BRANCH  16  17
ATOM     17  C   UNL     1       2.250   3.845  21.524  0.00  0.00    +0.000 C 
BRANCH  17  19
ATOM     18  N   UNL     1       2.521   6.041  20.468  0.00  0.00    +0.000 N 
ATOM     19  C   UNL     1       1.652   4.975  20.702  0.00  0.00    +0.000 C 
ATOM     20  O   UNL     1       0.476   4.910  20.349  0.00  0.00    +0.000 OA
ATOM     21  H   UNL     1       3.395   6.036  20.976  0.00  0.00    +0.000 HD
BRANCH  18  27
ATOM     22  C   UNL     1       1.423   8.246  20.277  0.00  0.00    +0.000 A 
ATOM     23  C   UNL     1       1.112   9.376  19.481  0.00  0.00    +0.000 A 
ATOM     24  C   UNL     1       1.581   9.496  18.178  0.00  0.00    +0.000 A 
ATOM     25  C   UNL     1       2.376   8.498  17.646  0.00  0.00    +0.000 A 
ATOM     26  C   UNL     1       2.697   7.377  18.418  0.00  0.00    +0.000 A 
ATOM     27  C   UNL     1       2.214   7.215  19.724  0.00  0.00    +0.000 A 
BRANCH  22  29
ATOM     28  C   UNL     1       1.088   9.479  22.438  0.00  0.00    +0.000 C 
ATOM     29  C   UNL     1       0.788   8.211  21.651  0.00  0.00    +0.000 C 
ENDBRANCH  22  29
ENDBRANCH  18  27
ENDBRANCH  17  19
ENDBRANCH  16  17
ENDBRANCH   1  16
TORSDOF 7
ENDMDL
MODEL 8
REMARK VINA RESULT:      -8.0      1.892      9.453
REMARK  Name = 
REMARK  8 active torsions:
REMARK  status: ('A' for Active; 'I' for Inactive)
REMARK    1  A    between atoms: C_1  and  C_2
REMARK    2  A    between atoms: C_2  and  C_3
REMARK    3  A    between atoms: C_8  and  N_9
REMARK    4  A    between atoms: C_10  and  C_12
REMARK    5  A    between atoms: C_12  and  S_13
REMARK    6  A    between atoms: S_13  and  C_14
REMARK    7  A    between atoms: C_17  and  C_18
REMARK    8  A    between atoms: C_23  and  N_24
REMARK                            x       y       z     vdW  Elec       q    Type
REMARK                         _______ _______ _______ _____ _____    ______ ____
ROOT
ATOM      1  C   UNL     1       6.191   5.817  18.211  0.00  0.00    +0.000 A 
ATOM      2  N   UNL     1       6.805   4.784  18.730  0.00  0.00    +0.000 NA
ATOM      3  N   UNL     1       5.830   3.952  19.242  0.00  0.00    +0.000 NA
ATOM      4  C   UNL     1       4.644   4.487  18.996  0.00  0.00    +0.000 A 
ATOM      5  N   UNL     1       4.851   5.705  18.397  0.00  0.00    +0.000 N 
ATOM      6  H   UNL     1       4.137   6.361  18.118  0.00  0.00    +0.000 HD
ENDROOT
BRANCH   4   7
ATOM      7  C   UNL     1       3.334   3.915  19.315  0.00  0.00    +0.000 A 
ATOM      8  C   UNL     1       2.404   4.747  19.967  0.00  0.00    +0.000 A 
ATOM      9  C   UNL     1       1.136   4.281  20.317  0.00  0.00    +0.000 A 
ATOM     10  C   UNL     1       0.771   2.977  20.011  0.00  0.00    +0.000 A 
ATOM     11  C   UNL     1       1.675   2.140  19.353  0.00  0.00    +0.000 A 
ATOM     12  C   UNL     1       2.976   2.576  19.037  0.00  0.00    +0.000 A 
BRANCH  12  13
ATOM     13  N   UNL     1       3.815   1.694  18.312  0.00  0.00    +0.000 N 
ATOM     14  H   UNL     1       3.307   1.205  17.576  0.00  0.00    +0.000 HD
ATOM     15  H   UNL     1       4.262   1.010  18.919  0.00  0.00    +0.000 HD
ENDBRANCH  12  13
ENDBRANCH   4   7
BRANCH   1  16
ATOM     16  S   UNL     1       6.860   7.172  17.396  0.00  0.00    +0.000 S 
BRANCH  16  17
ATOM     17  C   UNL     1       8.190   7.656  18.540  0.00  0.00    +0.000 C 
BRANCH  17  19
ATOM     18  N   UNL     1       9.483   9.647  19.149  0.00  0.00    +0.000 N 
ATOM     19  C   UNL     1       8.440   9.145  18.371  0.00  0.00    +0.000 C 
ATOM     20  O   UNL     1       7.710   9.801  17.629  0.00  0.00    +0.000 OA
ATOM     21  H   UNL     1       9.871   9.026  19.847  0.00  0.00    +0.000 HD
BRANCH  18  27
ATOM     22  C   UNL     1       9.769  11.802  20.325  0.00  0.00    +0.000 A 
ATOM     23  C   UNL     1      10.189  13.154  20.283  0.00  0.00    +0.000 A 
ATOM     24  C   UNL     1      10.763  13.700  19.141  0.00  0.00    +0.000 A 
ATOM     25  C   UNL     1      10.939  12.909  18.022  0.00  0.00    +0.000 A 
ATOM     26  C   UNL     1      10.534  11.570  18.046  0.00  0.00    +0.000 A 
ATOM     27  C   UNL     1       9.925  11.000  19.172  0.00  0.00    +0.000 A 
BRANCH  22  29
ATOM     28  C   UNL     1       8.294  12.489  22.237  0.00  0.00    +0.000 C 
ATOM     29  C   UNL     1       9.095  11.359  21.606  0.00  0.00    +0.000 C 
ENDBRANCH  22  29
ENDBRANCH  18  27
ENDBRANCH  17  19
ENDBRANCH  16  17
ENDBRANCH   1  16
TORSDOF 7
ENDMDL
MODEL 9
REMARK VINA RESULT:      -8.0      4.556      7.234
REMARK  Name = 
REMARK  8 active torsions:
REMARK  status: ('A' for Active; 'I' for Inactive)
REMARK    1  A    between atoms: C_1  and  C_2
REMARK    2  A    between atoms: C_2  and  C_3
REMARK    3  A    between atoms: C_8  and  N_9
REMARK    4  A    between atoms: C_10  and  C_12
REMARK    5  A    between atoms: C_12  and  S_13
REMARK    6  A    between atoms: S_13  and  C_14
REMARK    7  A    between atoms: C_17  and  C_18
REMARK    8  A    between atoms: C_23  and  N_24
REMARK                            x       y       z     vdW  Elec       q    Type
REMARK                         _______ _______ _______ _____ _____    ______ ____
ROOT
ATOM      1  C   UNL     1       2.070   5.956  20.376  0.00  0.00    +0.000 A 
ATOM      2  N   UNL     1       2.546   6.670  19.388  0.00  0.00    +0.000 NA
ATOM      3  N   UNL     1       2.058   7.952  19.546  0.00  0.00    +0.000 NA
ATOM      4  C   UNL     1       1.321   7.992  20.645  0.00  0.00    +0.000 A 
ATOM      5  N   UNL     1       1.262   6.719  21.156  0.00  0.00    +0.000 N 
ATOM      6  H   UNL     1       0.746   6.428  21.973  0.00  0.00    +0.000 HD
ENDROOT
BRANCH   4   7
ATOM      7  C   UNL     1       0.656   9.164  21.220  0.00  0.00    +0.000 A 
ATOM      8  C   UNL     1       0.175   9.056  22.539  0.00  0.00    +0.000 A 
ATOM      9  C   UNL     1      -0.479  10.120  23.161  0.00  0.00    +0.000 A 
ATOM     10  C   UNL     1      -0.653  11.317  22.478  0.00  0.00    +0.000 A 
ATOM     11  C   UNL     1      -0.171  11.449  21.174  0.00  0.00    +0.000 A 
ATOM     12  C   UNL     1       0.446  10.370  20.512  0.00  0.00    +0.000 A 
BRANCH  12  13
ATOM     13  N   UNL     1       0.966  10.597  19.215  0.00  0.00    +0.000 N 
ATOM     14  H   UNL     1       0.560  11.425  18.782  0.00  0.00    +0.000 HD
ATOM     15  H   UNL     1       0.825   9.796  18.602  0.00  0.00    +0.000 HD
ENDBRANCH  12  13
ENDBRANCH   4   7
BRANCH   1  16
ATOM     16  S   UNL     1       2.348   4.302  20.744  0.00  0.00    +0.000 S 
BRANCH  16  17
ATOM     17  C   UNL     1       1.872   3.505  19.178  0.00  0.00    +0.000 C 
BRANCH  17  19
ATOM     18  N   UNL     1       3.694   4.426  17.822  0.00  0.00    +0.000 N 
ATOM     19  C   UNL     1       3.134   3.270  18.365  0.00  0.00    +0.000 C 
ATOM     20  O   UNL     1       3.542   2.121  18.199  0.00  0.00    +0.000 OA
ATOM     21  H   UNL     1       3.146   5.273  17.889  0.00  0.00    +0.000 HD
BRANCH  18  27
ATOM     22  C   UNL     1       6.109   4.891  17.584  0.00  0.00    +0.000 A 
ATOM     23  C   UNL     1       7.247   4.969  16.744  0.00  0.00    +0.000 A 
ATOM     24  C   UNL     1       7.177   4.641  15.395  0.00  0.00    +0.000 A 
ATOM     25  C   UNL     1       5.976   4.218  14.859  0.00  0.00    +0.000 A 
ATOM     26  C   UNL     1       4.843   4.130  15.673  0.00  0.00    +0.000 A 
ATOM     27  C   UNL     1       4.876   4.483  17.030  0.00  0.00    +0.000 A 
BRANCH  22  29
ATOM     28  C   UNL     1       7.755   5.753  19.273  0.00  0.00    +0.000 C 
ATOM     29  C   UNL     1       6.310   5.347  19.013  0.00  0.00    +0.000 C 
ENDBRANCH  22  29
ENDBRANCH  18  27
ENDBRANCH  17  19
ENDBRANCH  16  17
ENDBRANCH   1  16
TORSDOF 7
ENDMDL
