MODEL 1
REMARK VINA RESULT:      -7.6      0.000      0.000
REMARK  Name = 
REMARK  9 active torsions:
REMARK  status: ('A' for Active; 'I' for Inactive)
REMARK    1  A    between atoms: C_1  and  C_2
REMARK    2  A    between atoms: C_7  and  N_8
REMARK    3  A    between atoms: C_9  and  C_11
REMARK    4  A    between atoms: C_11  and  C_12
REMARK    5  A    between atoms: C_15  and  S_16
REMARK    6  A    between atoms: S_16  and  C_17
REMARK    7  A    between atoms: C_17  and  C_18
REMARK    8  A    between atoms: N_20  and  C_21
REMARK    9  A    between atoms: N_26  and  C_27
REMARK                            x       y       z     vdW  Elec       q    Type
REMARK                         _______ _______ _______ _____ _____    ______ ____
ROOT
ATOM      1  C   UNL     1       1.556   9.014  18.817  0.00  0.00    +0.000 A 
ATOM      2  N   UNL     1       2.051   8.413  17.753  0.00  0.00    +0.000 NA
ATOM      3  N   UNL     1       2.454   7.146  18.119  0.00  0.00    +0.000 NA
ATOM      4  C   UNL     1       2.207   6.998  19.402  0.00  0.00    +0.000 A 
ATOM      5  N   UNL     1       1.656   8.150  19.897  0.00  0.00    +0.000 N 
ATOM      6  C   UNL     1       1.293   8.445  21.261  0.00  0.00    +0.000 C 
ENDROOT
BRANCH   1   7
ATOM      7  C   UNL     1       1.086  10.422  18.930  0.00  0.00    +0.000 C 
BRANCH   7   9
ATOM      8  N   UNL     1      -1.121  11.055  17.912  0.00  0.00    +0.000 N 
ATOM      9  C   UNL     1      -0.406  10.690  19.037  0.00  0.00    +0.000 C 
ATOM     10  O   UNL     1      -0.895  10.582  20.168  0.00  0.00    +0.000 OA
ATOM     11  H   UNL     1      -0.573  11.270  17.080  0.00  0.00    +0.000 HD
BRANCH   8  18
ATOM     12  C   UNL     1      -2.627  10.332  15.480  0.00  0.00    +0.000 C 
ATOM     13  C   UNL     1      -3.252  10.986  16.682  0.00  0.00    +0.000 A 
ATOM     14  C   UNL     1      -4.635  11.274  16.620  0.00  0.00    +0.000 A 
ATOM     15  C   UNL     1      -5.300  11.866  17.692  0.00  0.00    +0.000 A 
ATOM     16  C   UNL     1      -4.596  12.155  18.850  0.00  0.00    +0.000 A 
ATOM     17  C   UNL     1      -3.228  11.870  18.928  0.00  0.00    +0.000 A 
ATOM     18  C   UNL     1      -2.525  11.306  17.847  0.00  0.00    +0.000 A 
ENDBRANCH   8  18
ENDBRANCH   7   9
ENDBRANCH   1   7
BRANCH   4  19
ATOM     19  S   UNL     1       2.358   5.524  20.297  0.00  0.00    +0.000 S 
BRANCH  19  20
ATOM     20  C   UNL     1       2.067   4.244  19.044  0.00  0.00    +0.000 C 
BRANCH  20  21
ATOM     21  C   UNL     1       3.355   3.686  18.450  0.00  0.00    +0.000 C 
ATOM     22  O   UNL     1       3.919   2.673  18.862  0.00  0.00    +0.000 OA
ATOM     23  N   UNL     1       3.843   4.419  17.382  0.00  0.00    +0.000 N 
ATOM     24  H   UNL     1       3.271   5.151  16.977  0.00  0.00    +0.000 HD
BRANCH  23  25
ATOM     25  C   UNL     1       5.085   4.067  16.725  0.00  0.00    +0.000 C 
ATOM     26  C   UNL     1       5.234   4.631  15.315  0.00  0.00    +0.000 C 
ATOM     27  C   UNL     1       6.723   4.446  15.028  0.00  0.00    +0.000 C 
ATOM     28  C   UNL     1       7.421   4.544  16.387  0.00  0.00    +0.000 C 
ATOM     29  C   UNL     1       6.309   4.642  17.427  0.00  0.00    +0.000 C 
ENDBRANCH  23  25
ENDBRANCH  20  21
ENDBRANCH  19  20
ENDBRANCH   4  19
TORSDOF 7
ENDMDL
MODEL 2
REMARK VINA RESULT:      -7.4      6.107      9.460
REMARK  Name = 
REMARK  9 active torsions:
REMARK  status: ('A' for Active; 'I' for Inactive)
REMARK    1  A    between atoms: C_1  and  C_2
REMARK    2  A    between atoms: C_7  and  N_8
REMARK    3  A    between atoms: C_9  and  C_11
REMARK    4  A    between atoms: C_11  and  C_12
REMARK    5  A    between atoms: C_15  and  S_16
REMARK    6  A    between atoms: S_16  and  C_17
REMARK    7  A    between atoms: C_17  and  C_18
REMARK    8  A    between atoms: N_20  and  C_21
REMARK    9  A    between atoms: N_26  and  C_27
REMARK                            x       y       z     vdW  Elec       q    Type
REMARK                         _______ _______ _______ _____ _____    ______ ____
ROOT
ATOM      1  C   UNL     1       6.995   5.888  17.279  0.00  0.00    +0.000 A 
ATOM      2  N   UNL     1       6.701   6.833  16.407  0.00  0.00    +0.000 NA
ATOM      3  N   UNL     1       7.225   8.023  16.866  0.00  0.00    +0.000 NA
ATOM      4  C   UNL     1       7.822   7.787  18.013  0.00  0.00    +0.000 A 
ATOM      5  N   UNL     1       7.694   6.461  18.330  0.00  0.00    +0.000 N 
ATOM      6  C   UNL     1       8.141   5.787  19.524  0.00  0.00    +0.000 C 
ENDROOT
BRANCH   1   7
ATOM      7  C   UNL     1       6.559   4.465  17.258  0.00  0.00    +0.000 C 
BRANCH   7   9
ATOM      8  N   UNL     1       4.871   4.213  19.101  0.00  0.00    +0.000 N 
ATOM      9  C   UNL     1       5.165   4.117  17.753  0.00  0.00    +0.000 C 
ATOM     10  O   UNL     1       4.363   3.739  16.891  0.00  0.00    +0.000 OA
ATOM     11  H   UNL     1       5.661   4.375  19.724  0.00  0.00    +0.000 HD
BRANCH   8  18
ATOM     12  C   UNL     1       2.869   6.371  19.288  0.00  0.00    +0.000 C 
ATOM     13  C   UNL     1       2.649   4.984  19.826  0.00  0.00    +0.000 A 
ATOM     14  C   UNL     1       1.415   4.721  20.463  0.00  0.00    +0.000 A 
ATOM     15  C   UNL     1       1.119   3.461  20.978  0.00  0.00    +0.000 A 
ATOM     16  C   UNL     1       2.044   2.439  20.840  0.00  0.00    +0.000 A 
ATOM     17  C   UNL     1       3.267   2.682  20.206  0.00  0.00    +0.000 A 
ATOM     18  C   UNL     1       3.606   3.954  19.710  0.00  0.00    +0.000 A 
ENDBRANCH   8  18
ENDBRANCH   7   9
ENDBRANCH   1   7
BRANCH   4  19
ATOM     19  S   UNL     1       8.794   8.914  18.898  0.00  0.00    +0.000 S 
BRANCH  19  20
ATOM     20  C   UNL     1       8.569  10.465  17.984  0.00  0.00    +0.000 C 
BRANCH  20  21
ATOM     21  C   UNL     1       9.676  11.479  18.248  0.00  0.00    +0.000 C 
ATOM     22  O   UNL     1      10.770  11.464  17.687  0.00  0.00    +0.000 OA
ATOM     23  N   UNL     1       9.339  12.445  19.181  0.00  0.00    +0.000 N 
ATOM     24  H   UNL     1       8.381  12.515  19.503  0.00  0.00    +0.000 HD
BRANCH  23  25
ATOM     25  C   UNL     1      10.285  13.461  19.596  0.00  0.00    +0.000 C 
ATOM     26  C   UNL     1      10.216  14.754  18.788  0.00  0.00    +0.000 C 
ATOM     27  C   UNL     1      11.004  15.738  19.650  0.00  0.00    +0.000 C 
ATOM     28  C   UNL     1      10.807  15.272  21.095  0.00  0.00    +0.000 C 
ATOM     29  C   UNL     1      10.032  13.960  21.014  0.00  0.00    +0.000 C 
ENDBRANCH  23  25
ENDBRANCH  20  21
ENDBRANCH  19  20
ENDBRANCH   4  19
TORSDOF 7
ENDMDL
MODEL 3
REMARK VINA RESULT:      -7.4      3.047      8.812
REMARK  Name = 
REMARK  9 active torsions:
REMARK  status: ('A' for Active; 'I' for Inactive)
REMARK    1  A    between atoms: C_1  and  C_2
REMARK    2  A    between atoms: C_7  and  N_8
REMARK    3  A    between atoms: C_9  and  C_11
REMARK    4  A    between atoms: C_11  and  C_12
REMARK    5  A    between atoms: C_15  and  S_16
REMARK    6  A    between atoms: S_16  and  C_17
REMARK    7  A    between atoms: C_17  and  C_18
REMARK    8  A    between atoms: N_20  and  C_21
REMARK    9  A    between atoms: N_26  and  C_27
REMARK                            x       y       z     vdW  Elec       q    Type
REMARK                         _______ _______ _______ _____ _____    ______ ____
ROOT
ATOM      1  C   UNL     1       0.930   8.961  20.932  0.00  0.00    +0.000 A 
ATOM      2  N   UNL     1       1.191   9.452  19.736  0.00  0.00    +0.000 NA
ATOM      3  N   UNL     1       0.857  10.790  19.735  0.00  0.00    +0.000 NA
ATOM      4  C   UNL     1       0.391  11.091  20.926  0.00  0.00    +0.000 A 
ATOM      5  N   UNL     1       0.399   9.973  21.716  0.00  0.00    +0.000 N 
ATOM      6  C   UNL     1      -0.085   9.839  23.069  0.00  0.00    +0.000 C 
ENDROOT
BRANCH   1   7
ATOM      7  C   UNL     1       1.039   7.545  21.377  0.00  0.00    +0.000 C 
BRANCH   7   9
ATOM      8  N   UNL     1       1.172   5.262  20.339  0.00  0.00    +0.000 N 
ATOM      9  C   UNL     1       1.699   6.535  20.454  0.00  0.00    +0.000 C 
ATOM     10  O   UNL     1       2.712   6.925  19.861  0.00  0.00    +0.000 OA
ATOM     11  H   UNL     1       0.439   5.016  21.001  0.00  0.00    +0.000 HD
BRANCH   8  18
ATOM     12  C   UNL     1       1.766   2.606  21.480  0.00  0.00    +0.000 C 
ATOM     13  C   UNL     1       1.968   2.952  20.030  0.00  0.00    +0.000 A 
ATOM     14  C   UNL     1       2.483   1.943  19.186  0.00  0.00    +0.000 A 
ATOM     15  C   UNL     1       2.688   2.169  17.826  0.00  0.00    +0.000 A 
ATOM     16  C   UNL     1       2.358   3.403  17.288  0.00  0.00    +0.000 A 
ATOM     17  C   UNL     1       1.842   4.410  18.111  0.00  0.00    +0.000 A 
ATOM     18  C   UNL     1       1.659   4.219  19.492  0.00  0.00    +0.000 A 
ENDBRANCH   8  18
ENDBRANCH   7   9
ENDBRANCH   1   7
BRANCH   4  19
ATOM     19  S   UNL     1       0.012  12.684  21.491  0.00  0.00    +0.000 S 
BRANCH  19  20
ATOM     20  C   UNL     1      -1.559  13.056  20.662  0.00  0.00    +0.000 C 
BRANCH  20  21
ATOM     21  C   UNL     1      -1.515  12.806  19.159  0.00  0.00    +0.000 C 
ATOM     22  O   UNL     1      -0.816  13.448  18.376  0.00  0.00    +0.000 OA
ATOM     23  N   UNL     1      -2.331  11.770  18.739  0.00  0.00    +0.000 N 
ATOM     24  H   UNL     1      -2.768  11.169  19.428  0.00  0.00    +0.000 HD
BRANCH  23  25
ATOM     25  C   UNL     1      -2.456  11.422  17.338  0.00  0.00    +0.000 C 
ATOM     26  C   UNL     1      -2.043   9.991  17.005  0.00  0.00    +0.000 C 
ATOM     27  C   UNL     1      -2.621   9.785  15.606  0.00  0.00    +0.000 C 
ATOM     28  C   UNL     1      -3.870  10.668  15.542  0.00  0.00    +0.000 C 
ATOM     29  C   UNL     1      -3.898  11.459  16.846  0.00  0.00    +0.000 C 
ENDBRANCH  23  25
ENDBRANCH  20  21
ENDBRANCH  19  20
ENDBRANCH   4  19
TORSDOF 7
ENDMDL
MODEL 4
REMARK VINA RESULT:      -7.4      6.211      9.568
REMARK  Name = 
REMARK  9 active torsions:
REMARK  status: ('A' for Active; 'I' for Inactive)
REMARK    1  A    between atoms: C_1  and  C_2
REMARK    2  A    between atoms: C_7  and  N_8
REMARK    3  A    between atoms: C_9  and  C_11
REMARK    4  A    between atoms: C_11  and  C_12
REMARK    5  A    between atoms: C_15  and  S_16
REMARK    6  A    between atoms: S_16  and  C_17
REMARK    7  A    between atoms: C_17  and  C_18
REMARK    8  A    between atoms: N_20  and  C_21
REMARK    9  A    between atoms: N_26  and  C_27
REMARK                            x       y       z     vdW  Elec       q    Type
REMARK                         _______ _______ _______ _____ _____    ______ ____
ROOT
ATOM      1  C   UNL     1       7.034   5.936  17.343  0.00  0.00    +0.000 A 
ATOM      2  N   UNL     1       6.812   6.883  16.452  0.00  0.00    +0.000 NA
ATOM      3  N   UNL     1       7.365   8.056  16.922  0.00  0.00    +0.000 NA
ATOM      4  C   UNL     1       7.906   7.808  18.093  0.00  0.00    +0.000 A 
ATOM      5  N   UNL     1       7.714   6.492  18.416  0.00  0.00    +0.000 N 
ATOM      6  C   UNL     1       8.086   5.813  19.633  0.00  0.00    +0.000 C 
ENDROOT
BRANCH   1   7
ATOM      7  C   UNL     1       6.544   4.531  17.317  0.00  0.00    +0.000 C 
BRANCH   7   9
ATOM      8  N   UNL     1       4.738   3.986  18.975  0.00  0.00    +0.000 N 
ATOM      9  C   UNL     1       5.091   4.255  17.666  0.00  0.00    +0.000 C 
ATOM     10  O   UNL     1       4.296   4.268  16.719  0.00  0.00    +0.000 OA
ATOM     11  H   UNL     1       5.506   3.841  19.628  0.00  0.00    +0.000 HD
BRANCH   8  18
ATOM     12  C   UNL     1       3.507   1.331  18.597  0.00  0.00    +0.000 C 
ATOM     13  C   UNL     1       2.809   2.484  19.266  0.00  0.00    +0.000 A 
ATOM     14  C   UNL     1       1.488   2.269  19.720  0.00  0.00    +0.000 A 
ATOM     15  C   UNL     1       0.771   3.275  20.364  0.00  0.00    +0.000 A 
ATOM     16  C   UNL     1       1.374   4.503  20.584  0.00  0.00    +0.000 A 
ATOM     17  C   UNL     1       2.684   4.728  20.145  0.00  0.00    +0.000 A 
ATOM     18  C   UNL     1       3.417   3.741  19.461  0.00  0.00    +0.000 A 
ENDBRANCH   8  18
ENDBRANCH   7   9
ENDBRANCH   1   7
BRANCH   4  19
ATOM     19  S   UNL     1       8.886   8.905  19.007  0.00  0.00    +0.000 S 
BRANCH  19  20
ATOM     20  C   UNL     1       8.863  10.418  18.004  0.00  0.00    +0.000 C 
BRANCH  20  21
ATOM     21  C   UNL     1       9.806  11.495  18.527  0.00  0.00    +0.000 C 
ATOM     22  O   UNL     1      10.851  11.259  19.132  0.00  0.00    +0.000 OA
ATOM     23  N   UNL     1       9.390  12.786  18.251  0.00  0.00    +0.000 N 
ATOM     24  H   UNL     1       8.611  12.934  17.620  0.00  0.00    +0.000 HD
BRANCH  23  25
ATOM     25  C   UNL     1      10.134  13.939  18.716  0.00  0.00    +0.000 C 
ATOM     26  C   UNL     1      10.669  14.835  17.602  0.00  0.00    +0.000 C 
ATOM     27  C   UNL     1      11.050  16.114  18.345  0.00  0.00    +0.000 C 
ATOM     28  C   UNL     1      10.088  16.203  19.533  0.00  0.00    +0.000 C 
ATOM     29  C   UNL     1       9.279  14.910  19.521  0.00  0.00    +0.000 C 
ENDBRANCH  23  25
ENDBRANCH  20  21
ENDBRANCH  19  20
ENDBRANCH   4  19
TORSDOF 7
ENDMDL
MODEL 5
REMARK VINA RESULT:      -7.3      1.971      2.827
REMARK  Name = 
REMARK  9 active torsions:
REMARK  status: ('A' for Active; 'I' for Inactive)
REMARK    1  A    between atoms: C_1  and  C_2
REMARK    2  A    between atoms: C_7  and  N_8
REMARK    3  A    between atoms: C_9  and  C_11
REMARK    4  A    between atoms: C_11  and  C_12
REMARK    5  A    between atoms: C_15  and  S_16
REMARK    6  A    between atoms: S_16  and  C_17
REMARK    7  A    between atoms: C_17  and  C_18
REMARK    8  A    between atoms: N_20  and  C_21
REMARK    9  A    between atoms: N_26  and  C_27
REMARK                            x       y       z     vdW  Elec       q    Type
REMARK                         _______ _______ _______ _____ _____    ______ ____
ROOT
ATOM      1  C   UNL     1       2.086   6.319  19.191  0.00  0.00    +0.000 A 
ATOM      2  N   UNL     1       1.989   6.168  17.885  0.00  0.00    +0.000 NA
ATOM      3  N   UNL     1       1.859   4.823  17.613  0.00  0.00    +0.000 NA
ATOM      4  C   UNL     1       1.887   4.174  18.756  0.00  0.00    +0.000 A 
ATOM      5  N   UNL     1       2.045   5.066  19.783  0.00  0.00    +0.000 N 
ATOM      6  C   UNL     1       2.191   4.783  21.190  0.00  0.00    +0.000 C 
ENDROOT
BRANCH   1   7
ATOM      7  C   UNL     1       2.336   7.578  19.945  0.00  0.00    +0.000 C 
BRANCH   7   9
ATOM      8  N   UNL     1       0.929   9.634  19.622  0.00  0.00    +0.000 N 
ATOM      9  C   UNL     1       1.155   8.459  20.315  0.00  0.00    +0.000 C 
ATOM     10  O   UNL     1       0.460   8.063  21.259  0.00  0.00    +0.000 OA
ATOM     11  H   UNL     1       1.665   9.927  18.982  0.00  0.00    +0.000 HD
BRANCH   8  18
ATOM     12  C   UNL     1      -1.178   9.896  17.574  0.00  0.00    +0.000 C 
ATOM     13  C   UNL     1      -1.153  10.695  18.848  0.00  0.00    +0.000 A 
ATOM     14  C   UNL     1      -2.197  11.625  19.053  0.00  0.00    +0.000 A 
ATOM     15  C   UNL     1      -2.262  12.397  20.211  0.00  0.00    +0.000 A 
ATOM     16  C   UNL     1      -1.297  12.231  21.191  0.00  0.00    +0.000 A 
ATOM     17  C   UNL     1      -0.261  11.309  21.005  0.00  0.00    +0.000 A 
ATOM     18  C   UNL     1      -0.152  10.543  19.830  0.00  0.00    +0.000 A 
ENDBRANCH   8  18
ENDBRANCH   7   9
ENDBRANCH   1   7
BRANCH   4  19
ATOM     19  S   UNL     1       1.574   2.485  18.969  0.00  0.00    +0.000 S 
BRANCH  19  20
ATOM     20  C   UNL     1       3.155   1.710  18.531  0.00  0.00    +0.000 C 
BRANCH  20  21
ATOM     21  C   UNL     1       4.351   2.630  18.747  0.00  0.00    +0.000 C 
ATOM     22  O   UNL     1       4.908   2.790  19.832  0.00  0.00    +0.000 OA
ATOM     23  N   UNL     1       4.774   3.277  17.599  0.00  0.00    +0.000 N 
ATOM     24  H   UNL     1       4.391   3.002  16.702  0.00  0.00    +0.000 HD
BRANCH  23  25
ATOM     25  C   UNL     1       5.865   4.230  17.623  0.00  0.00    +0.000 C 
ATOM     26  C   UNL     1       6.408   4.601  16.246  0.00  0.00    +0.000 C 
ATOM     27  C   UNL     1       7.238   5.852  16.532  0.00  0.00    +0.000 C 
ATOM     28  C   UNL     1       6.561   6.533  17.725  0.00  0.00    +0.000 C 
ATOM     29  C   UNL     1       5.452   5.588  18.178  0.00  0.00    +0.000 C 
ENDBRANCH  23  25
ENDBRANCH  20  21
ENDBRANCH  19  20
ENDBRANCH   4  19
TORSDOF 7
ENDMDL
MODEL 6
REMARK VINA RESULT:      -7.3      2.133      3.414
REMARK  Name = 
REMARK  9 active torsions:
REMARK  status: ('A' for Active; 'I' for Inactive)
REMARK    1  A    between atoms: C_1  and  C_2
REMARK    2  A    between atoms: C_7  and  N_8
REMARK    3  A    between atoms: C_9  and  C_11
REMARK    4  A    between atoms: C_11  and  C_12
REMARK    5  A    between atoms: C_15  and  S_16
REMARK    6  A    between atoms: S_16  and  C_17
REMARK    7  A    between atoms: C_17  and  C_18
REMARK    8  A    between atoms: N_20  and  C_21
REMARK    9  A    between atoms: N_26  and  C_27
REMARK                            x       y       z     vdW  Elec       q    Type
REMARK                         _______ _______ _______ _____ _____    ______ ____
ROOT
ATOM      1  C   UNL     1       1.856   6.245  20.347  0.00  0.00    +0.000 A 
ATOM      2  N   UNL     1       1.501   5.137  20.968  0.00  0.00    +0.000 NA
ATOM      3  N   UNL     1       1.544   4.100  20.061  0.00  0.00    +0.000 NA
ATOM      4  C   UNL     1       1.915   4.592  18.900  0.00  0.00    +0.000 A 
ATOM      5  N   UNL     1       2.110   5.942  19.018  0.00  0.00    +0.000 N 
ATOM      6  C   UNL     1       2.458   6.883  17.981  0.00  0.00    +0.000 C 
ENDROOT
BRANCH   1   7
ATOM      7  C   UNL     1       1.867   7.630  20.893  0.00  0.00    +0.000 C 
BRANCH   7   9
ATOM      8  N   UNL     1       0.595   9.489  19.783  0.00  0.00    +0.000 N 
ATOM      9  C   UNL     1       0.623   8.489  20.737  0.00  0.00    +0.000 C 
ATOM     10  O   UNL     1      -0.306   8.242  21.515  0.00  0.00    +0.000 OA
ATOM     11  H   UNL     1       1.479   9.698  19.322  0.00  0.00    +0.000 HD
BRANCH   8  18
ATOM     12  C   UNL     1       0.203  11.941  21.375  0.00  0.00    +0.000 C 
ATOM     13  C   UNL     1      -0.718  11.515  20.265  0.00  0.00    +0.000 A 
ATOM     14  C   UNL     1      -1.833  12.339  19.992  0.00  0.00    +0.000 A 
ATOM     15  C   UNL     1      -2.731  12.029  18.972  0.00  0.00    +0.000 A 
ATOM     16  C   UNL     1      -2.511  10.904  18.195  0.00  0.00    +0.000 A 
ATOM     17  C   UNL     1      -1.408  10.081  18.450  0.00  0.00    +0.000 A 
ATOM     18  C   UNL     1      -0.507  10.351  19.496  0.00  0.00    +0.000 A 
ENDBRANCH   8  18
ENDBRANCH   7   9
ENDBRANCH   1   7
BRANCH   4  19
ATOM     19  S   UNL     1       2.300   3.669  17.486  0.00  0.00    +0.000 S 
BRANCH  19  20
ATOM     20  C   UNL     1       3.923   2.960  17.881  0.00  0.00    +0.000 C 
BRANCH  20  21
ATOM     21  C   UNL     1       4.863   3.956  18.548  0.00  0.00    +0.000 C 
ATOM     22  O   UNL     1       5.232   3.876  19.719  0.00  0.00    +0.000 OA
ATOM     23  N   UNL     1       5.287   4.973  17.711  0.00  0.00    +0.000 N 
ATOM     24  H   UNL     1       5.088   4.918  16.718  0.00  0.00    +0.000 HD
BRANCH  23  25
ATOM     25  C   UNL     1       6.145   6.041  18.186  0.00  0.00    +0.000 C 
ATOM     26  C   UNL     1       7.567   5.603  18.523  0.00  0.00    +0.000 C 
ATOM     27  C   UNL     1       8.320   6.930  18.614  0.00  0.00    +0.000 C 
ATOM     28  C   UNL     1       7.605   7.877  17.647  0.00  0.00    +0.000 C 
ATOM     29  C   UNL     1       6.385   7.118  17.135  0.00  0.00    +0.000 C 
ENDBRANCH  23  25
ENDBRANCH  20  21
ENDBRANCH  19  20
ENDBRANCH   4  19
TORSDOF 7
ENDMDL
MODEL 7
REMARK VINA RESULT:      -7.3      2.944      4.210
REMARK  Name = 
REMARK  9 active torsions:
REMARK  status: ('A' for Active; 'I' for Inactive)
REMARK    1  A    between atoms: C_1  and  C_2
REMARK    2  A    between atoms: C_7  and  N_8
REMARK    3  A    between atoms: C_9  and  C_11
REMARK    4  A    between atoms: C_11  and  C_12
REMARK    5  A    between atoms: C_15  and  S_16
REMARK    6  A    between atoms: S_16  and  C_17
REMARK    7  A    between atoms: C_17  and  C_18
REMARK    8  A    between atoms: N_20  and  C_21
REMARK    9  A    between atoms: N_26  and  C_27
REMARK                            x       y       z     vdW  Elec       q    Type
REMARK                         _______ _______ _______ _____ _____    ______ ____
ROOT
ATOM      1  C   UNL     1       1.311   9.408  18.665  0.00  0.00    +0.000 A 
ATOM      2  N   UNL     1       1.991   9.071  17.587  0.00  0.00    +0.000 NA
ATOM      3  N   UNL     1       2.646   7.884  17.842  0.00  0.00    +0.000 NA
ATOM      4  C   UNL     1       2.362   7.521  19.072  0.00  0.00    +0.000 A 
ATOM      5  N   UNL     1       1.537   8.453  19.644  0.00  0.00    +0.000 N 
ATOM      6  C   UNL     1       1.034   8.482  20.996  0.00  0.00    +0.000 C 
ENDROOT
BRANCH   1   7
ATOM      7  C   UNL     1       0.530  10.654  18.895  0.00  0.00    +0.000 C 
BRANCH   7   9
ATOM      8  N   UNL     1       1.597  12.811  18.177  0.00  0.00    +0.000 N 
ATOM      9  C   UNL     1       1.277  11.941  19.202  0.00  0.00    +0.000 C 
ATOM     10  O   UNL     1       1.580  12.121  20.388  0.00  0.00    +0.000 OA
ATOM     11  H   UNL     1       1.439  12.470  17.230  0.00  0.00    +0.000 HD
BRANCH   8  18
ATOM     12  C   UNL     1       0.045  15.227  18.856  0.00  0.00    +0.000 C 
ATOM     13  C   UNL     1       1.529  15.233  18.613  0.00  0.00    +0.000 A 
ATOM     14  C   UNL     1       2.198  16.475  18.708  0.00  0.00    +0.000 A 
ATOM     15  C   UNL     1       3.574  16.573  18.513  0.00  0.00    +0.000 A 
ATOM     16  C   UNL     1       4.304  15.426  18.246  0.00  0.00    +0.000 A 
ATOM     17  C   UNL     1       3.656  14.189  18.155  0.00  0.00    +0.000 A 
ATOM     18  C   UNL     1       2.263  14.067  18.312  0.00  0.00    +0.000 A 
ENDBRANCH   8  18
ENDBRANCH   7   9
ENDBRANCH   1   7
BRANCH   4  19
ATOM     19  S   UNL     1       2.785   6.011  19.805  0.00  0.00    +0.000 S 
BRANCH  19  20
ATOM     20  C   UNL     1       1.915   4.792  18.779  0.00  0.00    +0.000 C 
BRANCH  20  21
ATOM     21  C   UNL     1       2.770   4.256  17.636  0.00  0.00    +0.000 C 
ATOM     22  O   UNL     1       2.420   3.349  16.883  0.00  0.00    +0.000 OA
ATOM     23  N   UNL     1       3.991   4.894  17.503  0.00  0.00    +0.000 N 
ATOM     24  H   UNL     1       4.175   5.735  18.038  0.00  0.00    +0.000 HD
BRANCH  23  25
ATOM     25  C   UNL     1       4.956   4.485  16.503  0.00  0.00    +0.000 C 
ATOM     26  C   UNL     1       5.120   5.466  15.346  0.00  0.00    +0.000 C 
ATOM     27  C   UNL     1       6.415   5.000  14.683  0.00  0.00    +0.000 C 
ATOM     28  C   UNL     1       7.259   4.394  15.808  0.00  0.00    +0.000 C 
ATOM     29  C   UNL     1       6.376   4.401  17.051  0.00  0.00    +0.000 C 
ENDBRANCH  23  25
ENDBRANCH  20  21
ENDBRANCH  19  20
ENDBRANCH   4  19
TORSDOF 7
ENDMDL
MODEL 8
REMARK VINA RESULT:      -7.3      2.296      3.226
REMARK  Name = 
REMARK  9 active torsions:
REMARK  status: ('A' for Active; 'I' for Inactive)
REMARK    1  A    between atoms: C_1  and  C_2
REMARK    2  A    between atoms: C_7  and  N_8
REMARK    3  A    between atoms: C_9  and  C_11
REMARK    4  A    between atoms: C_11  and  C_12
REMARK    5  A    between atoms: C_15  and  S_16
REMARK    6  A    between atoms: S_16  and  C_17
REMARK    7  A    between atoms: C_17  and  C_18
REMARK    8  A    between atoms: N_20  and  C_21
REMARK    9  A    between atoms: N_26  and  C_27
REMARK                            x       y       z     vdW  Elec       q    Type
REMARK                         _______ _______ _______ _____ _____    ______ ____
ROOT
ATOM      1  C   UNL     1       1.996   6.943  19.775  0.00  0.00    +0.000 A 
ATOM      2  N   UNL     1       2.513   7.424  18.661  0.00  0.00    +0.000 NA
ATOM      3  N   UNL     1       2.889   6.363  17.865  0.00  0.00    +0.000 NA
ATOM      4  C   UNL     1       2.604   5.253  18.508  0.00  0.00    +0.000 A 
ATOM      5  N   UNL     1       2.055   5.559  19.724  0.00  0.00    +0.000 N 
ATOM      6  C   UNL     1       1.656   4.650  20.772  0.00  0.00    +0.000 C 
ENDROOT
BRANCH   1   7
ATOM      7  C   UNL     1       1.541   7.705  20.970  0.00  0.00    +0.000 C 
BRANCH   7   9
ATOM      8  N   UNL     1       1.090   9.720  19.540  0.00  0.00    +0.000 N 
ATOM      9  C   UNL     1       1.008   9.115  20.780  0.00  0.00    +0.000 C 
ATOM     10  O   UNL     1       0.539   9.656  21.789  0.00  0.00    +0.000 OA
ATOM     11  H   UNL     1       1.645   9.234  18.837  0.00  0.00    +0.000 HD
BRANCH   8  18
ATOM     12  C   UNL     1      -1.542  10.007  18.238  0.00  0.00    +0.000 C 
ATOM     13  C   UNL     1      -0.640  11.169  18.557  0.00  0.00    +0.000 A 
ATOM     14  C   UNL     1      -1.089  12.459  18.194  0.00  0.00    +0.000 A 
ATOM     15  C   UNL     1      -0.327  13.594  18.464  0.00  0.00    +0.000 A 
ATOM     16  C   UNL     1       0.885  13.455  19.122  0.00  0.00    +0.000 A 
ATOM     17  C   UNL     1       1.339  12.184  19.492  0.00  0.00    +0.000 A 
ATOM     18  C   UNL     1       0.606  11.020  19.200  0.00  0.00    +0.000 A 
ENDBRANCH   8  18
ENDBRANCH   7   9
ENDBRANCH   1   7
BRANCH   4  19
ATOM     19  S   UNL     1       2.710   3.652  17.858  0.00  0.00    +0.000 S 
BRANCH  19  20
ATOM     20  C   UNL     1       4.259   3.019  18.563  0.00  0.00    +0.000 C 
BRANCH  20  21
ATOM     21  C   UNL     1       5.322   4.097  18.731  0.00  0.00    +0.000 C 
ATOM     22  O   UNL     1       5.574   4.654  19.799  0.00  0.00    +0.000 OA
ATOM     23  N   UNL     1       6.005   4.398  17.565  0.00  0.00    +0.000 N 
ATOM     24  H   UNL     1       5.878   3.812  16.748  0.00  0.00    +0.000 HD
BRANCH  23  25
ATOM     25  C   UNL     1       7.016   5.434  17.523  0.00  0.00    +0.000 C 
ATOM     26  C   UNL     1       6.490   6.813  17.135  0.00  0.00    +0.000 C 
ATOM     27  C   UNL     1       7.635   7.741  17.536  0.00  0.00    +0.000 C 
ATOM     28  C   UNL     1       8.320   7.063  18.726  0.00  0.00    +0.000 C 
ATOM     29  C   UNL     1       7.642   5.705  18.886  0.00  0.00    +0.000 C 
ENDBRANCH  23  25
ENDBRANCH  20  21
ENDBRANCH  19  20
ENDBRANCH   4  19
TORSDOF 7
ENDMDL
MODEL 9
REMARK VINA RESULT:      -7.3      2.114      3.294
REMARK  Name = 
REMARK  9 active torsions:
REMARK  status: ('A' for Active; 'I' for Inactive)
REMARK    1  A    between atoms: C_1  and  C_2
REMARK    2  A    between atoms: C_7  and  N_8
REMARK    3  A    between atoms: C_9  and  C_11
REMARK    4  A    between atoms: C_11  and  C_12
REMARK    5  A    between atoms: C_15  and  S_16
REMARK    6  A    between atoms: S_16  and  C_17
REMARK    7  A    between atoms: C_17  and  C_18
REMARK    8  A    between atoms: N_20  and  C_21
REMARK    9  A    between atoms: N_26  and  C_27
REMARK                            x       y       z     vdW  Elec       q    Type
REMARK                         _______ _______ _______ _____ _____    ______ ____
ROOT
ATOM      1  C   UNL     1       2.069   6.585  19.762  0.00  0.00    +0.000 A 
ATOM      2  N   UNL     1       2.252   6.853  18.483  0.00  0.00    +0.000 NA
ATOM      3  N   UNL     1       2.405   5.661  17.809  0.00  0.00    +0.000 NA
ATOM      4  C   UNL     1       2.322   4.685  18.686  0.00  0.00    +0.000 A 
ATOM      5  N   UNL     1       2.128   5.211  19.935  0.00  0.00    +0.000 N 
ATOM      6  C   UNL     1       2.046   4.506  21.191  0.00  0.00    +0.000 C 
ENDROOT
BRANCH   1   7
ATOM      7  C   UNL     1       1.955   7.553  20.887  0.00  0.00    +0.000 C 
BRANCH   7   9
ATOM      8  N   UNL     1       0.830   9.467  19.712  0.00  0.00    +0.000 N 
ATOM      9  C   UNL     1       0.892   8.636  20.816  0.00  0.00    +0.000 C 
ATOM     10  O   UNL     1       0.139   8.720  21.794  0.00  0.00    +0.000 OA
ATOM     11  H   UNL     1       1.606   9.403  19.056  0.00  0.00    +0.000 HD
BRANCH   8  18
ATOM     12  C   UNL     1       1.370  12.197  20.692  0.00  0.00    +0.000 C 
ATOM     13  C   UNL     1       0.109  11.806  19.971  0.00  0.00    +0.000 A 
ATOM     14  C   UNL     1      -0.865  12.812  19.772  0.00  0.00    +0.000 A 
ATOM     15  C   UNL     1      -2.056  12.544  19.101  0.00  0.00    +0.000 A 
ATOM     16  C   UNL     1      -2.280  11.272  18.598  0.00  0.00    +0.000 A 
ATOM     17  C   UNL     1      -1.323  10.269  18.783  0.00  0.00    +0.000 A 
ATOM     18  C   UNL     1      -0.127  10.503  19.487  0.00  0.00    +0.000 A 
ENDBRANCH   8  18
ENDBRANCH   7   9
ENDBRANCH   1   7
BRANCH   4  19
ATOM     19  S   UNL     1       2.263   2.995  18.316  0.00  0.00    +0.000 S 
BRANCH  19  20
ATOM     20  C   UNL     1       4.006   2.493  18.384  0.00  0.00    +0.000 C 
BRANCH  20  21
ATOM     21  C   UNL     1       4.941   3.489  17.709  0.00  0.00    +0.000 C 
ATOM     22  O   UNL     1       4.984   3.676  16.494  0.00  0.00    +0.000 OA
ATOM     23  N   UNL     1       5.745   4.190  18.591  0.00  0.00    +0.000 N 
ATOM     24  H   UNL     1       5.570   4.121  19.587  0.00  0.00    +0.000 HD
BRANCH  23  25
ATOM     25  C   UNL     1       6.731   5.143  18.126  0.00  0.00    +0.000 C 
ATOM     26  C   UNL     1       6.143   6.411  17.514  0.00  0.00    +0.000 C 
ATOM     27  C   UNL     1       7.340   7.359  17.474  0.00  0.00    +0.000 C 
ATOM     28  C   UNL     1       8.226   6.954  18.655  0.00  0.00    +0.000 C 
ATOM     29  C   UNL     1       7.589   5.704  19.253  0.00  0.00    +0.000 C 
ENDBRANCH  23  25
ENDBRANCH  20  21
ENDBRANCH  19  20
ENDBRANCH   4  19
TORSDOF 7
ENDMDL
