MODEL 1
REMARK VINA RESULT:      -6.5      0.000      0.000
REMARK  Name = 
REMARK  8 active torsions:
REMARK  status: ('A' for Active; 'I' for Inactive)
REMARK    1  A    between atoms: C_1  and  C_2
REMARK    2  A    between atoms: C_2  and  C_3
REMARK    3  A    between atoms: C_2  and  C_4
REMARK    4  A    between atoms: C_4  and  N_5
REMARK    5  A    between atoms: C_14  and  C_15
REMARK    6  A    between atoms: N_17  and  C_18
REMARK    7  A    between atoms: C_23  and  C_24
REMARK    8  A    between atoms: C_27  and  C_28
REMARK                            x       y       z     vdW  Elec       q    Type
REMARK                         _______ _______ _______ _____ _____    ______ ____
ROOT
ATOM      1  N   UNL     1       1.065  13.052  19.532  0.00  0.00    +0.000 N 
ATOM      2  C   UNL     1       1.198  11.649  19.531  0.00  0.00    +0.000 C 
ATOM      3  O   UNL     1       1.826  11.035  18.671  0.00  0.00    +0.000 OA
ATOM      4  C   UNL     1       0.527  10.871  20.608  0.00  0.00    +0.000 A 
ATOM      5  C   UNL     1       0.567   9.469  20.538  0.00  0.00    +0.000 A 
ATOM      6  C   UNL     1       0.006   8.694  21.549  0.00  0.00    +0.000 A 
ATOM      7  C   UNL     1      -0.573   9.313  22.650  0.00  0.00    +0.000 A 
ATOM      8  C   UNL     1      -0.620  10.707  22.727  0.00  0.00    +0.000 A 
ATOM      9  C   UNL     1      -0.108  11.504  21.685  0.00  0.00    +0.000 A 
ATOM     10  C   UNL     1      -0.153  13.019  21.733  0.00  0.00    +0.000 C 
ATOM     11  C   UNL     1      -0.071  13.624  20.301  0.00  0.00    +0.000 C 
ENDROOT
BRANCH  11  12
ATOM     12  C   UNL     1      -0.127  15.140  20.358  0.00  0.00    +0.000 A 
ATOM     13  C   UNL     1      -1.037  15.849  19.557  0.00  0.00    +0.000 A 
ATOM     14  C   UNL     1      -1.155  17.230  19.687  0.00  0.00    +0.000 A 
ATOM     15  C   UNL     1      -0.350  17.869  20.610  0.00  0.00    +0.000 A 
ATOM     16  N   UNL     1       0.546  17.228  21.389  0.00  0.00    +0.000 NA
ATOM     17  C   UNL     1       0.638  15.885  21.250  0.00  0.00    +0.000 A 
ENDBRANCH  11  12
BRANCH  10  18
ATOM     18  C   UNL     1      -1.349  13.546  22.551  0.00  0.00    +0.000 C 
ATOM     19  O   UNL     1      -1.168  13.885  23.719  0.00  0.00    +0.000 OA
ATOM     20  N   UNL     1      -2.591  13.500  21.931  0.00  0.00    +0.000 N 
ATOM     21  H   UNL     1      -2.661  12.988  21.060  0.00  0.00    +0.000 HD
BRANCH  20  22
ATOM     22  C   UNL     1      -3.817  13.935  22.490  0.00  0.00    +0.000 A 
ATOM     23  C   UNL     1      -4.080  15.263  22.846  0.00  0.00    +0.000 A 
ATOM     24  C   UNL     1      -5.282  15.615  23.466  0.00  0.00    +0.000 A 
ATOM     25  C   UNL     1      -6.238  14.642  23.717  0.00  0.00    +0.000 A 
ATOM     26  F   UNL     1      -7.373  14.993  24.339  0.00  0.00    +0.000 F 
ATOM     27  C   UNL     1      -6.019  13.323  23.333  0.00  0.00    +0.000 A 
ATOM     28  C   UNL     1      -4.808  12.973  22.705  0.00  0.00    +0.000 A 
BRANCH  27  29
ATOM     29  C   UNL     1      -7.006  12.327  23.590  0.00  0.00    +0.000 C 
ATOM     30  N   UNL     1      -7.786  11.485  23.781  0.00  0.00    +0.000 NA
ENDBRANCH  27  29
ENDBRANCH  20  22
ENDBRANCH  10  18
BRANCH   1  31
ATOM     31  C   UNL     1       1.565  13.719  18.312  0.00  0.00    +0.000 C 
BRANCH  31  33
ATOM     32  C   UNL     1       2.870  15.970  18.204  0.00  0.00    +0.000 C 
ATOM     33  C   UNL     1       2.916  14.461  18.461  0.00  0.00    +0.000 C 
ATOM     34  C   UNL     1       3.464  14.236  19.880  0.00  0.00    +0.000 C 
ENDBRANCH  31  33
ENDBRANCH   1  31
TORSDOF 6
ENDMDL
MODEL 2
REMARK VINA RESULT:      -6.4      0.610      1.083
REMARK  Name = 
REMARK  8 active torsions:
REMARK  status: ('A' for Active; 'I' for Inactive)
REMARK    1  A    between atoms: C_1  and  C_2
REMARK    2  A    between atoms: C_2  and  C_3
REMARK    3  A    between atoms: C_2  and  C_4
REMARK    4  A    between atoms: C_4  and  N_5
REMARK    5  A    between atoms: C_14  and  C_15
REMARK    6  A    between atoms: N_17  and  C_18
REMARK    7  A    between atoms: C_23  and  C_24
REMARK    8  A    between atoms: C_27  and  C_28
REMARK                            x       y       z     vdW  Elec       q    Type
REMARK                         _______ _______ _______ _____ _____    ______ ____
ROOT
ATOM      1  N   UNL     1       0.992  13.416  19.744  0.00  0.00    +0.000 N 
ATOM      2  C   UNL     1       1.160  12.018  19.682  0.00  0.00    +0.000 C 
ATOM      3  O   UNL     1       1.832  11.459  18.818  0.00  0.00    +0.000 OA
ATOM      4  C   UNL     1       0.472  11.174  20.698  0.00  0.00    +0.000 A 
ATOM      5  C   UNL     1       0.549   9.779  20.565  0.00  0.00    +0.000 A 
ATOM      6  C   UNL     1      -0.028   8.944  21.518  0.00  0.00    +0.000 A 
ATOM      7  C   UNL     1      -0.660   9.497  22.625  0.00  0.00    +0.000 A 
ATOM      8  C   UNL     1      -0.744  10.884  22.764  0.00  0.00    +0.000 A 
ATOM      9  C   UNL     1      -0.217  11.741  21.779  0.00  0.00    +0.000 A 
ATOM     10  C   UNL     1      -0.301  13.250  21.895  0.00  0.00    +0.000 C 
ATOM     11  C   UNL     1      -0.184  13.924  20.497  0.00  0.00    +0.000 C 
ENDROOT
BRANCH  11  12
ATOM     12  C   UNL     1      -0.280  15.434  20.621  0.00  0.00    +0.000 A 
ATOM     13  C   UNL     1       0.599  16.136  21.461  0.00  0.00    +0.000 A 
ATOM     14  C   UNL     1       0.575  17.528  21.493  0.00  0.00    +0.000 A 
ATOM     15  C   UNL     1      -0.338  18.182  20.689  0.00  0.00    +0.000 A 
ATOM     16  N   UNL     1      -1.209  17.546  19.878  0.00  0.00    +0.000 NA
ATOM     17  C   UNL     1      -1.162  16.193  19.859  0.00  0.00    +0.000 A 
ENDBRANCH  11  12
BRANCH  10  18
ATOM     18  C   UNL     1      -1.537  13.711  22.693  0.00  0.00    +0.000 C 
ATOM     19  O   UNL     1      -1.394  14.056  23.864  0.00  0.00    +0.000 OA
ATOM     20  N   UNL     1      -2.764  13.599  22.051  0.00  0.00    +0.000 N 
ATOM     21  H   UNL     1      -2.791  13.086  21.179  0.00  0.00    +0.000 HD
BRANCH  20  22
ATOM     22  C   UNL     1      -4.021  13.966  22.589  0.00  0.00    +0.000 A 
ATOM     23  C   UNL     1      -4.351  15.272  22.971  0.00  0.00    +0.000 A 
ATOM     24  C   UNL     1      -5.582  15.556  23.569  0.00  0.00    +0.000 A 
ATOM     25  C   UNL     1      -6.500  14.537  23.772  0.00  0.00    +0.000 A 
ATOM     26  F   UNL     1      -7.664  14.822  24.374  0.00  0.00    +0.000 F 
ATOM     27  C   UNL     1      -6.214  13.238  23.362  0.00  0.00    +0.000 A 
ATOM     28  C   UNL     1      -4.974  12.957  22.757  0.00  0.00    +0.000 A 
BRANCH  27  29
ATOM     29  C   UNL     1      -7.162  12.194  23.570  0.00  0.00    +0.000 C 
ATOM     30  N   UNL     1      -7.917  11.333  23.777  0.00  0.00    +0.000 NA
ENDBRANCH  27  29
ENDBRANCH  20  22
ENDBRANCH  10  18
BRANCH   1  31
ATOM     31  C   UNL     1       1.517  14.150  18.574  0.00  0.00    +0.000 C 
BRANCH  31  33
ATOM     32  C   UNL     1       3.706  14.548  19.929  0.00  0.00    +0.000 C 
ATOM     33  C   UNL     1       2.745  15.053  18.848  0.00  0.00    +0.000 C 
ATOM     34  C   UNL     1       3.544  15.232  17.547  0.00  0.00    +0.000 C 
ENDBRANCH  31  33
ENDBRANCH   1  31
TORSDOF 6
ENDMDL
MODEL 3
REMARK VINA RESULT:      -6.3      3.534      7.664
REMARK  Name = 
REMARK  8 active torsions:
REMARK  status: ('A' for Active; 'I' for Inactive)
REMARK    1  A    between atoms: C_1  and  C_2
REMARK    2  A    between atoms: C_2  and  C_3
REMARK    3  A    between atoms: C_2  and  C_4
REMARK    4  A    between atoms: C_4  and  N_5
REMARK    5  A    between atoms: C_14  and  C_15
REMARK    6  A    between atoms: N_17  and  C_18
REMARK    7  A    between atoms: C_23  and  C_24
REMARK    8  A    between atoms: C_27  and  C_28
REMARK                            x       y       z     vdW  Elec       q    Type
REMARK                         _______ _______ _______ _____ _____    ______ ____
ROOT
ATOM      1  N   UNL     1      -5.533  13.752  22.326  0.00  0.00    +0.000 N 
ATOM      2  C   UNL     1      -6.479  12.957  21.648  0.00  0.00    +0.000 C 
ATOM      3  O   UNL     1      -7.640  12.823  22.028  0.00  0.00    +0.000 OA
ATOM      4  C   UNL     1      -6.046  12.225  20.426  0.00  0.00    +0.000 A 
ATOM      5  C   UNL     1      -6.958  11.346  19.820  0.00  0.00    +0.000 A 
ATOM      6  C   UNL     1      -6.624  10.680  18.644  0.00  0.00    +0.000 A 
ATOM      7  C   UNL     1      -5.389  10.910  18.049  0.00  0.00    +0.000 A 
ATOM      8  C   UNL     1      -4.475  11.780  18.647  0.00  0.00    +0.000 A 
ATOM      9  C   UNL     1      -4.775  12.416  19.867  0.00  0.00    +0.000 A 
ATOM     10  C   UNL     1      -3.800  13.358  20.546  0.00  0.00    +0.000 C 
ATOM     11  C   UNL     1      -4.098  13.464  22.070  0.00  0.00    +0.000 C 
ENDROOT
BRANCH  11  12
ATOM     12  C   UNL     1      -3.111  14.400  22.744  0.00  0.00    +0.000 A 
ATOM     13  C   UNL     1      -2.332  13.956  23.824  0.00  0.00    +0.000 A 
ATOM     14  C   UNL     1      -1.357  14.785  24.372  0.00  0.00    +0.000 A 
ATOM     15  C   UNL     1      -1.194  16.045  23.830  0.00  0.00    +0.000 A 
ATOM     16  N   UNL     1      -1.930  16.516  22.802  0.00  0.00    +0.000 NA
ATOM     17  C   UNL     1      -2.867  15.689  22.281  0.00  0.00    +0.000 A 
ENDBRANCH  11  12
BRANCH  10  18
ATOM     18  C   UNL     1      -2.331  13.009  20.234  0.00  0.00    +0.000 C 
ATOM     19  O   UNL     1      -1.840  12.000  20.738  0.00  0.00    +0.000 OA
ATOM     20  N   UNL     1      -1.623  13.933  19.478  0.00  0.00    +0.000 N 
ATOM     21  H   UNL     1      -2.055  14.833  19.314  0.00  0.00    +0.000 HD
BRANCH  20  22
ATOM     22  C   UNL     1      -0.272  13.814  19.071  0.00  0.00    +0.000 A 
ATOM     23  C   UNL     1       0.358  12.590  18.816  0.00  0.00    +0.000 A 
ATOM     24  C   UNL     1       1.717  12.536  18.493  0.00  0.00    +0.000 A 
ATOM     25  C   UNL     1       2.451  13.709  18.404  0.00  0.00    +0.000 A 
ATOM     26  F   UNL     1       3.760  13.636  18.122  0.00  0.00    +0.000 F 
ATOM     27  C   UNL     1       1.838  14.941  18.610  0.00  0.00    +0.000 A 
ATOM     28  C   UNL     1       0.469  14.991  18.932  0.00  0.00    +0.000 A 
BRANCH  27  29
ATOM     29  C   UNL     1       2.596  16.145  18.514  0.00  0.00    +0.000 C 
ATOM     30  N   UNL     1       3.218  17.127  18.479  0.00  0.00    +0.000 NA
ENDBRANCH  27  29
ENDBRANCH  20  22
ENDBRANCH  10  18
BRANCH   1  31
ATOM     31  C   UNL     1      -5.982  14.253  23.641  0.00  0.00    +0.000 C 
BRANCH  31  33
ATOM     32  C   UNL     1      -5.485  16.665  24.492  0.00  0.00    +0.000 C 
ATOM     33  C   UNL     1      -6.402  15.743  23.681  0.00  0.00    +0.000 C 
ATOM     34  C   UNL     1      -6.474  16.289  22.246  0.00  0.00    +0.000 C 
ENDBRANCH  31  33
ENDBRANCH   1  31
TORSDOF 6
ENDMDL
MODEL 4
REMARK VINA RESULT:      -6.2      1.181      1.580
REMARK  Name = 
REMARK  8 active torsions:
REMARK  status: ('A' for Active; 'I' for Inactive)
REMARK    1  A    between atoms: C_1  and  C_2
REMARK    2  A    between atoms: C_2  and  C_3
REMARK    3  A    between atoms: C_2  and  C_4
REMARK    4  A    between atoms: C_4  and  N_5
REMARK    5  A    between atoms: C_14  and  C_15
REMARK    6  A    between atoms: N_17  and  C_18
REMARK    7  A    between atoms: C_23  and  C_24
REMARK    8  A    between atoms: C_27  and  C_28
REMARK                            x       y       z     vdW  Elec       q    Type
REMARK                         _______ _______ _______ _____ _____    ______ ____
ROOT
ATOM      1  N   UNL     1       0.960  12.934  19.514  0.00  0.00    +0.000 N 
ATOM      2  C   UNL     1       1.196  11.548  19.412  0.00  0.00    +0.000 C 
ATOM      3  O   UNL     1       1.832  11.040  18.491  0.00  0.00    +0.000 OA
ATOM      4  C   UNL     1       0.627  10.653  20.457  0.00  0.00    +0.000 A 
ATOM      5  C   UNL     1       0.767   9.266  20.291  0.00  0.00    +0.000 A 
ATOM      6  C   UNL     1       0.305   8.386  21.266  0.00  0.00    +0.000 A 
ATOM      7  C   UNL     1      -0.274   8.886  22.426  0.00  0.00    +0.000 A 
ATOM      8  C   UNL     1      -0.419  10.264  22.599  0.00  0.00    +0.000 A 
ATOM      9  C   UNL     1      -0.010  11.164  21.596  0.00  0.00    +0.000 A 
ATOM     10  C   UNL     1      -0.164  12.665  21.748  0.00  0.00    +0.000 C 
ATOM     11  C   UNL     1      -0.184  13.367  20.359  0.00  0.00    +0.000 C 
ENDROOT
BRANCH  11  12
ATOM     12  C   UNL     1      -0.348  14.868  20.520  0.00  0.00    +0.000 A 
ATOM     13  C   UNL     1       0.568  15.605  21.285  0.00  0.00    +0.000 A 
ATOM     14  C   UNL     1       0.472  16.993  21.346  0.00  0.00    +0.000 A 
ATOM     15  C   UNL     1      -0.548  17.607  20.645  0.00  0.00    +0.000 A 
ATOM     16  N   UNL     1      -1.458  16.934  19.909  0.00  0.00    +0.000 NA
ATOM     17  C   UNL     1      -1.339  15.587  19.860  0.00  0.00    +0.000 A 
ENDBRANCH  11  12
BRANCH  10  18
ATOM     18  C   UNL     1      -1.361  13.046  22.641  0.00  0.00    +0.000 C 
ATOM     19  O   UNL     1      -1.153  13.662  23.685  0.00  0.00    +0.000 OA
ATOM     20  N   UNL     1      -2.603  12.564  22.248  0.00  0.00    +0.000 N 
ATOM     21  H   UNL     1      -2.626  11.876  21.506  0.00  0.00    +0.000 HD
BRANCH  20  22
ATOM     22  C   UNL     1      -3.833  12.795  22.911  0.00  0.00    +0.000 A 
ATOM     23  C   UNL     1      -4.152  12.259  24.165  0.00  0.00    +0.000 A 
ATOM     24  C   UNL     1      -5.414  12.462  24.731  0.00  0.00    +0.000 A 
ATOM     25  C   UNL     1      -6.360  13.216  24.055  0.00  0.00    +0.000 A 
ATOM     26  F   UNL     1      -7.575  13.375  24.599  0.00  0.00    +0.000 F 
ATOM     27  C   UNL     1      -6.053  13.795  22.827  0.00  0.00    +0.000 A 
ATOM     28  C   UNL     1      -4.779  13.593  22.262  0.00  0.00    +0.000 A 
BRANCH  27  29
ATOM     29  C   UNL     1      -7.027  14.573  22.136  0.00  0.00    +0.000 C 
ATOM     30  N   UNL     1      -7.793  15.238  21.567  0.00  0.00    +0.000 NA
ENDBRANCH  27  29
ENDBRANCH  20  22
ENDBRANCH  10  18
BRANCH   1  31
ATOM     31  C   UNL     1       1.360  13.714  18.325  0.00  0.00    +0.000 C 
BRANCH  31  33
ATOM     32  C   UNL     1       2.702  15.944  18.223  0.00  0.00    +0.000 C 
ATOM     33  C   UNL     1       2.732  14.426  18.423  0.00  0.00    +0.000 C 
ATOM     34  C   UNL     1       3.354  14.141  19.800  0.00  0.00    +0.000 C 
ENDBRANCH  31  33
ENDBRANCH   1  31
TORSDOF 6
ENDMDL
MODEL 5
REMARK VINA RESULT:      -6.2      3.945      7.619
REMARK  Name = 
REMARK  8 active torsions:
REMARK  status: ('A' for Active; 'I' for Inactive)
REMARK    1  A    between atoms: C_1  and  C_2
REMARK    2  A    between atoms: C_2  and  C_3
REMARK    3  A    between atoms: C_2  and  C_4
REMARK    4  A    between atoms: C_4  and  N_5
REMARK    5  A    between atoms: C_14  and  C_15
REMARK    6  A    between atoms: N_17  and  C_18
REMARK    7  A    between atoms: C_23  and  C_24
REMARK    8  A    between atoms: C_27  and  C_28
REMARK                            x       y       z     vdW  Elec       q    Type
REMARK                         _______ _______ _______ _____ _____    ______ ____
ROOT
ATOM      1  N   UNL     1      -4.727  15.618  21.208  0.00  0.00    +0.000 N 
ATOM      2  C   UNL     1      -4.041  16.685  21.823  0.00  0.00    +0.000 C 
ATOM      3  O   UNL     1      -4.232  17.864  21.532  0.00  0.00    +0.000 OA
ATOM      4  C   UNL     1      -3.020  16.368  22.859  0.00  0.00    +0.000 A 
ATOM      5  C   UNL     1      -2.260  17.425  23.387  0.00  0.00    +0.000 A 
ATOM      6  C   UNL     1      -1.332  17.192  24.399  0.00  0.00    +0.000 A 
ATOM      7  C   UNL     1      -1.178  15.910  24.910  0.00  0.00    +0.000 A 
ATOM      8  C   UNL     1      -1.927  14.852  24.389  0.00  0.00    +0.000 A 
ATOM      9  C   UNL     1      -2.827  15.061  23.326  0.00  0.00    +0.000 A 
ATOM     10  C   UNL     1      -3.647  13.933  22.732  0.00  0.00    +0.000 C 
ATOM     11  C   UNL     1      -4.095  14.275  21.281  0.00  0.00    +0.000 C 
ENDROOT
BRANCH  11  12
ATOM     12  C   UNL     1      -4.907  13.136  20.689  0.00  0.00    +0.000 A 
ATOM     13  C   UNL     1      -6.007  12.611  21.384  0.00  0.00    +0.000 A 
ATOM     14  C   UNL     1      -6.809  11.638  20.793  0.00  0.00    +0.000 A 
ATOM     15  C   UNL     1      -6.481  11.208  19.522  0.00  0.00    +0.000 A 
ATOM     16  N   UNL     1      -5.425  11.676  18.825  0.00  0.00    +0.000 NA
ATOM     17  C   UNL     1      -4.664  12.626  19.417  0.00  0.00    +0.000 A 
ENDBRANCH  11  12
BRANCH  10  18
ATOM     18  C   UNL     1      -2.940  12.568  22.846  0.00  0.00    +0.000 C 
ATOM     19  O   UNL     1      -3.340  11.759  23.682  0.00  0.00    +0.000 OA
ATOM     20  N   UNL     1      -1.813  12.387  22.056  0.00  0.00    +0.000 N 
ATOM     21  H   UNL     1      -1.438  13.199  21.581  0.00  0.00    +0.000 HD
BRANCH  20  22
ATOM     22  C   UNL     1      -1.017  11.217  21.996  0.00  0.00    +0.000 A 
ATOM     23  C   UNL     1      -0.759  10.396  23.100  0.00  0.00    +0.000 A 
ATOM     24  C   UNL     1       0.098   9.298  22.993  0.00  0.00    +0.000 A 
ATOM     25  C   UNL     1       0.691   9.003  21.775  0.00  0.00    +0.000 A 
ATOM     26  F   UNL     1       1.534   7.963  21.698  0.00  0.00    +0.000 F 
ATOM     27  C   UNL     1       0.417   9.778  20.652  0.00  0.00    +0.000 A 
ATOM     28  C   UNL     1      -0.451  10.881  20.763  0.00  0.00    +0.000 A 
BRANCH  27  29
ATOM     29  C   UNL     1       1.026   9.469  19.400  0.00  0.00    +0.000 C 
ATOM     30  N   UNL     1       1.558   9.205  18.400  0.00  0.00    +0.000 NA
ENDBRANCH  27  29
ENDBRANCH  20  22
ENDBRANCH  10  18
BRANCH   1  31
ATOM     31  C   UNL     1      -5.547  16.006  20.042  0.00  0.00    +0.000 C 
BRANCH  31  33
ATOM     32  C   UNL     1      -7.917  15.041  19.555  0.00  0.00    +0.000 C 
ATOM     33  C   UNL     1      -7.073  16.083  20.295  0.00  0.00    +0.000 C 
ATOM     34  C   UNL     1      -7.346  15.934  21.800  0.00  0.00    +0.000 C 
ENDBRANCH  31  33
ENDBRANCH   1  31
TORSDOF 6
ENDMDL
MODEL 6
REMARK VINA RESULT:      -6.0      1.229      1.751
REMARK  Name = 
REMARK  8 active torsions:
REMARK  status: ('A' for Active; 'I' for Inactive)
REMARK    1  A    between atoms: C_1  and  C_2
REMARK    2  A    between atoms: C_2  and  C_3
REMARK    3  A    between atoms: C_2  and  C_4
REMARK    4  A    between atoms: C_4  and  N_5
REMARK    5  A    between atoms: C_14  and  C_15
REMARK    6  A    between atoms: N_17  and  C_18
REMARK    7  A    between atoms: C_23  and  C_24
REMARK    8  A    between atoms: C_27  and  C_28
REMARK                            x       y       z     vdW  Elec       q    Type
REMARK                         _______ _______ _______ _____ _____    ______ ____
ROOT
ATOM      1  N   UNL     1       0.792  13.351  19.872  0.00  0.00    +0.000 N 
ATOM      2  C   UNL     1       1.010  11.961  19.804  0.00  0.00    +0.000 C 
ATOM      3  O   UNL     1       1.675  11.427  18.919  0.00  0.00    +0.000 OA
ATOM      4  C   UNL     1       0.384  11.092  20.839  0.00  0.00    +0.000 A 
ATOM      5  C   UNL     1       0.509   9.701  20.702  0.00  0.00    +0.000 A 
ATOM      6  C   UNL     1      -0.008   8.845  21.671  0.00  0.00    +0.000 A 
ATOM      7  C   UNL     1      -0.625   9.374  22.798  0.00  0.00    +0.000 A 
ATOM      8  C   UNL     1      -0.756  10.757  22.941  0.00  0.00    +0.000 A 
ATOM      9  C   UNL     1      -0.291  11.633  21.942  0.00  0.00    +0.000 A 
ATOM     10  C   UNL     1      -0.427  13.138  22.063  0.00  0.00    +0.000 C 
ATOM     11  C   UNL     1      -0.378  13.816  20.662  0.00  0.00    +0.000 C 
ENDROOT
BRANCH  11  12
ATOM     12  C   UNL     1      -0.525  15.322  20.791  0.00  0.00    +0.000 A 
ATOM     13  C   UNL     1      -1.584  15.990  20.157  0.00  0.00    +0.000 A 
ATOM     14  C   UNL     1      -1.774  17.354  20.361  0.00  0.00    +0.000 A 
ATOM     15  C   UNL     1      -0.890  18.017  21.190  0.00  0.00    +0.000 A 
ATOM     16  N   UNL     1       0.149  17.416  21.808  0.00  0.00    +0.000 NA
ATOM     17  C   UNL     1       0.308  16.088  21.599  0.00  0.00    +0.000 A 
ENDBRANCH  11  12
BRANCH  10  18
ATOM     18  C   UNL     1      -1.654  13.552  22.898  0.00  0.00    +0.000 C 
ATOM     19  O   UNL     1      -1.478  14.025  24.020  0.00  0.00    +0.000 OA
ATOM     20  N   UNL     1      -2.899  13.259  22.357  0.00  0.00    +0.000 N 
ATOM     21  H   UNL     1      -2.925  12.662  21.539  0.00  0.00    +0.000 HD
BRANCH  20  22
ATOM     22  C   UNL     1      -4.153  13.554  22.945  0.00  0.00    +0.000 A 
ATOM     23  C   UNL     1      -4.951  12.602  23.591  0.00  0.00    +0.000 A 
ATOM     24  C   UNL     1      -6.214  12.940  24.083  0.00  0.00    +0.000 A 
ATOM     25  C   UNL     1      -6.681  14.239  23.948  0.00  0.00    +0.000 A 
ATOM     26  F   UNL     1      -7.908  14.538  24.400  0.00  0.00    +0.000 F 
ATOM     27  C   UNL     1      -5.889  15.214  23.349  0.00  0.00    +0.000 A 
ATOM     28  C   UNL     1      -4.616  14.870  22.858  0.00  0.00    +0.000 A 
BRANCH  27  29
ATOM     29  C   UNL     1      -6.372  16.548  23.215  0.00  0.00    +0.000 C 
ATOM     30  N   UNL     1      -6.730  17.648  23.088  0.00  0.00    +0.000 NA
ENDBRANCH  27  29
ENDBRANCH  20  22
ENDBRANCH  10  18
BRANCH   1  31
ATOM     31  C   UNL     1       1.254  14.105  18.688  0.00  0.00    +0.000 C 
BRANCH  31  33
ATOM     32  C   UNL     1       3.781  14.432  18.151  0.00  0.00    +0.000 C 
ATOM     33  C   UNL     1       2.540  14.943  18.889  0.00  0.00    +0.000 C 
ATOM     34  C   UNL     1       2.280  16.389  18.437  0.00  0.00    +0.000 C 
ENDBRANCH  31  33
ENDBRANCH   1  31
TORSDOF 6
ENDMDL
MODEL 7
REMARK VINA RESULT:      -5.9      1.267      1.857
REMARK  Name = 
REMARK  8 active torsions:
REMARK  status: ('A' for Active; 'I' for Inactive)
REMARK    1  A    between atoms: C_1  and  C_2
REMARK    2  A    between atoms: C_2  and  C_3
REMARK    3  A    between atoms: C_2  and  C_4
REMARK    4  A    between atoms: C_4  and  N_5
REMARK    5  A    between atoms: C_14  and  C_15
REMARK    6  A    between atoms: N_17  and  C_18
REMARK    7  A    between atoms: C_23  and  C_24
REMARK    8  A    between atoms: C_27  and  C_28
REMARK                            x       y       z     vdW  Elec       q    Type
REMARK                         _______ _______ _______ _____ _____    ______ ____
ROOT
ATOM      1  N   UNL     1       0.762  13.327  19.790  0.00  0.00    +0.000 N 
ATOM      2  C   UNL     1       0.979  11.935  19.734  0.00  0.00    +0.000 C 
ATOM      3  O   UNL     1       1.631  11.391  18.846  0.00  0.00    +0.000 OA
ATOM      4  C   UNL     1       0.369  11.079  20.789  0.00  0.00    +0.000 A 
ATOM      5  C   UNL     1       0.492   9.686  20.666  0.00  0.00    +0.000 A 
ATOM      6  C   UNL     1      -0.009   8.841  21.653  0.00  0.00    +0.000 A 
ATOM      7  C   UNL     1      -0.610   9.383  22.783  0.00  0.00    +0.000 A 
ATOM      8  C   UNL     1      -0.739  10.768  22.912  0.00  0.00    +0.000 A 
ATOM      9  C   UNL     1      -0.290  11.632  21.895  0.00  0.00    +0.000 A 
ATOM     10  C   UNL     1      -0.424  13.139  22.001  0.00  0.00    +0.000 C 
ATOM     11  C   UNL     1      -0.397  13.800  20.592  0.00  0.00    +0.000 C 
ENDROOT
BRANCH  11  12
ATOM     12  C   UNL     1      -0.543  15.307  20.705  0.00  0.00    +0.000 A 
ATOM     13  C   UNL     1       0.368  16.054  21.468  0.00  0.00    +0.000 A 
ATOM     14  C   UNL     1       0.291  17.445  21.487  0.00  0.00    +0.000 A 
ATOM     15  C   UNL     1      -0.705  18.051  20.746  0.00  0.00    +0.000 A 
ATOM     16  N   UNL     1      -1.608  17.370  20.010  0.00  0.00    +0.000 NA
ATOM     17  C   UNL     1      -1.509  16.020  20.003  0.00  0.00    +0.000 A 
ENDBRANCH  11  12
BRANCH  10  18
ATOM     18  C   UNL     1      -1.639  13.562  22.850  0.00  0.00    +0.000 C 
ATOM     19  O   UNL     1      -1.448  14.008  23.980  0.00  0.00    +0.000 OA
ATOM     20  N   UNL     1      -2.892  13.307  22.308  0.00  0.00    +0.000 N 
ATOM     21  H   UNL     1      -2.935  12.727  21.479  0.00  0.00    +0.000 HD
BRANCH  20  22
ATOM     22  C   UNL     1      -4.137  13.616  22.908  0.00  0.00    +0.000 A 
ATOM     23  C   UNL     1      -4.997  12.656  23.454  0.00  0.00    +0.000 A 
ATOM     24  C   UNL     1      -6.247  13.018  23.961  0.00  0.00    +0.000 A 
ATOM     25  C   UNL     1      -6.639  14.348  23.943  0.00  0.00    +0.000 A 
ATOM     26  F   UNL     1      -7.855  14.673  24.407  0.00  0.00    +0.000 F 
ATOM     27  C   UNL     1      -5.785  15.328  23.445  0.00  0.00    +0.000 A 
ATOM     28  C   UNL     1      -4.525  14.959  22.938  0.00  0.00    +0.000 A 
BRANCH  27  29
ATOM     29  C   UNL     1      -6.191  16.694  23.431  0.00  0.00    +0.000 C 
ATOM     30  N   UNL     1      -6.529  17.806  23.377  0.00  0.00    +0.000 NA
ENDBRANCH  27  29
ENDBRANCH  20  22
ENDBRANCH  10  18
BRANCH   1  31
ATOM     31  C   UNL     1       1.205  14.066  18.590  0.00  0.00    +0.000 C 
BRANCH  31  33
ATOM     32  C   UNL     1       2.597  16.267  18.547  0.00  0.00    +0.000 C 
ATOM     33  C   UNL     1       2.593  14.743  18.697  0.00  0.00    +0.000 C 
ATOM     34  C   UNL     1       3.222  14.399  20.057  0.00  0.00    +0.000 C 
ENDBRANCH  31  33
ENDBRANCH   1  31
TORSDOF 6
ENDMDL
MODEL 8
REMARK VINA RESULT:      -5.9      1.258      1.579
REMARK  Name = 
REMARK  8 active torsions:
REMARK  status: ('A' for Active; 'I' for Inactive)
REMARK    1  A    between atoms: C_1  and  C_2
REMARK    2  A    between atoms: C_2  and  C_3
REMARK    3  A    between atoms: C_2  and  C_4
REMARK    4  A    between atoms: C_4  and  N_5
REMARK    5  A    between atoms: C_14  and  C_15
REMARK    6  A    between atoms: N_17  and  C_18
REMARK    7  A    between atoms: C_23  and  C_24
REMARK    8  A    between atoms: C_27  and  C_28
REMARK                            x       y       z     vdW  Elec       q    Type
REMARK                         _______ _______ _______ _____ _____    ______ ____
ROOT
ATOM      1  N   UNL     1       1.144  13.786  19.655  0.00  0.00    +0.000 N 
ATOM      2  C   UNL     1       1.420  12.445  19.322  0.00  0.00    +0.000 C 
ATOM      3  O   UNL     1       2.078  12.118  18.337  0.00  0.00    +0.000 OA
ATOM      4  C   UNL     1       0.868  11.370  20.192  0.00  0.00    +0.000 A 
ATOM      5  C   UNL     1       1.049  10.035  19.794  0.00  0.00    +0.000 A 
ATOM      6  C   UNL     1       0.604   8.990  20.599  0.00  0.00    +0.000 A 
ATOM      7  C   UNL     1       0.002   9.270  21.820  0.00  0.00    +0.000 A 
ATOM      8  C   UNL     1      -0.185  10.594  22.222  0.00  0.00    +0.000 A 
ATOM      9  C   UNL     1       0.207  11.662  21.393  0.00  0.00    +0.000 A 
ATOM     10  C   UNL     1       0.010  13.110  21.796  0.00  0.00    +0.000 C 
ATOM     11  C   UNL     1      -0.018  14.038  20.546  0.00  0.00    +0.000 C 
ENDROOT
BRANCH  11  12
ATOM     12  C   UNL     1      -0.227  15.484  20.958  0.00  0.00    +0.000 A 
ATOM     13  C   UNL     1      -1.325  16.211  20.471  0.00  0.00    +0.000 A 
ATOM     14  C   UNL     1      -1.569  17.503  20.931  0.00  0.00    +0.000 A 
ATOM     15  C   UNL     1      -0.699  18.038  21.861  0.00  0.00    +0.000 A 
ATOM     16  N   UNL     1       0.376  17.379  22.344  0.00  0.00    +0.000 NA
ATOM     17  C   UNL     1       0.588  16.123  21.887  0.00  0.00    +0.000 A 
ENDBRANCH  11  12
BRANCH  10  18
ATOM     18  C   UNL     1      -1.206  13.301  22.724  0.00  0.00    +0.000 C 
ATOM     19  O   UNL     1      -1.020  13.695  23.875  0.00  0.00    +0.000 OA
ATOM     20  N   UNL     1      -2.438  12.907  22.219  0.00  0.00    +0.000 N 
ATOM     21  H   UNL     1      -2.443  12.383  21.353  0.00  0.00    +0.000 HD
BRANCH  20  22
ATOM     22  C   UNL     1      -3.681  12.997  22.892  0.00  0.00    +0.000 A 
ATOM     23  C   UNL     1      -3.954  12.360  24.108  0.00  0.00    +0.000 A 
ATOM     24  C   UNL     1      -5.227  12.425  24.682  0.00  0.00    +0.000 A 
ATOM     25  C   UNL     1      -6.230  13.145  24.053  0.00  0.00    +0.000 A 
ATOM     26  F   UNL     1      -7.454  13.172  24.603  0.00  0.00    +0.000 F 
ATOM     27  C   UNL     1      -5.972  13.824  22.865  0.00  0.00    +0.000 A 
ATOM     28  C   UNL     1      -4.688  13.758  22.292  0.00  0.00    +0.000 A 
BRANCH  27  29
ATOM     29  C   UNL     1      -7.007  14.565  22.223  0.00  0.00    +0.000 C 
ATOM     30  N   UNL     1      -7.822  15.188  21.674  0.00  0.00    +0.000 NA
ENDBRANCH  27  29
ENDBRANCH  20  22
ENDBRANCH  10  18
BRANCH   1  31
ATOM     31  C   UNL     1       1.532  14.768  18.621  0.00  0.00    +0.000 C 
BRANCH  31  33
ATOM     32  C   UNL     1       3.897  15.332  17.687  0.00  0.00    +0.000 C 
ATOM     33  C   UNL     1       2.898  15.465  18.840  0.00  0.00    +0.000 C 
ATOM     34  C   UNL     1       2.668  16.962  19.100  0.00  0.00    +0.000 C 
ENDBRANCH  31  33
ENDBRANCH   1  31
TORSDOF 6
ENDMDL
MODEL 9
REMARK VINA RESULT:      -5.8      3.311      5.973
REMARK  Name = 
REMARK  8 active torsions:
REMARK  status: ('A' for Active; 'I' for Inactive)
REMARK    1  A    between atoms: C_1  and  C_2
REMARK    2  A    between atoms: C_2  and  C_3
REMARK    3  A    between atoms: C_2  and  C_4
REMARK    4  A    between atoms: C_4  and  N_5
REMARK    5  A    between atoms: C_14  and  C_15
REMARK    6  A    between atoms: N_17  and  C_18
REMARK    7  A    between atoms: C_23  and  C_24
REMARK    8  A    between atoms: C_27  and  C_28
REMARK                            x       y       z     vdW  Elec       q    Type
REMARK                         _______ _______ _______ _____ _____    ______ ____
ROOT
ATOM      1  N   UNL     1      -3.557  11.902  18.976  0.00  0.00    +0.000 N 
ATOM      2  C   UNL     1      -4.957  12.006  18.853  0.00  0.00    +0.000 C 
ATOM      3  O   UNL     1      -5.560  11.768  17.809  0.00  0.00    +0.000 OA
ATOM      4  C   UNL     1      -5.742  12.450  20.038  0.00  0.00    +0.000 A 
ATOM      5  C   UNL     1      -7.121  12.662  19.879  0.00  0.00    +0.000 A 
ATOM      6  C   UNL     1      -7.912  13.021  20.968  0.00  0.00    +0.000 A 
ATOM      7  C   UNL     1      -7.336  13.142  22.227  0.00  0.00    +0.000 A 
ATOM      8  C   UNL     1      -5.965  12.935  22.393  0.00  0.00    +0.000 A 
ATOM      9  C   UNL     1      -5.143  12.629  21.292  0.00  0.00    +0.000 A 
ATOM     10  C   UNL     1      -3.650  12.409  21.438  0.00  0.00    +0.000 C 
ATOM     11  C   UNL     1      -2.916  12.653  20.087  0.00  0.00    +0.000 C 
ENDROOT
BRANCH  11  12
ATOM     12  C   UNL     1      -1.421  12.441  20.244  0.00  0.00    +0.000 A 
ATOM     13  C   UNL     1      -0.518  13.455  19.891  0.00  0.00    +0.000 A 
ATOM     14  C   UNL     1       0.845  13.295  20.132  0.00  0.00    +0.000 A 
ATOM     15  C   UNL     1       1.268  12.116  20.713  0.00  0.00    +0.000 A 
ATOM     16  N   UNL     1       0.436  11.110  21.055  0.00  0.00    +0.000 NA
ATOM     17  C   UNL     1      -0.884  11.293  20.817  0.00  0.00    +0.000 A 
ENDBRANCH  11  12
BRANCH  10  18
ATOM     18  C   UNL     1      -3.049  13.209  22.611  0.00  0.00    +0.000 C 
ATOM     19  O   UNL     1      -2.720  12.610  23.633  0.00  0.00    +0.000 OA
ATOM     20  N   UNL     1      -3.021  14.590  22.467  0.00  0.00    +0.000 N 
ATOM     21  H   UNL     1      -3.529  14.991  21.688  0.00  0.00    +0.000 HD
BRANCH  20  22
ATOM     22  C   UNL     1      -2.511  15.515  23.411  0.00  0.00    +0.000 A 
ATOM     23  C   UNL     1      -3.292  16.126  24.399  0.00  0.00    +0.000 A 
ATOM     24  C   UNL     1      -2.745  17.089  25.252  0.00  0.00    +0.000 A 
ATOM     25  C   UNL     1      -1.407  17.435  25.132  0.00  0.00    +0.000 A 
ATOM     26  F   UNL     1      -0.906  18.382  25.939  0.00  0.00    +0.000 F 
ATOM     27  C   UNL     1      -0.599  16.810  24.187  0.00  0.00    +0.000 A 
ATOM     28  C   UNL     1      -1.154  15.837  23.333  0.00  0.00    +0.000 A 
BRANCH  27  29
ATOM     29  C   UNL     1       0.776  17.166  24.070  0.00  0.00    +0.000 C 
ATOM     30  N   UNL     1       1.889  17.495  23.988  0.00  0.00    +0.000 NA
ENDBRANCH  27  29
ENDBRANCH  20  22
ENDBRANCH  10  18
BRANCH   1  31
ATOM     31  C   UNL     1      -2.843  11.680  17.701  0.00  0.00    +0.000 C 
BRANCH  31  33
ATOM     32  C   UNL     1      -2.924   9.800  15.900  0.00  0.00    +0.000 C 
ATOM     33  C   UNL     1      -2.571  10.200  17.336  0.00  0.00    +0.000 C 
ATOM     34  C   UNL     1      -1.083   9.887  17.565  0.00  0.00    +0.000 C 
ENDBRANCH  31  33
ENDBRANCH   1  31
TORSDOF 6
ENDMDL
