MODEL 1
REMARK VINA RESULT:      -8.4      0.000      0.000
REMARK  Name = 
REMARK  13 active torsions:
REMARK  status: ('A' for Active; 'I' for Inactive)
REMARK    1  A    between atoms: C_1  and  C_2
REMARK    2  A    between atoms: C_2  and  C_3
REMARK    3  A    between atoms: C_3  and  C_4
REMARK    4  A    between atoms: C_4  and  C_5
REMARK    5  A    between atoms: C_4  and  C_8
REMARK    6  A    between atoms: C_5  and  C_6
REMARK    7  A    between atoms: C_6  and  C_7
REMARK    8  A    between atoms: N_10  and  C_11
REMARK    9  A    between atoms: C_14  and  C_15
REMARK   10  A    between atoms: C_15  and  C_16
REMARK   11  A    between atoms: C_16  and  C_17
REMARK   12  A    between atoms: N_19  and  C_20
REMARK   13  A    between atoms: C_24  and  C_25
REMARK                            x       y       z     vdW  Elec       q    Type
REMARK                         _______ _______ _______ _____ _____    ______ ____
ROOT
ATOM      1  C   UNL     1       4.950   4.160  16.499  0.00  0.00    +0.000 C 
ENDROOT
BRANCH   1   5
ATOM      2  C   UNL     1       7.648   7.086  18.209  0.00  0.00    +0.000 A 
ATOM      3  C   UNL     1       7.678   5.754  18.616  0.00  0.00    +0.000 A 
ATOM      4  C   UNL     1       6.801   4.810  18.068  0.00  0.00    +0.000 A 
ATOM      5  C   UNL     1       5.857   5.199  17.118  0.00  0.00    +0.000 A 
ATOM      6  C   UNL     1       5.812   6.536  16.715  0.00  0.00    +0.000 A 
ATOM      7  C   UNL     1       6.691   7.479  17.269  0.00  0.00    +0.000 A 
BRANCH   2  10
ATOM      8  C   UNL     1       8.572   9.393  18.359  0.00  0.00    +0.000 C 
ATOM      9  O   UNL     1       7.675   9.932  17.698  0.00  0.00    +0.000 OA
ATOM     10  N   UNL     1       8.570   8.054  18.699  0.00  0.00    +0.000 N 
ATOM     11  H   UNL     1       9.214   7.735  19.417  0.00  0.00    +0.000 HD
BRANCH   8  12
ATOM     12  C   UNL     1       9.747  10.232  18.905  0.00  0.00    +0.000 C 
BRANCH  12  13
ATOM     13  C   UNL     1      10.063  11.317  17.847  0.00  0.00    +0.000 C 
BRANCH  13  15
ATOM     14  C   UNL     1       9.828  13.855  17.707  0.00  0.00    +0.000 C 
ATOM     15  C   UNL     1       9.116  12.515  17.729  0.00  0.00    +0.000 C 
ENDBRANCH  13  15
ENDBRANCH  12  13
BRANCH  12  16
ATOM     16  C   UNL     1       9.498  10.782  20.320  0.00  0.00    +0.000 C 
BRANCH  16  17
ATOM     17  C   UNL     1      10.506  11.849  20.752  0.00  0.00    +0.000 C 
ATOM     18  C   UNL     1       9.828  13.011  21.462  0.00  0.00    +0.000 C 
ENDBRANCH  16  17
ENDBRANCH  12  16
ENDBRANCH   8  12
ENDBRANCH   2  10
ENDBRANCH   1   5
BRANCH   1  19
ATOM     19  C   UNL     1       3.956   3.549  17.496  0.00  0.00    +0.000 C 
BRANCH  19  20
ATOM     20  C   UNL     1       2.915   4.575  17.892  0.00  0.00    +0.000 C 
ATOM     21  O   UNL     1       1.775   4.542  17.433  0.00  0.00    +0.000 OA
ATOM     22  N   UNL     1       3.375   5.505  18.813  0.00  0.00    +0.000 N 
ATOM     23  H   UNL     1       4.374   5.547  18.981  0.00  0.00    +0.000 HD
BRANCH  22  24
ATOM     24  C   UNL     1       2.581   6.501  19.424  0.00  0.00    +0.000 A 
ATOM     25  C   UNL     1       1.933   6.312  20.649  0.00  0.00    +0.000 A 
ATOM     26  C   UNL     1       1.154   7.318  21.237  0.00  0.00    +0.000 A 
ATOM     27  C   UNL     1       0.992   8.546  20.605  0.00  0.00    +0.000 A 
ATOM     28  C   UNL     1       0.296   9.686  21.216  0.00  0.00    +0.000 A 
ATOM     29  C   UNL     1      -0.523   9.588  22.469  0.00  0.00    +0.000 C 
ATOM     30  C   UNL     1       0.601  10.875  20.676  0.00  0.00    +0.000 A 
ATOM     31  C   UNL     1       0.806  10.972  19.227  0.00  0.00    +0.000 A 
ATOM     32  O   UNL     1       0.372  11.927  18.593  0.00  0.00    +0.000 OA
ATOM     33  O   UNL     1       1.510   9.932  18.657  0.00  0.00    +0.000 OA
ATOM     34  C   UNL     1       1.649   8.730  19.380  0.00  0.00    +0.000 A 
ATOM     35  C   UNL     1       2.444   7.740  18.789  0.00  0.00    +0.000 A 
ENDBRANCH  22  24
ENDBRANCH  19  20
ENDBRANCH   1  19
TORSDOF 10
ENDMDL
MODEL 2
REMARK VINA RESULT:      -8.4      4.305      7.718
REMARK  Name = 
REMARK  13 active torsions:
REMARK  status: ('A' for Active; 'I' for Inactive)
REMARK    1  A    between atoms: C_1  and  C_2
REMARK    2  A    between atoms: C_2  and  C_3
REMARK    3  A    between atoms: C_3  and  C_4
REMARK    4  A    between atoms: C_4  and  C_5
REMARK    5  A    between atoms: C_4  and  C_8
REMARK    6  A    between atoms: C_5  and  C_6
REMARK    7  A    between atoms: C_6  and  C_7
REMARK    8  A    between atoms: N_10  and  C_11
REMARK    9  A    between atoms: C_14  and  C_15
REMARK   10  A    between atoms: C_15  and  C_16
REMARK   11  A    between atoms: C_16  and  C_17
REMARK   12  A    between atoms: N_19  and  C_20
REMARK   13  A    between atoms: C_24  and  C_25
REMARK                            x       y       z     vdW  Elec       q    Type
REMARK                         _______ _______ _______ _____ _____    ______ ____
ROOT
ATOM      1  C   UNL     1       0.751   8.439  20.969  0.00  0.00    +0.000 C 
ENDROOT
BRANCH   1   5
ATOM      2  C   UNL     1       3.554   6.578  18.241  0.00  0.00    +0.000 A 
ATOM      3  C   UNL     1       2.970   7.808  17.945  0.00  0.00    +0.000 A 
ATOM      4  C   UNL     1       2.059   8.406  18.824  0.00  0.00    +0.000 A 
ATOM      5  C   UNL     1       1.698   7.760  20.006  0.00  0.00    +0.000 A 
ATOM      6  C   UNL     1       2.270   6.519  20.302  0.00  0.00    +0.000 A 
ATOM      7  C   UNL     1       3.180   5.923  19.417  0.00  0.00    +0.000 A 
BRANCH   2  10
ATOM      8  C   UNL     1       4.475   4.688  16.909  0.00  0.00    +0.000 C 
ATOM      9  O   UNL     1       3.486   3.954  17.030  0.00  0.00    +0.000 OA
ATOM     10  N   UNL     1       4.533   5.978  17.399  0.00  0.00    +0.000 N 
ATOM     11  H   UNL     1       5.280   6.586  17.076  0.00  0.00    +0.000 HD
BRANCH   8  12
ATOM     12  C   UNL     1       5.713   4.200  16.126  0.00  0.00    +0.000 C 
BRANCH  12  13
ATOM     13  C   UNL     1       5.322   4.165  14.629  0.00  0.00    +0.000 C 
BRANCH  13  15
ATOM     14  C   UNL     1       6.117   3.359  12.341  0.00  0.00    +0.000 C 
ATOM     15  C   UNL     1       6.441   4.167  13.584  0.00  0.00    +0.000 C 
ENDBRANCH  13  15
ENDBRANCH  12  13
BRANCH  12  16
ATOM     16  C   UNL     1       6.984   5.014  16.428  0.00  0.00    +0.000 C 
BRANCH  16  17
ATOM     17  C   UNL     1       7.681   4.607  17.729  0.00  0.00    +0.000 C 
ATOM     18  C   UNL     1       7.708   5.748  18.734  0.00  0.00    +0.000 C 
ENDBRANCH  16  17
ENDBRANCH  12  16
ENDBRANCH   8  12
ENDBRANCH   2  10
ENDBRANCH   1   5
BRANCH   1  19
ATOM     19  C   UNL     1       0.905   9.965  20.999  0.00  0.00    +0.000 C 
BRANCH  19  20
ATOM     20  C   UNL     1      -0.149  10.580  21.896  0.00  0.00    +0.000 C 
ATOM     21  O   UNL     1      -0.523  10.019  22.924  0.00  0.00    +0.000 OA
ATOM     22  N   UNL     1      -0.609  11.810  21.448  0.00  0.00    +0.000 N 
ATOM     23  H   UNL     1      -0.368  12.087  20.503  0.00  0.00    +0.000 HD
BRANCH  22  24
ATOM     24  C   UNL     1      -1.512  12.641  22.148  0.00  0.00    +0.000 A 
ATOM     25  C   UNL     1      -1.145  13.877  22.690  0.00  0.00    +0.000 A 
ATOM     26  C   UNL     1      -2.061  14.685  23.377  0.00  0.00    +0.000 A 
ATOM     27  C   UNL     1      -3.376  14.271  23.552  0.00  0.00    +0.000 A 
ATOM     28  C   UNL     1      -4.419  15.115  24.150  0.00  0.00    +0.000 A 
ATOM     29  C   UNL     1      -4.140  16.408  24.856  0.00  0.00    +0.000 C 
ATOM     30  C   UNL     1      -5.672  14.740  23.853  0.00  0.00    +0.000 A 
ATOM     31  C   UNL     1      -5.993  13.311  23.777  0.00  0.00    +0.000 A 
ATOM     32  O   UNL     1      -7.045  12.877  24.231  0.00  0.00    +0.000 OA
ATOM     33  O   UNL     1      -5.042  12.522  23.163  0.00  0.00    +0.000 OA
ATOM     34  C   UNL     1      -3.738  13.033  23.002  0.00  0.00    +0.000 A 
ATOM     35  C   UNL     1      -2.838  12.222  22.299  0.00  0.00    +0.000 A 
ENDBRANCH  22  24
ENDBRANCH  19  20
ENDBRANCH   1  19
TORSDOF 10
ENDMDL
MODEL 3
REMARK VINA RESULT:      -8.3      1.497      2.023
REMARK  Name = 
REMARK  13 active torsions:
REMARK  status: ('A' for Active; 'I' for Inactive)
REMARK    1  A    between atoms: C_1  and  C_2
REMARK    2  A    between atoms: C_2  and  C_3
REMARK    3  A    between atoms: C_3  and  C_4
REMARK    4  A    between atoms: C_4  and  C_5
REMARK    5  A    between atoms: C_4  and  C_8
REMARK    6  A    between atoms: C_5  and  C_6
REMARK    7  A    between atoms: C_6  and  C_7
REMARK    8  A    between atoms: N_10  and  C_11
REMARK    9  A    between atoms: C_14  and  C_15
REMARK   10  A    between atoms: C_15  and  C_16
REMARK   11  A    between atoms: C_16  and  C_17
REMARK   12  A    between atoms: N_19  and  C_20
REMARK   13  A    between atoms: C_24  and  C_25
REMARK                            x       y       z     vdW  Elec       q    Type
REMARK                         _______ _______ _______ _____ _____    ______ ____
ROOT
ATOM      1  C   UNL     1       5.434   4.275  17.024  0.00  0.00    +0.000 C 
ENDROOT
BRANCH   1   5
ATOM      2  C   UNL     1       7.945   7.538  18.368  0.00  0.00    +0.000 A 
ATOM      3  C   UNL     1       8.003   6.287  18.978  0.00  0.00    +0.000 A 
ATOM      4  C   UNL     1       7.186   5.235  18.547  0.00  0.00    +0.000 A 
ATOM      5  C   UNL     1       6.275   5.433  17.511  0.00  0.00    +0.000 A 
ATOM      6  C   UNL     1       6.202   6.690  16.903  0.00  0.00    +0.000 A 
ATOM      7  C   UNL     1       7.021   7.742  17.340  0.00  0.00    +0.000 A 
BRANCH   2  10
ATOM      8  C   UNL     1       8.655   9.924  18.353  0.00  0.00    +0.000 C 
ATOM      9  O   UNL     1       7.658  10.349  17.755  0.00  0.00    +0.000 OA
ATOM     10  N   UNL     1       8.809   8.608  18.740  0.00  0.00    +0.000 N 
ATOM     11  H   UNL     1       9.540   8.381  19.408  0.00  0.00    +0.000 HD
BRANCH   8  12
ATOM     12  C   UNL     1       9.787  10.891  18.761  0.00  0.00    +0.000 C 
BRANCH  12  13
ATOM     13  C   UNL     1       9.398  12.296  18.240  0.00  0.00    +0.000 C 
BRANCH  13  15
ATOM     14  C   UNL     1      11.768  12.397  17.298  0.00  0.00    +0.000 C 
ATOM     15  C   UNL     1      10.480  13.149  17.573  0.00  0.00    +0.000 C 
ENDBRANCH  13  15
ENDBRANCH  12  13
BRANCH  12  16
ATOM     16  C   UNL     1      10.116  10.843  20.264  0.00  0.00    +0.000 C 
BRANCH  16  17
ATOM     17  C   UNL     1       9.582  12.043  21.050  0.00  0.00    +0.000 C 
ATOM     18  C   UNL     1       8.514  11.630  22.050  0.00  0.00    +0.000 C 
ENDBRANCH  16  17
ENDBRANCH  12  16
ENDBRANCH   8  12
ENDBRANCH   2  10
ENDBRANCH   1   5
BRANCH   1  19
ATOM     19  C   UNL     1       4.498   3.708  18.099  0.00  0.00    +0.000 C 
BRANCH  19  20
ATOM     20  C   UNL     1       3.840   4.835  18.868  0.00  0.00    +0.000 C 
ATOM     21  O   UNL     1       3.962   4.936  20.087  0.00  0.00    +0.000 OA
ATOM     22  N   UNL     1       3.132   5.716  18.063  0.00  0.00    +0.000 N 
ATOM     23  H   UNL     1       2.949   5.435  17.106  0.00  0.00    +0.000 HD
BRANCH  22  24
ATOM     24  C   UNL     1       2.514   6.904  18.511  0.00  0.00    +0.000 A 
ATOM     25  C   UNL     1       2.189   7.962  17.656  0.00  0.00    +0.000 A 
ATOM     26  C   UNL     1       1.572   9.130  18.124  0.00  0.00    +0.000 A 
ATOM     27  C   UNL     1       1.272   9.278  19.474  0.00  0.00    +0.000 A 
ATOM     28  C   UNL     1       0.517  10.415  20.016  0.00  0.00    +0.000 A 
ATOM     29  C   UNL     1       0.200  11.654  19.232  0.00  0.00    +0.000 C 
ATOM     30  C   UNL     1      -0.040  10.189  21.215  0.00  0.00    +0.000 A 
ATOM     31  C   UNL     1       0.694   9.396  22.207  0.00  0.00    +0.000 A 
ATOM     32  O   UNL     1       0.696   9.715  23.390  0.00  0.00    +0.000 OA
ATOM     33  O   UNL     1       1.356   8.293  21.711  0.00  0.00    +0.000 OA
ATOM     34  C   UNL     1       1.596   8.212  20.324  0.00  0.00    +0.000 A 
ATOM     35  C   UNL     1       2.197   7.032  19.867  0.00  0.00    +0.000 A 
ENDBRANCH  22  24
ENDBRANCH  19  20
ENDBRANCH   1  19
TORSDOF 10
ENDMDL
MODEL 4
REMARK VINA RESULT:      -8.3      4.661      8.810
REMARK  Name = 
REMARK  13 active torsions:
REMARK  status: ('A' for Active; 'I' for Inactive)
REMARK    1  A    between atoms: C_1  and  C_2
REMARK    2  A    between atoms: C_2  and  C_3
REMARK    3  A    between atoms: C_3  and  C_4
REMARK    4  A    between atoms: C_4  and  C_5
REMARK    5  A    between atoms: C_4  and  C_8
REMARK    6  A    between atoms: C_5  and  C_6
REMARK    7  A    between atoms: C_6  and  C_7
REMARK    8  A    between atoms: N_10  and  C_11
REMARK    9  A    between atoms: C_14  and  C_15
REMARK   10  A    between atoms: C_15  and  C_16
REMARK   11  A    between atoms: C_16  and  C_17
REMARK   12  A    between atoms: N_19  and  C_20
REMARK   13  A    between atoms: C_24  and  C_25
REMARK                            x       y       z     vdW  Elec       q    Type
REMARK                         _______ _______ _______ _____ _____    ______ ____
ROOT
ATOM      1  C   UNL     1      -0.043  10.549  19.774  0.00  0.00    +0.000 C 
ENDROOT
BRANCH   1   5
ATOM      2  C   UNL     1       2.594   7.291  18.683  0.00  0.00    +0.000 A 
ATOM      3  C   UNL     1       2.104   7.417  19.982  0.00  0.00    +0.000 A 
ATOM      4  C   UNL     1       1.257   8.475  20.335  0.00  0.00    +0.000 A 
ATOM      5  C   UNL     1       0.911   9.441  19.392  0.00  0.00    +0.000 A 
ATOM      6  C   UNL     1       1.409   9.328  18.091  0.00  0.00    +0.000 A 
ATOM      7  C   UNL     1       2.260   8.269  17.742  0.00  0.00    +0.000 A 
BRANCH   2  10
ATOM      8  C   UNL     1       2.925   4.968  17.853  0.00  0.00    +0.000 C 
ATOM      9  O   UNL     1       1.727   4.739  17.637  0.00  0.00    +0.000 OA
ATOM     10  N   UNL     1       3.403   6.192  18.278  0.00  0.00    +0.000 N 
ATOM     11  H   UNL     1       4.402   6.368  18.223  0.00  0.00    +0.000 HD
BRANCH   8  12
ATOM     12  C   UNL     1       3.984   3.876  17.592  0.00  0.00    +0.000 C 
BRANCH  12  13
ATOM     13  C   UNL     1       3.259   2.510  17.660  0.00  0.00    +0.000 C 
BRANCH  13  15
ATOM     14  C   UNL     1       4.305   2.219  19.971  0.00  0.00    +0.000 C 
ATOM     15  C   UNL     1       3.627   1.546  18.791  0.00  0.00    +0.000 C 
ENDBRANCH  13  15
ENDBRANCH  12  13
BRANCH  12  16
ATOM     16  C   UNL     1       4.786   4.102  16.298  0.00  0.00    +0.000 C 
BRANCH  16  17
ATOM     17  C   UNL     1       6.264   4.421  16.538  0.00  0.00    +0.000 C 
ATOM     18  C   UNL     1       6.937   4.946  15.279  0.00  0.00    +0.000 C 
ENDBRANCH  16  17
ENDBRANCH  12  16
ENDBRANCH   8  12
ENDBRANCH   2  10
ENDBRANCH   1   5
BRANCH   1  19
ATOM     19  C   UNL     1       0.639  11.717  20.499  0.00  0.00    +0.000 C 
BRANCH  19  20
ATOM     20  C   UNL     1      -0.385  12.763  20.886  0.00  0.00    +0.000 C 
ATOM     21  O   UNL     1      -0.570  13.765  20.198  0.00  0.00    +0.000 OA
ATOM     22  N   UNL     1      -1.076  12.458  22.050  0.00  0.00    +0.000 N 
ATOM     23  H   UNL     1      -0.717  11.706  22.627  0.00  0.00    +0.000 HD
BRANCH  22  24
ATOM     24  C   UNL     1      -2.152  13.210  22.574  0.00  0.00    +0.000 A 
ATOM     25  C   UNL     1      -2.024  14.544  22.974  0.00  0.00    +0.000 A 
ATOM     26  C   UNL     1      -3.107  15.270  23.486  0.00  0.00    +0.000 A 
ATOM     27  C   UNL     1      -4.356  14.673  23.625  0.00  0.00    +0.000 A 
ATOM     28  C   UNL     1      -5.562  15.403  24.035  0.00  0.00    +0.000 A 
ATOM     29  C   UNL     1      -5.544  16.799  24.585  0.00  0.00    +0.000 C 
ATOM     30  C   UNL     1      -6.714  14.799  23.706  0.00  0.00    +0.000 A 
ATOM     31  C   UNL     1      -6.807  13.338  23.794  0.00  0.00    +0.000 A 
ATOM     32  O   UNL     1      -7.817  12.798  24.229  0.00  0.00    +0.000 OA
ATOM     33  O   UNL     1      -5.699  12.646  23.353  0.00  0.00    +0.000 OA
ATOM     34  C   UNL     1      -4.477  13.337  23.217  0.00  0.00    +0.000 A 
ATOM     35  C   UNL     1      -3.407  12.605  22.687  0.00  0.00    +0.000 A 
ENDBRANCH  22  24
ENDBRANCH  19  20
ENDBRANCH   1  19
TORSDOF 10
ENDMDL
MODEL 5
REMARK VINA RESULT:      -8.2      4.805      8.792
REMARK  Name = 
REMARK  13 active torsions:
REMARK  status: ('A' for Active; 'I' for Inactive)
REMARK    1  A    between atoms: C_1  and  C_2
REMARK    2  A    between atoms: C_2  and  C_3
REMARK    3  A    between atoms: C_3  and  C_4
REMARK    4  A    between atoms: C_4  and  C_5
REMARK    5  A    between atoms: C_4  and  C_8
REMARK    6  A    between atoms: C_5  and  C_6
REMARK    7  A    between atoms: C_6  and  C_7
REMARK    8  A    between atoms: N_10  and  C_11
REMARK    9  A    between atoms: C_14  and  C_15
REMARK   10  A    between atoms: C_15  and  C_16
REMARK   11  A    between atoms: C_16  and  C_17
REMARK   12  A    between atoms: N_19  and  C_20
REMARK   13  A    between atoms: C_24  and  C_25
REMARK                            x       y       z     vdW  Elec       q    Type
REMARK                         _______ _______ _______ _____ _____    ______ ____
ROOT
ATOM      1  C   UNL     1       0.042  11.007  19.357  0.00  0.00    +0.000 C 
ENDROOT
BRANCH   1   5
ATOM      2  C   UNL     1       2.485   7.453  18.954  0.00  0.00    +0.000 A 
ATOM      3  C   UNL     1       1.848   7.757  20.155  0.00  0.00    +0.000 A 
ATOM      4  C   UNL     1       1.064   8.909  20.287  0.00  0.00    +0.000 A 
ATOM      5  C   UNL     1       0.931   9.793  19.217  0.00  0.00    +0.000 A 
ATOM      6  C   UNL     1       1.578   9.501  18.012  0.00  0.00    +0.000 A 
ATOM      7  C   UNL     1       2.365   8.347  17.886  0.00  0.00    +0.000 A 
BRANCH   2  10
ATOM      8  C   UNL     1       2.745   5.091  18.212  0.00  0.00    +0.000 C 
ATOM      9  O   UNL     1       1.634   5.004  17.673  0.00  0.00    +0.000 OA
ATOM     10  N   UNL     1       3.234   6.256  18.769  0.00  0.00    +0.000 N 
ATOM     11  H   UNL     1       4.224   6.309  18.993  0.00  0.00    +0.000 HD
BRANCH   8  12
ATOM     12  C   UNL     1       3.694   3.874  18.236  0.00  0.00    +0.000 C 
BRANCH  12  13
ATOM     13  C   UNL     1       4.982   4.286  17.483  0.00  0.00    +0.000 C 
BRANCH  13  15
ATOM     14  C   UNL     1       5.536   5.507  15.311  0.00  0.00    +0.000 C 
ATOM     15  C   UNL     1       4.972   4.253  15.952  0.00  0.00    +0.000 C 
ENDBRANCH  13  15
ENDBRANCH  12  13
BRANCH  12  16
ATOM     16  C   UNL     1       3.939   3.319  19.651  0.00  0.00    +0.000 C 
BRANCH  16  17
ATOM     17  C   UNL     1       2.721   2.616  20.254  0.00  0.00    +0.000 C 
ATOM     18  C   UNL     1       1.872   1.944  19.186  0.00  0.00    +0.000 C 
ENDBRANCH  16  17
ENDBRANCH  12  16
ENDBRANCH   8  12
ENDBRANCH   2  10
ENDBRANCH   1   5
BRANCH   1  19
ATOM     19  C   UNL     1       0.577  12.039  20.359  0.00  0.00    +0.000 C 
BRANCH  19  20
ATOM     20  C   UNL     1      -0.518  12.449  21.322  0.00  0.00    +0.000 C 
ATOM     21  O   UNL     1      -0.385  12.315  22.537  0.00  0.00    +0.000 OA
ATOM     22  N   UNL     1      -1.632  12.991  20.699  0.00  0.00    +0.000 N 
ATOM     23  H   UNL     1      -1.706  12.885  19.693  0.00  0.00    +0.000 HD
BRANCH  22  24
ATOM     24  C   UNL     1      -2.745  13.546  21.368  0.00  0.00    +0.000 A 
ATOM     25  C   UNL     1      -2.824  14.898  21.721  0.00  0.00    +0.000 A 
ATOM     26  C   UNL     1      -3.942  15.425  22.381  0.00  0.00    +0.000 A 
ATOM     27  C   UNL     1      -5.015  14.608  22.719  0.00  0.00    +0.000 A 
ATOM     28  C   UNL     1      -6.267  15.111  23.297  0.00  0.00    +0.000 A 
ATOM     29  C   UNL     1      -6.443  16.509  23.815  0.00  0.00    +0.000 C 
ATOM     30  C   UNL     1      -7.314  14.284  23.158  0.00  0.00    +0.000 A 
ATOM     31  C   UNL     1      -7.104  12.838  23.284  0.00  0.00    +0.000 A 
ATOM     32  O   UNL     1      -7.914  12.135  23.878  0.00  0.00    +0.000 OA
ATOM     33  O   UNL     1      -5.958  12.351  22.691  0.00  0.00    +0.000 OA
ATOM     34  C   UNL     1      -4.930  13.256  22.357  0.00  0.00    +0.000 A 
ATOM     35  C   UNL     1      -3.827  12.718  21.682  0.00  0.00    +0.000 A 
ENDBRANCH  22  24
ENDBRANCH  19  20
ENDBRANCH   1  19
TORSDOF 10
ENDMDL
MODEL 6
REMARK VINA RESULT:      -8.1      4.657      8.051
REMARK  Name = 
REMARK  13 active torsions:
REMARK  status: ('A' for Active; 'I' for Inactive)
REMARK    1  A    between atoms: C_1  and  C_2
REMARK    2  A    between atoms: C_2  and  C_3
REMARK    3  A    between atoms: C_3  and  C_4
REMARK    4  A    between atoms: C_4  and  C_5
REMARK    5  A    between atoms: C_4  and  C_8
REMARK    6  A    between atoms: C_5  and  C_6
REMARK    7  A    between atoms: C_6  and  C_7
REMARK    8  A    between atoms: N_10  and  C_11
REMARK    9  A    between atoms: C_14  and  C_15
REMARK   10  A    between atoms: C_15  and  C_16
REMARK   11  A    between atoms: C_16  and  C_17
REMARK   12  A    between atoms: N_19  and  C_20
REMARK   13  A    between atoms: C_24  and  C_25
REMARK                            x       y       z     vdW  Elec       q    Type
REMARK                         _______ _______ _______ _____ _____    ______ ____
ROOT
ATOM      1  C   UNL     1       0.095   9.216  20.914  0.00  0.00    +0.000 C 
ENDROOT
BRANCH   1   5
ATOM      2  C   UNL     1       2.938   7.033  18.483  0.00  0.00    +0.000 A 
ATOM      3  C   UNL     1       2.580   6.583  19.752  0.00  0.00    +0.000 A 
ATOM      4  C   UNL     1       1.666   7.293  20.540  0.00  0.00    +0.000 A 
ATOM      5  C   UNL     1       1.117   8.486  20.073  0.00  0.00    +0.000 A 
ATOM      6  C   UNL     1       1.482   8.951  18.806  0.00  0.00    +0.000 A 
ATOM      7  C   UNL     1       2.401   8.238  18.022  0.00  0.00    +0.000 A 
BRANCH   2  10
ATOM      8  C   UNL     1       5.042   6.744  17.184  0.00  0.00    +0.000 C 
ATOM      9  O   UNL     1       5.587   7.778  17.593  0.00  0.00    +0.000 OA
ATOM     10  N   UNL     1       3.814   6.300  17.633  0.00  0.00    +0.000 N 
ATOM     11  H   UNL     1       3.535   5.346  17.419  0.00  0.00    +0.000 HD
BRANCH   8  12
ATOM     12  C   UNL     1       5.761   5.840  16.161  0.00  0.00    +0.000 C 
BRANCH  12  13
ATOM     13  C   UNL     1       7.196   5.601  16.692  0.00  0.00    +0.000 C 
BRANCH  13  15
ATOM     14  C   UNL     1       8.065   5.707  19.090  0.00  0.00    +0.000 C 
ATOM     15  C   UNL     1       7.364   4.876  18.031  0.00  0.00    +0.000 C 
ENDBRANCH  13  15
ENDBRANCH  12  13
BRANCH  12  16
ATOM     16  C   UNL     1       4.985   4.551  15.835  0.00  0.00    +0.000 C 
BRANCH  16  17
ATOM     17  C   UNL     1       5.806   3.517  15.061  0.00  0.00    +0.000 C 
ATOM     18  C   UNL     1       6.059   3.957  13.628  0.00  0.00    +0.000 C 
ENDBRANCH  16  17
ENDBRANCH  12  16
ENDBRANCH   8  12
ENDBRANCH   2  10
ENDBRANCH   1   5
BRANCH   1  19
ATOM     19  C   UNL     1       0.539  10.626  21.323  0.00  0.00    +0.000 C 
BRANCH  19  20
ATOM     20  C   UNL     1      -0.501  11.262  22.223  0.00  0.00    +0.000 C 
ATOM     21  O   UNL     1      -0.545  11.014  23.426  0.00  0.00    +0.000 OA
ATOM     22  N   UNL     1      -1.349  12.137  21.559  0.00  0.00    +0.000 N 
ATOM     23  H   UNL     1      -1.338  12.124  20.546  0.00  0.00    +0.000 HD
BRANCH  22  24
ATOM     24  C   UNL     1      -2.334  12.936  22.180  0.00  0.00    +0.000 A 
ATOM     25  C   UNL     1      -2.093  14.247  22.607  0.00  0.00    +0.000 A 
ATOM     26  C   UNL     1      -3.089  15.021  23.215  0.00  0.00    +0.000 A 
ATOM     27  C   UNL     1      -4.361  14.499  23.427  0.00  0.00    +0.000 A 
ATOM     28  C   UNL     1      -5.486  15.289  23.943  0.00  0.00    +0.000 A 
ATOM     29  C   UNL     1      -5.340  16.663  24.529  0.00  0.00    +0.000 C 
ATOM     30  C   UNL     1      -6.694  14.770  23.680  0.00  0.00    +0.000 A 
ATOM     31  C   UNL     1      -6.875  13.315  23.734  0.00  0.00    +0.000 A 
ATOM     32  O   UNL     1      -7.885  12.825  24.226  0.00  0.00    +0.000 OA
ATOM     33  O   UNL     1      -5.847  12.570  23.196  0.00  0.00    +0.000 OA
ATOM     34  C   UNL     1      -4.596  13.187  22.992  0.00  0.00    +0.000 A 
ATOM     35  C   UNL     1      -3.615  12.407  22.366  0.00  0.00    +0.000 A 
ENDBRANCH  22  24
ENDBRANCH  19  20
ENDBRANCH   1  19
TORSDOF 10
ENDMDL
MODEL 7
REMARK VINA RESULT:      -8.1      4.465      7.916
REMARK  Name = 
REMARK  13 active torsions:
REMARK  status: ('A' for Active; 'I' for Inactive)
REMARK    1  A    between atoms: C_1  and  C_2
REMARK    2  A    between atoms: C_2  and  C_3
REMARK    3  A    between atoms: C_3  and  C_4
REMARK    4  A    between atoms: C_4  and  C_5
REMARK    5  A    between atoms: C_4  and  C_8
REMARK    6  A    between atoms: C_5  and  C_6
REMARK    7  A    between atoms: C_6  and  C_7
REMARK    8  A    between atoms: N_10  and  C_11
REMARK    9  A    between atoms: C_14  and  C_15
REMARK   10  A    between atoms: C_15  and  C_16
REMARK   11  A    between atoms: C_16  and  C_17
REMARK   12  A    between atoms: N_19  and  C_20
REMARK   13  A    between atoms: C_24  and  C_25
REMARK                            x       y       z     vdW  Elec       q    Type
REMARK                         _______ _______ _______ _____ _____    ______ ____
ROOT
ATOM      1  C   UNL     1       0.228   9.688  20.170  0.00  0.00    +0.000 C 
ENDROOT
BRANCH   1   5
ATOM      2  C   UNL     1       3.128   7.162  18.179  0.00  0.00    +0.000 A 
ATOM      3  C   UNL     1       2.743   6.917  19.495  0.00  0.00    +0.000 A 
ATOM      4  C   UNL     1       1.811   7.738  20.140  0.00  0.00    +0.000 A 
ATOM      5  C   UNL     1       1.270   8.839  19.479  0.00  0.00    +0.000 A 
ATOM      6  C   UNL     1       1.662   9.099  18.162  0.00  0.00    +0.000 A 
ATOM      7  C   UNL     1       2.598   8.276  17.521  0.00  0.00    +0.000 A 
BRANCH   2  10
ATOM      8  C   UNL     1       4.223   4.968  17.748  0.00  0.00    +0.000 C 
ATOM      9  O   UNL     1       3.532   4.323  18.547  0.00  0.00    +0.000 OA
ATOM     10  N   UNL     1       4.023   6.307  17.475  0.00  0.00    +0.000 N 
ATOM     11  H   UNL     1       4.478   6.709  16.660  0.00  0.00    +0.000 HD
BRANCH   8  12
ATOM     12  C   UNL     1       5.341   4.269  16.947  0.00  0.00    +0.000 C 
BRANCH  12  13
ATOM     13  C   UNL     1       5.235   4.766  15.485  0.00  0.00    +0.000 C 
BRANCH  13  15
ATOM     14  C   UNL     1       6.151   3.780  13.316  0.00  0.00    +0.000 C 
ATOM     15  C   UNL     1       6.446   4.588  14.565  0.00  0.00    +0.000 C 
ENDBRANCH  13  15
ENDBRANCH  12  13
BRANCH  12  16
ATOM     16  C   UNL     1       6.737   4.440  17.572  0.00  0.00    +0.000 C 
BRANCH  16  17
ATOM     17  C   UNL     1       6.994   5.841  18.132  0.00  0.00    +0.000 C 
ATOM     18  C   UNL     1       7.996   5.815  19.275  0.00  0.00    +0.000 C 
ENDBRANCH  16  17
ENDBRANCH  12  16
ENDBRANCH   8  12
ENDBRANCH   2  10
ENDBRANCH   1   5
BRANCH   1  19
ATOM     19  C   UNL     1       0.822  10.676  21.183  0.00  0.00    +0.000 C 
BRANCH  19  20
ATOM     20  C   UNL     1      -0.136  11.825  21.418  0.00  0.00    +0.000 C 
ATOM     21  O   UNL     1      -0.328  12.685  20.561  0.00  0.00    +0.000 OA
ATOM     22  N   UNL     1      -0.761  11.782  22.656  0.00  0.00    +0.000 N 
ATOM     23  H   UNL     1      -0.393  11.137  23.346  0.00  0.00    +0.000 HD
BRANCH  22  24
ATOM     24  C   UNL     1      -1.772  12.670  23.084  0.00  0.00    +0.000 A 
ATOM     25  C   UNL     1      -1.509  13.982  23.495  0.00  0.00    +0.000 A 
ATOM     26  C   UNL     1      -2.531  14.846  23.911  0.00  0.00    +0.000 A 
ATOM     27  C   UNL     1      -3.853  14.416  23.939  0.00  0.00    +0.000 A 
ATOM     28  C   UNL     1      -4.986  15.298  24.243  0.00  0.00    +0.000 A 
ATOM     29  C   UNL     1      -4.836  16.686  24.793  0.00  0.00    +0.000 C 
ATOM     30  C   UNL     1      -6.173  14.844  23.813  0.00  0.00    +0.000 A 
ATOM     31  C   UNL     1      -6.461  13.409  23.892  0.00  0.00    +0.000 A 
ATOM     32  O   UNL     1      -7.566  13.007  24.236  0.00  0.00    +0.000 OA
ATOM     33  O   UNL     1      -5.416  12.575  23.550  0.00  0.00    +0.000 OA
ATOM     34  C   UNL     1      -4.109  13.102  23.521  0.00  0.00    +0.000 A 
ATOM     35  C   UNL     1      -3.100  12.233  23.087  0.00  0.00    +0.000 A 
ENDBRANCH  22  24
ENDBRANCH  19  20
ENDBRANCH   1  19
TORSDOF 10
ENDMDL
MODEL 8
REMARK VINA RESULT:      -8.0      4.839      8.811
REMARK  Name = 
REMARK  13 active torsions:
REMARK  status: ('A' for Active; 'I' for Inactive)
REMARK    1  A    between atoms: C_1  and  C_2
REMARK    2  A    between atoms: C_2  and  C_3
REMARK    3  A    between atoms: C_3  and  C_4
REMARK    4  A    between atoms: C_4  and  C_5
REMARK    5  A    between atoms: C_4  and  C_8
REMARK    6  A    between atoms: C_5  and  C_6
REMARK    7  A    between atoms: C_6  and  C_7
REMARK    8  A    between atoms: N_10  and  C_11
REMARK    9  A    between atoms: C_14  and  C_15
REMARK   10  A    between atoms: C_15  and  C_16
REMARK   11  A    between atoms: C_16  and  C_17
REMARK   12  A    between atoms: N_19  and  C_20
REMARK   13  A    between atoms: C_24  and  C_25
REMARK                            x       y       z     vdW  Elec       q    Type
REMARK                         _______ _______ _______ _____ _____    ______ ____
ROOT
ATOM      1  C   UNL     1       0.823  10.489  20.471  0.00  0.00    +0.000 C 
ENDROOT
BRANCH   1   5
ATOM      2  C   UNL     1       2.342   6.773  18.848  0.00  0.00    +0.000 A 
ATOM      3  C   UNL     1       2.256   7.920  18.061  0.00  0.00    +0.000 A 
ATOM      4  C   UNL     1       1.758   9.119  18.585  0.00  0.00    +0.000 A 
ATOM      5  C   UNL     1       1.312   9.176  19.904  0.00  0.00    +0.000 A 
ATOM      6  C   UNL     1       1.383   8.025  20.695  0.00  0.00    +0.000 A 
ATOM      7  C   UNL     1       1.879   6.825  20.165  0.00  0.00    +0.000 A 
BRANCH   2  10
ATOM      8  C   UNL     1       4.177   5.102  18.648  0.00  0.00    +0.000 C 
ATOM      9  O   UNL     1       4.922   5.632  19.482  0.00  0.00    +0.000 OA
ATOM     10  N   UNL     1       2.905   5.557  18.363  0.00  0.00    +0.000 N 
ATOM     11  H   UNL     1       2.279   4.953  17.838  0.00  0.00    +0.000 HD
BRANCH   8  12
ATOM     12  C   UNL     1       4.625   3.826  17.904  0.00  0.00    +0.000 C 
BRANCH  12  13
ATOM     13  C   UNL     1       3.350   3.155  17.338  0.00  0.00    +0.000 C 
BRANCH  13  15
ATOM     14  C   UNL     1       1.349   2.285  18.662  0.00  0.00    +0.000 C 
ATOM     15  C   UNL     1       2.734   1.990  18.117  0.00  0.00    +0.000 C 
ENDBRANCH  13  15
ENDBRANCH  12  13
BRANCH  12  16
ATOM     16  C   UNL     1       5.722   4.085  16.856  0.00  0.00    +0.000 C 
BRANCH  16  17
ATOM     17  C   UNL     1       5.189   4.630  15.529  0.00  0.00    +0.000 C 
ATOM     18  C   UNL     1       5.341   6.140  15.438  0.00  0.00    +0.000 C 
ENDBRANCH  16  17
ENDBRANCH  12  16
ENDBRANCH   8  12
ENDBRANCH   2  10
ENDBRANCH   1   5
BRANCH   1  19
ATOM     19  C   UNL     1      -0.161  10.321  21.636  0.00  0.00    +0.000 C 
BRANCH  19  20
ATOM     20  C   UNL     1      -1.072  11.527  21.730  0.00  0.00    +0.000 C 
ATOM     21  O   UNL     1      -1.665  11.961  20.745  0.00  0.00    +0.000 OA
ATOM     22  N   UNL     1      -1.171  12.049  23.012  0.00  0.00    +0.000 N 
ATOM     23  H   UNL     1      -0.502  11.728  23.703  0.00  0.00    +0.000 HD
BRANCH  22  24
ATOM     24  C   UNL     1      -2.029  13.104  23.393  0.00  0.00    +0.000 A 
ATOM     25  C   UNL     1      -1.560  14.333  23.868  0.00  0.00    +0.000 A 
ATOM     26  C   UNL     1      -2.433  15.366  24.236  0.00  0.00    +0.000 A 
ATOM     27  C   UNL     1      -3.810  15.192  24.150  0.00  0.00    +0.000 A 
ATOM     28  C   UNL     1      -4.780  16.267  24.398  0.00  0.00    +0.000 A 
ATOM     29  C   UNL     1      -4.419  17.590  25.006  0.00  0.00    +0.000 C 
ATOM     30  C   UNL     1      -5.992  16.053  23.865  0.00  0.00    +0.000 A 
ATOM     31  C   UNL     1      -6.547  14.696  23.872  0.00  0.00    +0.000 A 
ATOM     32  O   UNL     1      -7.732  14.503  24.118  0.00  0.00    +0.000 OA
ATOM     33  O   UNL     1      -5.653  13.688  23.580  0.00  0.00    +0.000 OA
ATOM     34  C   UNL     1      -4.272  13.959  23.668  0.00  0.00    +0.000 A 
ATOM     35  C   UNL     1      -3.411  12.924  23.281  0.00  0.00    +0.000 A 
ENDBRANCH  22  24
ENDBRANCH  19  20
ENDBRANCH   1  19
TORSDOF 10
ENDMDL
MODEL 9
REMARK VINA RESULT:      -8.0      4.892      8.803
REMARK  Name = 
REMARK  13 active torsions:
REMARK  status: ('A' for Active; 'I' for Inactive)
REMARK    1  A    between atoms: C_1  and  C_2
REMARK    2  A    between atoms: C_2  and  C_3
REMARK    3  A    between atoms: C_3  and  C_4
REMARK    4  A    between atoms: C_4  and  C_5
REMARK    5  A    between atoms: C_4  and  C_8
REMARK    6  A    between atoms: C_5  and  C_6
REMARK    7  A    between atoms: C_6  and  C_7
REMARK    8  A    between atoms: N_10  and  C_11
REMARK    9  A    between atoms: C_14  and  C_15
REMARK   10  A    between atoms: C_15  and  C_16
REMARK   11  A    between atoms: C_16  and  C_17
REMARK   12  A    between atoms: N_19  and  C_20
REMARK   13  A    between atoms: C_24  and  C_25
REMARK                            x       y       z     vdW  Elec       q    Type
REMARK                         _______ _______ _______ _____ _____    ______ ____
ROOT
ATOM      1  C   UNL     1       0.683  10.772  19.828  0.00  0.00    +0.000 C 
ENDROOT
BRANCH   1   5
ATOM      2  C   UNL     1       2.525   7.048  18.606  0.00  0.00    +0.000 A 
ATOM      3  C   UNL     1       2.036   7.219  19.900  0.00  0.00    +0.000 A 
ATOM      4  C   UNL     1       1.447   8.426  20.296  0.00  0.00    +0.000 A 
ATOM      5  C   UNL     1       1.365   9.492  19.402  0.00  0.00    +0.000 A 
ATOM      6  C   UNL     1       1.865   9.332  18.107  0.00  0.00    +0.000 A 
ATOM      7  C   UNL     1       2.457   8.122  17.715  0.00  0.00    +0.000 A 
BRANCH   2  10
ATOM      8  C   UNL     1       4.253   5.256  18.599  0.00  0.00    +0.000 C 
ATOM      9  O   UNL     1       4.904   5.703  19.552  0.00  0.00    +0.000 OA
ATOM     10  N   UNL     1       3.069   5.811  18.155  0.00  0.00    +0.000 N 
ATOM     11  H   UNL     1       2.487   5.271  17.521  0.00  0.00    +0.000 HD
BRANCH   8  12
ATOM     12  C   UNL     1       4.719   3.976  17.872  0.00  0.00    +0.000 C 
BRANCH  12  13
ATOM     13  C   UNL     1       3.506   3.436  17.076  0.00  0.00    +0.000 C 
BRANCH  13  15
ATOM     14  C   UNL     1       1.733   2.365  18.568  0.00  0.00    +0.000 C 
ATOM     15  C   UNL     1       2.839   2.143  17.553  0.00  0.00    +0.000 C 
ENDBRANCH  13  15
ENDBRANCH  12  13
BRANCH  12  16
ATOM     16  C   UNL     1       5.989   4.182  17.028  0.00  0.00    +0.000 C 
BRANCH  16  17
ATOM     17  C   UNL     1       5.830   3.763  15.564  0.00  0.00    +0.000 C 
ATOM     18  C   UNL     1       6.076   4.926  14.616  0.00  0.00    +0.000 C 
ENDBRANCH  16  17
ENDBRANCH  12  16
ENDBRANCH   8  12
ENDBRANCH   2  10
ENDBRANCH   1   5
BRANCH   1  19
ATOM     19  C   UNL     1      -0.162  10.617  21.100  0.00  0.00    +0.000 C 
BRANCH  19  20
ATOM     20  C   UNL     1      -1.146  11.762  21.217  0.00  0.00    +0.000 C 
ATOM     21  O   UNL     1      -1.665  12.266  20.223  0.00  0.00    +0.000 OA
ATOM     22  N   UNL     1      -1.399  12.145  22.527  0.00  0.00    +0.000 N 
ATOM     23  H   UNL     1      -0.783  11.787  23.248  0.00  0.00    +0.000 HD
BRANCH  22  24
ATOM     24  C   UNL     1      -2.350  13.112  22.919  0.00  0.00    +0.000 A 
ATOM     25  C   UNL     1      -2.052  14.475  23.023  0.00  0.00    +0.000 A 
ATOM     26  C   UNL     1      -3.015  15.416  23.409  0.00  0.00    +0.000 A 
ATOM     27  C   UNL     1      -4.311  15.016  23.717  0.00  0.00    +0.000 A 
ATOM     28  C   UNL     1      -5.402  15.955  24.008  0.00  0.00    +0.000 A 
ATOM     29  C   UNL     1      -5.196  17.421  24.249  0.00  0.00    +0.000 C 
ATOM     30  C   UNL     1      -6.631  15.440  23.856  0.00  0.00    +0.000 A 
ATOM     31  C   UNL     1      -6.879  14.051  24.255  0.00  0.00    +0.000 A 
ATOM     32  O   UNL     1      -7.914  13.738  24.832  0.00  0.00    +0.000 OA
ATOM     33  O   UNL     1      -5.883  13.154  23.931  0.00  0.00    +0.000 OA
ATOM     34  C   UNL     1      -4.604  13.649  23.606  0.00  0.00    +0.000 A 
ATOM     35  C   UNL     1      -3.655  12.700  23.204  0.00  0.00    +0.000 A 
ENDBRANCH  22  24
ENDBRANCH  19  20
ENDBRANCH   1  19
TORSDOF 10
ENDMDL
