MODEL 1
REMARK VINA RESULT:      -8.1      0.000      0.000
REMARK  Name = 
REMARK  9 active torsions:
REMARK  status: ('A' for Active; 'I' for Inactive)
REMARK    1  A    between atoms: C_1  and  O_2
REMARK    2  A    between atoms: O_2  and  C_3
REMARK    3  A    between atoms: C_8  and  O_9
REMARK    4  A    between atoms: O_9  and  C_10
REMARK    5  A    between atoms: N_13  and  C_14
REMARK    6  A    between atoms: C_14  and  C_15
REMARK    7  A    between atoms: C_15  and  C_16
REMARK    8  A    between atoms: C_16  and  C_17
REMARK    9  A    between atoms: C_17  and  N_18
REMARK                            x       y       z     vdW  Elec       q    Type
REMARK                         _______ _______ _______ _____ _____    ______ ____
ROOT
ATOM      1  C   UNL     1       6.925  15.420  20.293  0.00  0.00    +0.000 A 
ATOM      2  C   UNL     1       7.877  15.326  19.269  0.00  0.00    +0.000 A 
ATOM      3  C   UNL     1       8.902  14.367  19.291  0.00  0.00    +0.000 A 
ATOM      4  C   UNL     1       8.945  13.478  20.369  0.00  0.00    +0.000 A 
ATOM      5  C   UNL     1       8.021  13.602  21.427  0.00  0.00    +0.000 A 
ATOM      6  C   UNL     1       6.999  14.557  21.398  0.00  0.00    +0.000 A 
ATOM      7  C   UNL     1       9.791  12.249  20.418  0.00  0.00    +0.000 C 
ATOM      8  O   UNL     1      10.167  11.813  21.501  0.00  0.00    +0.000 OA
ATOM      9  N   UNL     1       9.786  11.495  19.252  0.00  0.00    +0.000 N 
ATOM     10  C   UNL     1      10.516  11.923  18.070  0.00  0.00    +0.000 C 
ATOM     11  C   UNL     1       9.815  13.061  17.347  0.00  0.00    +0.000 C 
ATOM     12  C   UNL     1       9.890  14.345  18.157  0.00  0.00    +0.000 C 
ENDROOT
BRANCH   1  14
ATOM     13  C   UNL     1       5.447  16.394  18.698  0.00  0.00    +0.000 C 
ATOM     14  O   UNL     1       5.951  16.346  20.023  0.00  0.00    +0.000 OA
ENDBRANCH   1  14
BRANCH   6  15
ATOM     15  O   UNL     1       6.034  14.654  22.360  0.00  0.00    +0.000 OA
ATOM     16  C   UNL     1       4.771  14.043  22.122  0.00  0.00    +0.000 C 
ENDBRANCH   6  15
BRANCH   9  17
ATOM     17  C   UNL     1       9.380  10.105  19.340  0.00  0.00    +0.000 C 
BRANCH  17  18
ATOM     18  C   UNL     1       8.441   9.637  18.234  0.00  0.00    +0.000 C 
BRANCH  18  19
ATOM     19  C   UNL     1       8.223   8.118  18.298  0.00  0.00    +0.000 C 
BRANCH  19  20
ATOM     20  C   UNL     1       7.304   7.550  17.200  0.00  0.00    +0.000 C 
BRANCH  20  21
ATOM     21  N   UNL     1       7.491   6.111  16.981  0.00  0.00    +0.000 NA
ATOM     22  C   UNL     1       7.514   5.342  18.256  0.00  0.00    +0.000 C 
ATOM     23  C   UNL     1       6.138   5.174  18.952  0.00  0.00    +0.000 C 
ATOM     24  N   UNL     1       5.246   4.523  17.990  0.00  0.00    +0.000 N 
ATOM     25  C   UNL     1       4.151   3.833  18.487  0.00  0.00    +0.000 A 
ATOM     26  C   UNL     1       3.619   2.798  17.710  0.00  0.00    +0.000 A 
ATOM     27  C   UNL     1       2.579   2.017  18.202  0.00  0.00    +0.000 A 
ATOM     28  C   UNL     1       2.077   2.289  19.462  0.00  0.00    +0.000 A 
ATOM     29  C   UNL     1       2.650   3.327  20.175  0.00  0.00    +0.000 A 
ATOM     30  N   UNL     1       3.678   4.089  19.720  0.00  0.00    +0.000 NA
ATOM     31  C   UNL     1       5.054   5.296  16.758  0.00  0.00    +0.000 C 
ATOM     32  C   UNL     1       6.435   5.546  16.099  0.00  0.00    +0.000 C 
ENDBRANCH  20  21
ENDBRANCH  19  20
ENDBRANCH  18  19
ENDBRANCH  17  18
ENDBRANCH   9  17
TORSDOF 7
ENDMDL
MODEL 2
REMARK VINA RESULT:      -8.0      1.448      1.931
REMARK  Name = 
REMARK  9 active torsions:
REMARK  status: ('A' for Active; 'I' for Inactive)
REMARK    1  A    between atoms: C_1  and  O_2
REMARK    2  A    between atoms: O_2  and  C_3
REMARK    3  A    between atoms: C_8  and  O_9
REMARK    4  A    between atoms: O_9  and  C_10
REMARK    5  A    between atoms: N_13  and  C_14
REMARK    6  A    between atoms: C_14  and  C_15
REMARK    7  A    between atoms: C_15  and  C_16
REMARK    8  A    between atoms: C_16  and  C_17
REMARK    9  A    between atoms: C_17  and  N_18
REMARK                            x       y       z     vdW  Elec       q    Type
REMARK                         _______ _______ _______ _____ _____    ______ ____
ROOT
ATOM      1  C   UNL     1       7.252  13.829  22.495  0.00  0.00    +0.000 A 
ATOM      2  C   UNL     1       7.405  14.452  21.249  0.00  0.00    +0.000 A 
ATOM      3  C   UNL     1       8.422  14.085  20.353  0.00  0.00    +0.000 A 
ATOM      4  C   UNL     1       9.288  13.053  20.731  0.00  0.00    +0.000 A 
ATOM      5  C   UNL     1       9.169  12.461  22.004  0.00  0.00    +0.000 A 
ATOM      6  C   UNL     1       8.151  12.827  22.891  0.00  0.00    +0.000 A 
ATOM      7  C   UNL     1      10.240  12.369  19.808  0.00  0.00    +0.000 C 
ATOM      8  O   UNL     1      11.268  11.871  20.256  0.00  0.00    +0.000 OA
ATOM      9  N   UNL     1       9.710  12.039  18.567  0.00  0.00    +0.000 N 
ATOM     10  C   UNL     1       9.484  13.051  17.548  0.00  0.00    +0.000 C 
ATOM     11  C   UNL     1       8.264  13.905  17.851  0.00  0.00    +0.000 C 
ATOM     12  C   UNL     1       8.523  14.814  19.042  0.00  0.00    +0.000 C 
ENDROOT
BRANCH   1  14
ATOM     13  C   UNL     1       5.410  15.338  22.597  0.00  0.00    +0.000 C 
ATOM     14  O   UNL     1       6.134  14.258  23.164  0.00  0.00    +0.000 OA
ENDBRANCH   1  14
BRANCH   6  15
ATOM     15  O   UNL     1       7.950  12.218  24.097  0.00  0.00    +0.000 OA
ATOM     16  C   UNL     1       6.744  11.491  24.302  0.00  0.00    +0.000 C 
ENDBRANCH   6  15
BRANCH   9  17
ATOM     17  C   UNL     1       9.750  10.649  18.155  0.00  0.00    +0.000 C 
BRANCH  17  18
ATOM     18  C   UNL     1       8.765   9.736  18.876  0.00  0.00    +0.000 C 
BRANCH  18  19
ATOM     19  C   UNL     1       8.120   8.739  17.902  0.00  0.00    +0.000 C 
BRANCH  19  20
ATOM     20  C   UNL     1       8.068   7.284  18.406  0.00  0.00    +0.000 C 
BRANCH  20  21
ATOM     21  N   UNL     1       7.552   6.346  17.403  0.00  0.00    +0.000 NA
ATOM     22  C   UNL     1       7.364   4.974  17.952  0.00  0.00    +0.000 C 
ATOM     23  C   UNL     1       6.151   4.803  18.904  0.00  0.00    +0.000 C 
ATOM     24  N   UNL     1       4.959   5.212  18.158  0.00  0.00    +0.000 N 
ATOM     25  C   UNL     1       3.733   4.716  18.575  0.00  0.00    +0.000 A 
ATOM     26  C   UNL     1       2.704   4.629  17.632  0.00  0.00    +0.000 A 
ATOM     27  C   UNL     1       1.485   4.056  17.976  0.00  0.00    +0.000 A 
ATOM     28  C   UNL     1       1.307   3.586  19.265  0.00  0.00    +0.000 A 
ATOM     29  C   UNL     1       2.367   3.704  20.146  0.00  0.00    +0.000 A 
ATOM     30  N   UNL     1       3.571   4.244  19.825  0.00  0.00    +0.000 NA
ATOM     31  C   UNL     1       5.004   6.607  17.707  0.00  0.00    +0.000 C 
ATOM     32  C   UNL     1       6.263   6.811  16.825  0.00  0.00    +0.000 C 
ENDBRANCH  20  21
ENDBRANCH  19  20
ENDBRANCH  18  19
ENDBRANCH  17  18
ENDBRANCH   9  17
TORSDOF 7
ENDMDL
MODEL 3
REMARK VINA RESULT:      -8.0      1.654      2.290
REMARK  Name = 
REMARK  9 active torsions:
REMARK  status: ('A' for Active; 'I' for Inactive)
REMARK    1  A    between atoms: C_1  and  O_2
REMARK    2  A    between atoms: O_2  and  C_3
REMARK    3  A    between atoms: C_8  and  O_9
REMARK    4  A    between atoms: O_9  and  C_10
REMARK    5  A    between atoms: N_13  and  C_14
REMARK    6  A    between atoms: C_14  and  C_15
REMARK    7  A    between atoms: C_15  and  C_16
REMARK    8  A    between atoms: C_16  and  C_17
REMARK    9  A    between atoms: C_17  and  N_18
REMARK                            x       y       z     vdW  Elec       q    Type
REMARK                         _______ _______ _______ _____ _____    ______ ____
ROOT
ATOM      1  C   UNL     1       9.878  16.343  18.122  0.00  0.00    +0.000 A 
ATOM      2  C   UNL     1      10.914  15.467  17.768  0.00  0.00    +0.000 A 
ATOM      3  C   UNL     1      11.195  14.308  18.509  0.00  0.00    +0.000 A 
ATOM      4  C   UNL     1      10.394  14.032  19.622  0.00  0.00    +0.000 A 
ATOM      5  C   UNL     1       9.386  14.937  20.011  0.00  0.00    +0.000 A 
ATOM      6  C   UNL     1       9.107  16.088  19.266  0.00  0.00    +0.000 A 
ATOM      7  C   UNL     1      10.382  12.730  20.353  0.00  0.00    +0.000 C 
ATOM      8  O   UNL     1      10.080  12.703  21.541  0.00  0.00    +0.000 OA
ATOM      9  N   UNL     1      10.369  11.607  19.536  0.00  0.00    +0.000 N 
ATOM     10  C   UNL     1      11.562  11.173  18.827  0.00  0.00    +0.000 C 
ATOM     11  C   UNL     1      11.864  12.052  17.625  0.00  0.00    +0.000 C 
ATOM     12  C   UNL     1      12.332  13.430  18.067  0.00  0.00    +0.000 C 
ENDROOT
BRANCH   1  14
ATOM     13  C   UNL     1      10.211  18.631  17.540  0.00  0.00    +0.000 C 
ATOM     14  O   UNL     1       9.703  17.349  17.206  0.00  0.00    +0.000 OA
ENDBRANCH   1  14
BRANCH   6  15
ATOM     15  O   UNL     1       8.085  16.944  19.561  0.00  0.00    +0.000 OA
ATOM     16  C   UNL     1       6.778  16.635  19.089  0.00  0.00    +0.000 C 
ENDBRANCH   6  15
BRANCH   9  17
ATOM     17  C   UNL     1       9.286  10.656  19.700  0.00  0.00    +0.000 C 
BRANCH  17  18
ATOM     18  C   UNL     1       8.764  10.045  18.405  0.00  0.00    +0.000 C 
BRANCH  18  19
ATOM     19  C   UNL     1       8.497   8.542  18.570  0.00  0.00    +0.000 C 
BRANCH  19  20
ATOM     20  C   UNL     1       7.630   7.914  17.462  0.00  0.00    +0.000 C 
BRANCH  20  21
ATOM     21  N   UNL     1       7.770   6.456  17.379  0.00  0.00    +0.000 NA
ATOM     22  C   UNL     1       7.397   5.777  18.651  0.00  0.00    +0.000 C 
ATOM     23  C   UNL     1       5.876   5.730  18.954  0.00  0.00    +0.000 C 
ATOM     24  N   UNL     1       5.233   5.059  17.822  0.00  0.00    +0.000 N 
ATOM     25  C   UNL     1       4.000   4.464  18.037  0.00  0.00    +0.000 A 
ATOM     26  C   UNL     1       3.627   3.406  17.201  0.00  0.00    +0.000 A 
ATOM     27  C   UNL     1       2.442   2.716  17.432  0.00  0.00    +0.000 A 
ATOM     28  C   UNL     1       1.639   3.100  18.491  0.00  0.00    +0.000 A 
ATOM     29  C   UNL     1       2.070   4.155  19.276  0.00  0.00    +0.000 A 
ATOM     30  N   UNL     1       3.232   4.830  19.079  0.00  0.00    +0.000 NA
ATOM     31  C   UNL     1       5.432   5.754  16.545  0.00  0.00    +0.000 C 
ATOM     32  C   UNL     1       6.954   5.885  16.274  0.00  0.00    +0.000 C 
ENDBRANCH  20  21
ENDBRANCH  19  20
ENDBRANCH  18  19
ENDBRANCH  17  18
ENDBRANCH   9  17
TORSDOF 7
ENDMDL
MODEL 4
REMARK VINA RESULT:      -7.9      1.428      1.867
REMARK  Name = 
REMARK  9 active torsions:
REMARK  status: ('A' for Active; 'I' for Inactive)
REMARK    1  A    between atoms: C_1  and  O_2
REMARK    2  A    between atoms: O_2  and  C_3
REMARK    3  A    between atoms: C_8  and  O_9
REMARK    4  A    between atoms: O_9  and  C_10
REMARK    5  A    between atoms: N_13  and  C_14
REMARK    6  A    between atoms: C_14  and  C_15
REMARK    7  A    between atoms: C_15  and  C_16
REMARK    8  A    between atoms: C_16  and  C_17
REMARK    9  A    between atoms: C_17  and  N_18
REMARK                            x       y       z     vdW  Elec       q    Type
REMARK                         _______ _______ _______ _____ _____    ______ ____
ROOT
ATOM      1  C   UNL     1       8.962  16.076  18.757  0.00  0.00    +0.000 A 
ATOM      2  C   UNL     1      10.206  15.452  18.589  0.00  0.00    +0.000 A 
ATOM      3  C   UNL     1      10.535  14.258  19.251  0.00  0.00    +0.000 A 
ATOM      4  C   UNL     1       9.571  13.684  20.086  0.00  0.00    +0.000 A 
ATOM      5  C   UNL     1       8.340  14.336  20.298  0.00  0.00    +0.000 A 
ATOM      6  C   UNL     1       8.015  15.523  19.632  0.00  0.00    +0.000 A 
ATOM      7  C   UNL     1       9.654  12.303  20.647  0.00  0.00    +0.000 C 
ATOM      8  O   UNL     1       9.096  12.045  21.709  0.00  0.00    +0.000 OA
ATOM      9  N   UNL     1      10.057  11.332  19.740  0.00  0.00    +0.000 N 
ATOM     10  C   UNL     1      11.443  11.219  19.318  0.00  0.00    +0.000 C 
ATOM     11  C   UNL     1      11.831  12.309  18.333  0.00  0.00    +0.000 C 
ATOM     12  C   UNL     1      11.898  13.663  19.024  0.00  0.00    +0.000 C 
ENDROOT
BRANCH   1  14
ATOM     13  C   UNL     1       9.676  18.266  18.143  0.00  0.00    +0.000 C 
ATOM     14  O   UNL     1       8.805  17.165  17.938  0.00  0.00    +0.000 OA
ENDBRANCH   1  14
BRANCH   6  15
ATOM     15  O   UNL     1       6.801  16.139  19.744  0.00  0.00    +0.000 OA
ATOM     16  C   UNL     1       5.630  15.408  19.398  0.00  0.00    +0.000 C 
ENDBRANCH   6  15
BRANCH   9  17
ATOM     17  C   UNL     1       9.179  10.198  19.520  0.00  0.00    +0.000 C 
BRANCH  17  18
ATOM     18  C   UNL     1       9.070   9.739  18.071  0.00  0.00    +0.000 C 
BRANCH  18  19
ATOM     19  C   UNL     1       7.745   9.005  17.820  0.00  0.00    +0.000 C 
BRANCH  19  20
ATOM     20  C   UNL     1       7.814   7.474  17.982  0.00  0.00    +0.000 C 
BRANCH  20  21
ATOM     21  N   UNL     1       7.180   6.749  16.875  0.00  0.00    +0.000 NA
ATOM     22  C   UNL     1       7.353   5.275  16.989  0.00  0.00    +0.000 C 
ATOM     23  C   UNL     1       6.492   4.590  18.083  0.00  0.00    +0.000 C 
ATOM     24  N   UNL     1       5.093   4.909  17.790  0.00  0.00    +0.000 N 
ATOM     25  C   UNL     1       4.117   4.061  18.291  0.00  0.00    +0.000 A 
ATOM     26  C   UNL     1       2.890   4.005  17.623  0.00  0.00    +0.000 A 
ATOM     27  C   UNL     1       1.910   3.106  18.030  0.00  0.00    +0.000 A 
ATOM     28  C   UNL     1       2.170   2.280  19.109  0.00  0.00    +0.000 A 
ATOM     29  C   UNL     1       3.404   2.388  19.723  0.00  0.00    +0.000 A 
ATOM     30  N   UNL     1       4.380   3.248  19.329  0.00  0.00    +0.000 NA
ATOM     31  C   UNL     1       4.808   6.348  17.806  0.00  0.00    +0.000 C 
ATOM     32  C   UNL     1       5.728   7.055  16.777  0.00  0.00    +0.000 C 
ENDBRANCH  20  21
ENDBRANCH  19  20
ENDBRANCH  18  19
ENDBRANCH  17  18
ENDBRANCH   9  17
TORSDOF 7
ENDMDL
MODEL 5
REMARK VINA RESULT:      -7.8      9.036     12.177
REMARK  Name = 
REMARK  9 active torsions:
REMARK  status: ('A' for Active; 'I' for Inactive)
REMARK    1  A    between atoms: C_1  and  O_2
REMARK    2  A    between atoms: O_2  and  C_3
REMARK    3  A    between atoms: C_8  and  O_9
REMARK    4  A    between atoms: O_9  and  C_10
REMARK    5  A    between atoms: N_13  and  C_14
REMARK    6  A    between atoms: C_14  and  C_15
REMARK    7  A    between atoms: C_15  and  C_16
REMARK    8  A    between atoms: C_16  and  C_17
REMARK    9  A    between atoms: C_17  and  N_18
REMARK                            x       y       z     vdW  Elec       q    Type
REMARK                         _______ _______ _______ _____ _____    ______ ____
ROOT
ATOM      1  C   UNL     1       2.263   5.859  19.634  0.00  0.00    +0.000 A 
ATOM      2  C   UNL     1       1.740   6.649  20.667  0.00  0.00    +0.000 A 
ATOM      3  C   UNL     1       1.508   8.024  20.508  0.00  0.00    +0.000 A 
ATOM      4  C   UNL     1       1.800   8.600  19.267  0.00  0.00    +0.000 A 
ATOM      5  C   UNL     1       2.375   7.820  18.243  0.00  0.00    +0.000 A 
ATOM      6  C   UNL     1       2.600   6.449  18.406  0.00  0.00    +0.000 A 
ATOM      7  C   UNL     1       1.373   9.968  18.848  0.00  0.00    +0.000 C 
ATOM      8  O   UNL     1       2.040  10.586  18.025  0.00  0.00    +0.000 OA
ATOM      9  N   UNL     1       0.057  10.285  19.159  0.00  0.00    +0.000 N 
ATOM     10  C   UNL     1      -0.344  10.600  20.520  0.00  0.00    +0.000 C 
ATOM     11  C   UNL     1      -0.429   9.360  21.393  0.00  0.00    +0.000 C 
ATOM     12  C   UNL     1       0.957   8.800  21.673  0.00  0.00    +0.000 C 
ENDROOT
BRANCH   1  14
ATOM     13  C   UNL     1       1.179   3.982  20.625  0.00  0.00    +0.000 C 
ATOM     14  O   UNL     1       2.307   4.528  19.959  0.00  0.00    +0.000 OA
ENDBRANCH   1  14
BRANCH   6  15
ATOM     15  O   UNL     1       3.074   5.643  17.410  0.00  0.00    +0.000 OA
ATOM     16  C   UNL     1       4.470   5.365  17.364  0.00  0.00    +0.000 C 
ENDBRANCH   6  15
BRANCH   9  17
ATOM     17  C   UNL     1      -0.824  10.679  18.076  0.00  0.00    +0.000 C 
BRANCH  17  18
ATOM     18  C   UNL     1      -1.821   9.614  17.637  0.00  0.00    +0.000 C 
BRANCH  18  19
ATOM     19  C   UNL     1      -3.088  10.251  17.048  0.00  0.00    +0.000 C 
BRANCH  19  20
ATOM     20  C   UNL     1      -4.349  10.111  17.923  0.00  0.00    +0.000 C 
BRANCH  20  21
ATOM     21  N   UNL     1      -5.273  11.241  17.786  0.00  0.00    +0.000 NA
ATOM     22  C   UNL     1      -6.625  10.939  18.333  0.00  0.00    +0.000 C 
ATOM     23  C   UNL     1      -6.719  10.902  19.881  0.00  0.00    +0.000 C 
ATOM     24  N   UNL     1      -6.260  12.204  20.370  0.00  0.00    +0.000 N 
ATOM     25  C   UNL     1      -6.685  12.609  21.626  0.00  0.00    +0.000 A 
ATOM     26  C   UNL     1      -6.731  13.982  21.892  0.00  0.00    +0.000 A 
ATOM     27  C   UNL     1      -7.235  14.444  23.103  0.00  0.00    +0.000 A 
ATOM     28  C   UNL     1      -7.676  13.525  24.038  0.00  0.00    +0.000 A 
ATOM     29  C   UNL     1      -7.601  12.183  23.709  0.00  0.00    +0.000 A 
ATOM     30  N   UNL     1      -7.129  11.712  22.525  0.00  0.00    +0.000 NA
ATOM     31  C   UNL     1      -4.875  12.512  19.995  0.00  0.00    +0.000 C 
ATOM     32  C   UNL     1      -4.750  12.465  18.450  0.00  0.00    +0.000 C 
ENDBRANCH  20  21
ENDBRANCH  19  20
ENDBRANCH  18  19
ENDBRANCH  17  18
ENDBRANCH   9  17
TORSDOF 7
ENDMDL
MODEL 6
REMARK VINA RESULT:      -7.8      5.123     10.682
REMARK  Name = 
REMARK  9 active torsions:
REMARK  status: ('A' for Active; 'I' for Inactive)
REMARK    1  A    between atoms: C_1  and  O_2
REMARK    2  A    between atoms: O_2  and  C_3
REMARK    3  A    between atoms: C_8  and  O_9
REMARK    4  A    between atoms: O_9  and  C_10
REMARK    5  A    between atoms: N_13  and  C_14
REMARK    6  A    between atoms: C_14  and  C_15
REMARK    7  A    between atoms: C_15  and  C_16
REMARK    8  A    between atoms: C_16  and  C_17
REMARK    9  A    between atoms: C_17  and  N_18
REMARK                            x       y       z     vdW  Elec       q    Type
REMARK                         _______ _______ _______ _____ _____    ______ ____
ROOT
ATOM      1  C   UNL     1       6.723   5.156  15.775  0.00  0.00    +0.000 A 
ATOM      2  C   UNL     1       5.754   4.149  15.887  0.00  0.00    +0.000 A 
ATOM      3  C   UNL     1       4.904   4.054  17.001  0.00  0.00    +0.000 A 
ATOM      4  C   UNL     1       5.036   5.014  18.009  0.00  0.00    +0.000 A 
ATOM      5  C   UNL     1       6.043   5.996  17.925  0.00  0.00    +0.000 A 
ATOM      6  C   UNL     1       6.884   6.089  16.811  0.00  0.00    +0.000 A 
ATOM      7  C   UNL     1       4.055   5.216  19.117  0.00  0.00    +0.000 C 
ATOM      8  O   UNL     1       4.436   5.675  20.189  0.00  0.00    +0.000 OA
ATOM      9  N   UNL     1       2.724   5.202  18.721  0.00  0.00    +0.000 N 
ATOM     10  C   UNL     1       2.049   3.960  18.380  0.00  0.00    +0.000 C 
ATOM     11  C   UNL     1       2.467   3.438  17.016  0.00  0.00    +0.000 C 
ATOM     12  C   UNL     1       3.902   2.934  17.046  0.00  0.00    +0.000 C 
ENDROOT
BRANCH   1  14
ATOM     13  C   UNL     1       6.781   4.361  13.528  0.00  0.00    +0.000 C 
ATOM     14  O   UNL     1       7.366   5.135  14.564  0.00  0.00    +0.000 OA
ENDBRANCH   1  14
BRANCH   6  15
ATOM     15  O   UNL     1       7.814   7.077  16.652  0.00  0.00    +0.000 OA
ATOM     16  C   UNL     1       7.809   8.171  17.562  0.00  0.00    +0.000 C 
ENDBRANCH   6  15
BRANCH   9  17
ATOM     17  C   UNL     1       1.909   6.363  19.025  0.00  0.00    +0.000 C 
BRANCH  17  18
ATOM     18  C   UNL     1       2.167   7.579  18.142  0.00  0.00    +0.000 C 
BRANCH  18  19
ATOM     19  C   UNL     1       1.903   8.884  18.906  0.00  0.00    +0.000 C 
BRANCH  19  20
ATOM     20  C   UNL     1       0.728   9.722  18.367  0.00  0.00    +0.000 C 
BRANCH  20  21
ATOM     21  N   UNL     1       0.045  10.494  19.410  0.00  0.00    +0.000 NA
ATOM     22  C   UNL     1       0.989  11.312  20.221  0.00  0.00    +0.000 C 
ATOM     23  C   UNL     1       1.561  12.565  19.507  0.00  0.00    +0.000 C 
ATOM     24  N   UNL     1       0.418  13.382  19.094  0.00  0.00    +0.000 N 
ATOM     25  C   UNL     1       0.633  14.736  18.884  0.00  0.00    +0.000 A 
ATOM     26  C   UNL     1      -0.455  15.603  19.023  0.00  0.00    +0.000 A 
ATOM     27  C   UNL     1      -0.275  16.977  18.912  0.00  0.00    +0.000 A 
ATOM     28  C   UNL     1       0.993  17.466  18.652  0.00  0.00    +0.000 A 
ATOM     29  C   UNL     1       2.023  16.552  18.525  0.00  0.00    +0.000 A 
ATOM     30  N   UNL     1       1.871  15.207  18.648  0.00  0.00    +0.000 NA
ATOM     31  C   UNL     1      -0.488  12.692  18.169  0.00  0.00    +0.000 C 
ATOM     32  C   UNL     1      -0.997  11.390  18.841  0.00  0.00    +0.000 C 
ENDBRANCH  20  21
ENDBRANCH  19  20
ENDBRANCH  18  19
ENDBRANCH  17  18
ENDBRANCH   9  17
TORSDOF 7
ENDMDL
MODEL 7
REMARK VINA RESULT:      -7.7      6.025     10.362
REMARK  Name = 
REMARK  9 active torsions:
REMARK  status: ('A' for Active; 'I' for Inactive)
REMARK    1  A    between atoms: C_1  and  O_2
REMARK    2  A    between atoms: O_2  and  C_3
REMARK    3  A    between atoms: C_8  and  O_9
REMARK    4  A    between atoms: O_9  and  C_10
REMARK    5  A    between atoms: N_13  and  C_14
REMARK    6  A    between atoms: C_14  and  C_15
REMARK    7  A    between atoms: C_15  and  C_16
REMARK    8  A    between atoms: C_16  and  C_17
REMARK    9  A    between atoms: C_17  and  N_18
REMARK                            x       y       z     vdW  Elec       q    Type
REMARK                         _______ _______ _______ _____ _____    ______ ____
ROOT
ATOM      1  C   UNL     1       6.798   5.213  15.759  0.00  0.00    +0.000 A 
ATOM      2  C   UNL     1       5.852   4.181  15.839  0.00  0.00    +0.000 A 
ATOM      3  C   UNL     1       5.003   4.034  16.947  0.00  0.00    +0.000 A 
ATOM      4  C   UNL     1       5.111   4.966  17.984  0.00  0.00    +0.000 A 
ATOM      5  C   UNL     1       6.096   5.973  17.931  0.00  0.00    +0.000 A 
ATOM      6  C   UNL     1       6.936   6.118  16.822  0.00  0.00    +0.000 A 
ATOM      7  C   UNL     1       4.124   5.113  19.095  0.00  0.00    +0.000 C 
ATOM      8  O   UNL     1       4.492   5.549  20.181  0.00  0.00    +0.000 OA
ATOM      9  N   UNL     1       2.794   5.081  18.696  0.00  0.00    +0.000 N 
ATOM     10  C   UNL     1       2.148   3.835  18.317  0.00  0.00    +0.000 C 
ATOM     11  C   UNL     1       2.580   3.363  16.939  0.00  0.00    +0.000 C 
ATOM     12  C   UNL     1       4.026   2.891  16.958  0.00  0.00    +0.000 C 
ENDROOT
BRANCH   1  14
ATOM     13  C   UNL     1       6.850   4.529  13.476  0.00  0.00    +0.000 C 
ATOM     14  O   UNL     1       7.444   5.242  14.549  0.00  0.00    +0.000 OA
ENDBRANCH   1  14
BRANCH   6  15
ATOM     15  O   UNL     1       7.844   7.131  16.694  0.00  0.00    +0.000 OA
ATOM     16  C   UNL     1       7.768   8.232  17.593  0.00  0.00    +0.000 C 
ENDBRANCH   6  15
BRANCH   9  17
ATOM     17  C   UNL     1       1.953   6.214  19.032  0.00  0.00    +0.000 C 
BRANCH  17  18
ATOM     18  C   UNL     1       2.308   7.513  18.317  0.00  0.00    +0.000 C 
BRANCH  18  19
ATOM     19  C   UNL     1       1.906   8.734  19.157  0.00  0.00    +0.000 C 
BRANCH  19  20
ATOM     20  C   UNL     1       1.414   9.946  18.341  0.00  0.00    +0.000 C 
BRANCH  20  21
ATOM     21  N   UNL     1       1.388  11.190  19.118  0.00  0.00    +0.000 NA
ATOM     22  C   UNL     1       0.587  12.256  18.456  0.00  0.00    +0.000 C 
ATOM     23  C   UNL     1      -0.951  12.056  18.506  0.00  0.00    +0.000 C 
ATOM     24  N   UNL     1      -1.324  11.954  19.919  0.00  0.00    +0.000 N 
ATOM     25  C   UNL     1      -2.632  12.255  20.266  0.00  0.00    +0.000 A 
ATOM     26  C   UNL     1      -2.882  12.686  21.573  0.00  0.00    +0.000 A 
ATOM     27  C   UNL     1      -4.161  13.086  21.946  0.00  0.00    +0.000 A 
ATOM     28  C   UNL     1      -5.176  13.040  21.007  0.00  0.00    +0.000 A 
ATOM     29  C   UNL     1      -4.858  12.603  19.734  0.00  0.00    +0.000 A 
ATOM     30  N   UNL     1      -3.613  12.225  19.345  0.00  0.00    +0.000 NA
ATOM     31  C   UNL     1      -0.685  10.828  20.610  0.00  0.00    +0.000 C 
ATOM     32  C   UNL     1       0.854  10.971  20.489  0.00  0.00    +0.000 C 
ENDBRANCH  20  21
ENDBRANCH  19  20
ENDBRANCH  18  19
ENDBRANCH  17  18
ENDBRANCH   9  17
TORSDOF 7
ENDMDL
MODEL 8
REMARK VINA RESULT:      -7.7      6.146      7.759
REMARK  Name = 
REMARK  9 active torsions:
REMARK  status: ('A' for Active; 'I' for Inactive)
REMARK    1  A    between atoms: C_1  and  O_2
REMARK    2  A    between atoms: O_2  and  C_3
REMARK    3  A    between atoms: C_8  and  O_9
REMARK    4  A    between atoms: O_9  and  C_10
REMARK    5  A    between atoms: N_13  and  C_14
REMARK    6  A    between atoms: C_14  and  C_15
REMARK    7  A    between atoms: C_15  and  C_16
REMARK    8  A    between atoms: C_16  and  C_17
REMARK    9  A    between atoms: C_17  and  N_18
REMARK                            x       y       z     vdW  Elec       q    Type
REMARK                         _______ _______ _______ _____ _____    ______ ____
ROOT
ATOM      1  C   UNL     1      -1.358  11.387  18.587  0.00  0.00    +0.000 A 
ATOM      2  C   UNL     1      -0.257  10.803  17.945  0.00  0.00    +0.000 A 
ATOM      3  C   UNL     1       0.741  10.116  18.654  0.00  0.00    +0.000 A 
ATOM      4  C   UNL     1       0.604  10.010  20.041  0.00  0.00    +0.000 A 
ATOM      5  C   UNL     1      -0.474  10.639  20.697  0.00  0.00    +0.000 A 
ATOM      6  C   UNL     1      -1.468  11.319  19.984  0.00  0.00    +0.000 A 
ATOM      7  C   UNL     1       1.418   9.103  20.904  0.00  0.00    +0.000 C 
ATOM      8  O   UNL     1       1.613   9.396  22.079  0.00  0.00    +0.000 OA
ATOM      9  N   UNL     1       1.587   7.820  20.399  0.00  0.00    +0.000 N 
ATOM     10  C   UNL     1       2.499   7.555  19.298  0.00  0.00    +0.000 C 
ATOM     11  C   UNL     1       1.934   8.014  17.964  0.00  0.00    +0.000 C 
ATOM     12  C   UNL     1       1.895   9.532  17.887  0.00  0.00    +0.000 C 
ENDROOT
BRANCH   1  14
ATOM     13  C   UNL     1      -2.536  11.163  16.527  0.00  0.00    +0.000 C 
ATOM     14  O   UNL     1      -2.267  11.910  17.703  0.00  0.00    +0.000 OA
ENDBRANCH   1  14
BRANCH   6  15
ATOM     15  O   UNL     1      -2.571  11.868  20.573  0.00  0.00    +0.000 OA
ATOM     16  C   UNL     1      -2.610  13.277  20.769  0.00  0.00    +0.000 C 
ENDBRANCH   6  15
BRANCH   9  17
ATOM     17  C   UNL     1       1.157   6.702  21.216  0.00  0.00    +0.000 C 
BRANCH  17  18
ATOM     18  C   UNL     1       1.913   5.400  20.976  0.00  0.00    +0.000 C 
BRANCH  18  19
ATOM     19  C   UNL     1       0.974   4.303  20.454  0.00  0.00    +0.000 C 
BRANCH  19  20
ATOM     20  C   UNL     1       1.561   2.878  20.492  0.00  0.00    +0.000 C 
BRANCH  20  21
ATOM     21  N   UNL     1       1.654   2.259  19.165  0.00  0.00    +0.000 NA
ATOM     22  C   UNL     1       1.307   3.208  18.071  0.00  0.00    +0.000 C 
ATOM     23  C   UNL     1       2.378   4.289  17.769  0.00  0.00    +0.000 C 
ATOM     24  N   UNL     1       3.621   3.584  17.446  0.00  0.00    +0.000 N 
ATOM     25  C   UNL     1       4.568   4.255  16.688  0.00  0.00    +0.000 A 
ATOM     26  C   UNL     1       5.464   3.493  15.932  0.00  0.00    +0.000 A 
ATOM     27  C   UNL     1       6.374   4.117  15.085  0.00  0.00    +0.000 A 
ATOM     28  C   UNL     1       6.381   5.499  15.014  0.00  0.00    +0.000 A 
ATOM     29  C   UNL     1       5.468   6.190  15.790  0.00  0.00    +0.000 A 
ATOM     30  N   UNL     1       4.560   5.598  16.609  0.00  0.00    +0.000 NA
ATOM     31  C   UNL     1       4.110   2.736  18.539  0.00  0.00    +0.000 C 
ATOM     32  C   UNL     1       3.010   1.707  18.909  0.00  0.00    +0.000 C 
ENDBRANCH  20  21
ENDBRANCH  19  20
ENDBRANCH  18  19
ENDBRANCH  17  18
ENDBRANCH   9  17
TORSDOF 7
ENDMDL
MODEL 9
REMARK VINA RESULT:      -7.7      6.009     10.973
REMARK  Name = 
REMARK  9 active torsions:
REMARK  status: ('A' for Active; 'I' for Inactive)
REMARK    1  A    between atoms: C_1  and  O_2
REMARK    2  A    between atoms: O_2  and  C_3
REMARK    3  A    between atoms: C_8  and  O_9
REMARK    4  A    between atoms: O_9  and  C_10
REMARK    5  A    between atoms: N_13  and  C_14
REMARK    6  A    between atoms: C_14  and  C_15
REMARK    7  A    between atoms: C_15  and  C_16
REMARK    8  A    between atoms: C_16  and  C_17
REMARK    9  A    between atoms: C_17  and  N_18
REMARK                            x       y       z     vdW  Elec       q    Type
REMARK                         _______ _______ _______ _____ _____    ______ ____
ROOT
ATOM      1  C   UNL     1       6.374   4.546  16.945  0.00  0.00    +0.000 A 
ATOM      2  C   UNL     1       5.141   4.038  16.511  0.00  0.00    +0.000 A 
ATOM      3  C   UNL     1       4.142   3.637  17.412  0.00  0.00    +0.000 A 
ATOM      4  C   UNL     1       4.399   3.773  18.779  0.00  0.00    +0.000 A 
ATOM      5  C   UNL     1       5.656   4.234  19.221  0.00  0.00    +0.000 A 
ATOM      6  C   UNL     1       6.647   4.636  18.319  0.00  0.00    +0.000 A 
ATOM      7  C   UNL     1       3.366   3.648  19.850  0.00  0.00    +0.000 C 
ATOM      8  O   UNL     1       3.698   3.283  20.974  0.00  0.00    +0.000 OA
ATOM      9  N   UNL     1       2.170   4.300  19.581  0.00  0.00    +0.000 N 
ATOM     10  C   UNL     1       1.214   3.764  18.627  0.00  0.00    +0.000 C 
ATOM     11  C   UNL     1       1.660   3.974  17.190  0.00  0.00    +0.000 C 
ATOM     12  C   UNL     1       2.853   3.091  16.860  0.00  0.00    +0.000 C 
ENDROOT
BRANCH   1  14
ATOM     13  C   UNL     1       6.693   4.734  14.591  0.00  0.00    +0.000 C 
ATOM     14  O   UNL     1       7.160   4.979  15.908  0.00  0.00    +0.000 OA
ENDBRANCH   1  14
BRANCH   6  15
ATOM     15  O   UNL     1       7.844   5.168  18.706  0.00  0.00    +0.000 OA
ATOM     16  C   UNL     1       8.011   6.580  18.656  0.00  0.00    +0.000 C 
ENDBRANCH   6  15
BRANCH   9  17
ATOM     17  C   UNL     1       1.707   5.295  20.530  0.00  0.00    +0.000 C 
BRANCH  17  18
ATOM     18  C   UNL     1       1.915   6.742  20.098  0.00  0.00    +0.000 C 
BRANCH  18  19
ATOM     19  C   UNL     1       1.484   7.717  21.204  0.00  0.00    +0.000 C 
BRANCH  19  20
ATOM     20  C   UNL     1       0.878   9.041  20.698  0.00  0.00    +0.000 C 
BRANCH  20  21
ATOM     21  N   UNL     1       1.100  10.163  21.617  0.00  0.00    +0.000 NA
ATOM     22  C   UNL     1       0.690  11.468  21.028  0.00  0.00    +0.000 C 
ATOM     23  C   UNL     1      -0.842  11.698  20.933  0.00  0.00    +0.000 C 
ATOM     24  N   UNL     1      -1.380  11.569  22.289  0.00  0.00    +0.000 N 
ATOM     25  C   UNL     1      -2.590  12.186  22.566  0.00  0.00    +0.000 A 
ATOM     26  C   UNL     1      -2.857  12.542  23.892  0.00  0.00    +0.000 A 
ATOM     27  C   UNL     1      -4.015  13.244  24.210  0.00  0.00    +0.000 A 
ATOM     28  C   UNL     1      -4.897  13.571  23.195  0.00  0.00    +0.000 A 
ATOM     29  C   UNL     1      -4.571  13.187  21.907  0.00  0.00    +0.000 A 
ATOM     30  N   UNL     1      -3.437  12.517  21.574  0.00  0.00    +0.000 NA
ATOM     31  C   UNL     1      -1.144  10.250  22.886  0.00  0.00    +0.000 C 
ATOM     32  C   UNL     1       0.381   9.971  22.904  0.00  0.00    +0.000 C 
ENDBRANCH  20  21
ENDBRANCH  19  20
ENDBRANCH  18  19
ENDBRANCH  17  18
ENDBRANCH   9  17
TORSDOF 7
ENDMDL
