MODEL 1
REMARK VINA RESULT:      -8.3      0.000      0.000
REMARK  Name = 
REMARK  7 active torsions:
REMARK  status: ('A' for Active; 'I' for Inactive)
REMARK    1  A    between atoms: C_2  and  C_22
REMARK    2  A    between atoms: N_3  and  C_4
REMARK    3  A    between atoms: C_7  and  S_8
REMARK    4  A    between atoms: S_8  and  N_11
REMARK    5  A    between atoms: N_11  and  C_12
REMARK    6  A    between atoms: C_12  and  C_13
REMARK    7  A    between atoms: C_13  and  C_14
REMARK                            x       y       z     vdW  Elec       q    Type
REMARK                         _______ _______ _______ _____ _____    ______ ____
ROOT
ATOM      1  C   UNL     1       2.346   7.693  18.335  0.00  0.00    +0.000 A 
ATOM      2  C   UNL     1       3.283   7.791  17.303  0.00  0.00    +0.000 A 
ATOM      3  C   UNL     1       4.427   6.996  17.300  0.00  0.00    +0.000 A 
ATOM      4  C   UNL     1       4.667   6.124  18.361  0.00  0.00    +0.000 A 
ATOM      5  C   UNL     1       3.758   6.028  19.417  0.00  0.00    +0.000 A 
ATOM      6  C   UNL     1       2.600   6.819  19.403  0.00  0.00    +0.000 A 
ENDROOT
BRANCH   1   9
ATOM      7  O   UNL     1       1.984  10.613  18.181  0.00  0.00    +0.000 OA
ATOM      8  C   UNL     1       1.056   9.822  18.300  0.00  0.00    +0.000 C 
ATOM      9  N   UNL     1       1.147   8.439  18.347  0.00  0.00    +0.000 N 
ATOM     10  H   UNL     1       0.289   7.913  18.243  0.00  0.00    +0.000 HD
BRANCH   8  11
ATOM     11  C   UNL     1      -0.321  10.378  18.333  0.00  0.00    +0.000 A 
ATOM     12  C   UNL     1      -0.622  11.337  19.308  0.00  0.00    +0.000 A 
ATOM     13  C   UNL     1      -1.906  11.873  19.391  0.00  0.00    +0.000 A 
ATOM     14  C   UNL     1      -2.893  11.446  18.505  0.00  0.00    +0.000 A 
ATOM     15  C   UNL     1      -2.604  10.477  17.543  0.00  0.00    +0.000 A 
ATOM     16  C   UNL     1      -1.319   9.936  17.457  0.00  0.00    +0.000 A 
ENDBRANCH   8  11
ENDBRANCH   1   9
BRANCH   4  17
ATOM     17  S   UNL     1       6.147   5.146  18.359  0.00  0.00    +0.000 S 
ATOM     18  O   UNL     1       7.005   5.675  17.324  0.00  0.00    +0.000 OA
ATOM     19  O   UNL     1       6.608   4.974  19.720  0.00  0.00    +0.000 OA
BRANCH  17  20
ATOM     20  N   UNL     1       5.613   3.647  17.800  0.00  0.00    +0.000 NA
ATOM     21  H   UNL     1       5.850   2.920  18.477  0.00  0.00    +0.000 HD
BRANCH  20  22
ATOM     22  C   UNL     1       4.277   3.541  17.183  0.00  0.00    +0.000 C 
BRANCH  22  23
ATOM     23  C   UNL     1       3.475   2.354  17.711  0.00  0.00    +0.000 C 
BRANCH  23  24
ATOM     24  C   UNL     1       2.725   2.697  18.966  0.00  0.00    +0.000 A 
ATOM     25  C   UNL     1       3.319   2.465  20.215  0.00  0.00    +0.000 A 
ATOM     26  C   UNL     1       2.620   2.740  21.387  0.00  0.00    +0.000 A 
ATOM     27  C   UNL     1       1.324   3.247  21.319  0.00  0.00    +0.000 A 
ATOM     28  C   UNL     1       0.730   3.489  20.078  0.00  0.00    +0.000 A 
ATOM     29  C   UNL     1       1.430   3.218  18.904  0.00  0.00    +0.000 A 
ENDBRANCH  23  24
ENDBRANCH  22  23
ENDBRANCH  20  22
ENDBRANCH  17  20
ENDBRANCH   4  17
TORSDOF 7
ENDMDL
MODEL 2
REMARK VINA RESULT:      -8.2      0.824      1.561
REMARK  Name = 
REMARK  7 active torsions:
REMARK  status: ('A' for Active; 'I' for Inactive)
REMARK    1  A    between atoms: C_2  and  C_22
REMARK    2  A    between atoms: N_3  and  C_4
REMARK    3  A    between atoms: C_7  and  S_8
REMARK    4  A    between atoms: S_8  and  N_11
REMARK    5  A    between atoms: N_11  and  C_12
REMARK    6  A    between atoms: C_12  and  C_13
REMARK    7  A    between atoms: C_13  and  C_14
REMARK                            x       y       z     vdW  Elec       q    Type
REMARK                         _______ _______ _______ _____ _____    ______ ____
ROOT
ATOM      1  C   UNL     1       2.352   7.740  18.388  0.00  0.00    +0.000 A 
ATOM      2  C   UNL     1       2.504   6.722  19.332  0.00  0.00    +0.000 A 
ATOM      3  C   UNL     1       3.593   5.855  19.277  0.00  0.00    +0.000 A 
ATOM      4  C   UNL     1       4.520   5.972  18.243  0.00  0.00    +0.000 A 
ATOM      5  C   UNL     1       4.376   6.966  17.273  0.00  0.00    +0.000 A 
ATOM      6  C   UNL     1       3.286   7.846  17.347  0.00  0.00    +0.000 A 
ENDROOT
BRANCH   1   9
ATOM      7  O   UNL     1       1.394   9.317  20.686  0.00  0.00    +0.000 OA
ATOM      8  C   UNL     1       0.881   9.362  19.573  0.00  0.00    +0.000 C 
ATOM      9  N   UNL     1       1.295   8.676  18.441  0.00  0.00    +0.000 N 
ATOM     10  H   UNL     1       0.905   8.964  17.554  0.00  0.00    +0.000 HD
BRANCH   8  11
ATOM     11  C   UNL     1      -0.263  10.289  19.382  0.00  0.00    +0.000 A 
ATOM     12  C   UNL     1      -0.621  11.125  20.447  0.00  0.00    +0.000 A 
ATOM     13  C   UNL     1      -1.700  11.999  20.321  0.00  0.00    +0.000 A 
ATOM     14  C   UNL     1      -2.428  12.032  19.133  0.00  0.00    +0.000 A 
ATOM     15  C   UNL     1      -2.088  11.188  18.075  0.00  0.00    +0.000 A 
ATOM     16  C   UNL     1      -1.008  10.310  18.197  0.00  0.00    +0.000 A 
ENDBRANCH   8  11
ENDBRANCH   1   9
BRANCH   4  17
ATOM     17  S   UNL     1       5.881   4.836  18.167  0.00  0.00    +0.000 S 
ATOM     18  O   UNL     1       6.986   5.536  17.555  0.00  0.00    +0.000 OA
ATOM     19  O   UNL     1       6.015   4.164  19.442  0.00  0.00    +0.000 OA
BRANCH  17  20
ATOM     20  N   UNL     1       5.366   3.699  17.034  0.00  0.00    +0.000 NA
ATOM     21  H   UNL     1       6.051   2.945  16.964  0.00  0.00    +0.000 HD
BRANCH  20  22
ATOM     22  C   UNL     1       3.949   3.284  17.019  0.00  0.00    +0.000 C 
BRANCH  22  23
ATOM     23  C   UNL     1       3.678   2.073  17.907  0.00  0.00    +0.000 C 
BRANCH  23  24
ATOM     24  C   UNL     1       2.824   2.426  19.091  0.00  0.00    +0.000 A 
ATOM     25  C   UNL     1       1.502   2.852  18.890  0.00  0.00    +0.000 A 
ATOM     26  C   UNL     1       0.711   3.221  19.974  0.00  0.00    +0.000 A 
ATOM     27  C   UNL     1       1.234   3.169  21.264  0.00  0.00    +0.000 A 
ATOM     28  C   UNL     1       2.546   2.737  21.472  0.00  0.00    +0.000 A 
ATOM     29  C   UNL     1       3.338   2.363  20.388  0.00  0.00    +0.000 A 
ENDBRANCH  23  24
ENDBRANCH  22  23
ENDBRANCH  20  22
ENDBRANCH  17  20
ENDBRANCH   4  17
TORSDOF 7
ENDMDL
MODEL 3
REMARK VINA RESULT:      -8.2      0.795      1.529
REMARK  Name = 
REMARK  7 active torsions:
REMARK  status: ('A' for Active; 'I' for Inactive)
REMARK    1  A    between atoms: C_2  and  C_22
REMARK    2  A    between atoms: N_3  and  C_4
REMARK    3  A    between atoms: C_7  and  S_8
REMARK    4  A    between atoms: S_8  and  N_11
REMARK    5  A    between atoms: N_11  and  C_12
REMARK    6  A    between atoms: C_12  and  C_13
REMARK    7  A    between atoms: C_13  and  C_14
REMARK                            x       y       z     vdW  Elec       q    Type
REMARK                         _______ _______ _______ _____ _____    ______ ____
ROOT
ATOM      1  C   UNL     1       2.391   7.830  18.374  0.00  0.00    +0.000 A 
ATOM      2  C   UNL     1       3.370   7.908  17.381  0.00  0.00    +0.000 A 
ATOM      3  C   UNL     1       4.407   6.979  17.327  0.00  0.00    +0.000 A 
ATOM      4  C   UNL     1       4.498   5.985  18.300  0.00  0.00    +0.000 A 
ATOM      5  C   UNL     1       3.545   5.903  19.318  0.00  0.00    +0.000 A 
ATOM      6  C   UNL     1       2.495   6.832  19.354  0.00  0.00    +0.000 A 
ENDROOT
BRANCH   1   9
ATOM      7  O   UNL     1       1.401   9.402  20.661  0.00  0.00    +0.000 OA
ATOM      8  C   UNL     1       0.867   9.403  19.558  0.00  0.00    +0.000 C 
ATOM      9  N   UNL     1       1.293   8.716  18.431  0.00  0.00    +0.000 N 
ATOM     10  H   UNL     1       0.874   8.971  17.546  0.00  0.00    +0.000 HD
BRANCH   8  11
ATOM     11  C   UNL     1      -0.321  10.274  19.371  0.00  0.00    +0.000 A 
ATOM     12  C   UNL     1      -1.039  10.165  18.173  0.00  0.00    +0.000 A 
ATOM     13  C   UNL     1      -2.150  10.975  17.944  0.00  0.00    +0.000 A 
ATOM     14  C   UNL     1      -2.540  11.902  18.909  0.00  0.00    +0.000 A 
ATOM     15  C   UNL     1      -1.818  12.028  20.097  0.00  0.00    +0.000 A 
ATOM     16  C   UNL     1      -0.704  11.219  20.330  0.00  0.00    +0.000 A 
ENDBRANCH   8  11
ENDBRANCH   1   9
BRANCH   4  17
ATOM     17  S   UNL     1       5.845   4.833  18.238  0.00  0.00    +0.000 S 
ATOM     18  O   UNL     1       6.965   5.520  17.637  0.00  0.00    +0.000 OA
ATOM     19  O   UNL     1       5.958   4.159  19.513  0.00  0.00    +0.000 OA
BRANCH  17  20
ATOM     20  N   UNL     1       5.328   3.702  17.098  0.00  0.00    +0.000 NA
ATOM     21  H   UNL     1       5.979   2.917  17.069  0.00  0.00    +0.000 HD
BRANCH  20  22
ATOM     22  C   UNL     1       3.896   3.353  17.026  0.00  0.00    +0.000 C 
BRANCH  22  23
ATOM     23  C   UNL     1       3.549   2.109  17.838  0.00  0.00    +0.000 C 
BRANCH  23  24
ATOM     24  C   UNL     1       2.751   2.445  19.065  0.00  0.00    +0.000 A 
ATOM     25  C   UNL     1       1.421   2.870  18.933  0.00  0.00    +0.000 A 
ATOM     26  C   UNL     1       0.681   3.224  20.058  0.00  0.00    +0.000 A 
ATOM     27  C   UNL     1       1.266   3.157  21.321  0.00  0.00    +0.000 A 
ATOM     28  C   UNL     1       2.587   2.727  21.461  0.00  0.00    +0.000 A 
ATOM     29  C   UNL     1       3.327   2.367  20.336  0.00  0.00    +0.000 A 
ENDBRANCH  23  24
ENDBRANCH  22  23
ENDBRANCH  20  22
ENDBRANCH  17  20
ENDBRANCH   4  17
TORSDOF 7
ENDMDL
MODEL 4
REMARK VINA RESULT:      -8.1      0.397      1.015
REMARK  Name = 
REMARK  7 active torsions:
REMARK  status: ('A' for Active; 'I' for Inactive)
REMARK    1  A    between atoms: C_2  and  C_22
REMARK    2  A    between atoms: N_3  and  C_4
REMARK    3  A    between atoms: C_7  and  S_8
REMARK    4  A    between atoms: S_8  and  N_11
REMARK    5  A    between atoms: N_11  and  C_12
REMARK    6  A    between atoms: C_12  and  C_13
REMARK    7  A    between atoms: C_13  and  C_14
REMARK                            x       y       z     vdW  Elec       q    Type
REMARK                         _______ _______ _______ _____ _____    ______ ____
ROOT
ATOM      1  C   UNL     1       2.328   7.660  18.513  0.00  0.00    +0.000 A 
ATOM      2  C   UNL     1       2.644   6.714  19.491  0.00  0.00    +0.000 A 
ATOM      3  C   UNL     1       3.782   5.919  19.374  0.00  0.00    +0.000 A 
ATOM      4  C   UNL     1       4.593   6.033  18.247  0.00  0.00    +0.000 A 
ATOM      5  C   UNL     1       4.284   6.954  17.243  0.00  0.00    +0.000 A 
ATOM      6  C   UNL     1       3.146   7.763  17.378  0.00  0.00    +0.000 A 
ENDROOT
BRANCH   1   9
ATOM      7  O   UNL     1       2.195  10.565  18.040  0.00  0.00    +0.000 OA
ATOM      8  C   UNL     1       1.237   9.896  18.410  0.00  0.00    +0.000 C 
ATOM      9  N   UNL     1       1.217   8.525  18.622  0.00  0.00    +0.000 N 
ATOM     10  H   UNL     1       0.313   8.085  18.728  0.00  0.00    +0.000 HD
BRANCH   8  11
ATOM     11  C   UNL     1      -0.060  10.595  18.594  0.00  0.00    +0.000 A 
ATOM     12  C   UNL     1      -0.120  11.644  19.520  0.00  0.00    +0.000 A 
ATOM     13  C   UNL     1      -1.320  12.317  19.741  0.00  0.00    +0.000 A 
ATOM     14  C   UNL     1      -2.465  11.937  19.043  0.00  0.00    +0.000 A 
ATOM     15  C   UNL     1      -2.416  10.880  18.132  0.00  0.00    +0.000 A 
ATOM     16  C   UNL     1      -1.215  10.202  17.908  0.00  0.00    +0.000 A 
ENDBRANCH   8  11
ENDBRANCH   1   9
BRANCH   4  17
ATOM     17  S   UNL     1       6.018   4.987  18.096  0.00  0.00    +0.000 S 
ATOM     18  O   UNL     1       6.989   5.703  17.301  0.00  0.00    +0.000 OA
ATOM     19  O   UNL     1       6.348   4.438  19.393  0.00  0.00    +0.000 OA
BRANCH  17  20
ATOM     20  N   UNL     1       5.463   3.725  17.125  0.00  0.00    +0.000 NA
ATOM     21  H   UNL     1       6.044   2.897  17.268  0.00  0.00    +0.000 HD
BRANCH  20  22
ATOM     22  C   UNL     1       4.012   3.481  17.016  0.00  0.00    +0.000 C 
BRANCH  22  23
ATOM     23  C   UNL     1       3.564   2.231  17.768  0.00  0.00    +0.000 C 
BRANCH  23  24
ATOM     24  C   UNL     1       2.781   2.571  19.004  0.00  0.00    +0.000 A 
ATOM     25  C   UNL     1       3.395   2.480  20.262  0.00  0.00    +0.000 A 
ATOM     26  C   UNL     1       2.671   2.752  21.419  0.00  0.00    +0.000 A 
ATOM     27  C   UNL     1       1.329   3.115  21.327  0.00  0.00    +0.000 A 
ATOM     28  C   UNL     1       0.713   3.215  20.078  0.00  0.00    +0.000 A 
ATOM     29  C   UNL     1       1.438   2.948  18.918  0.00  0.00    +0.000 A 
ENDBRANCH  23  24
ENDBRANCH  22  23
ENDBRANCH  20  22
ENDBRANCH  17  20
ENDBRANCH   4  17
TORSDOF 7
ENDMDL
MODEL 5
REMARK VINA RESULT:      -8.0      1.927      2.392
REMARK  Name = 
REMARK  7 active torsions:
REMARK  status: ('A' for Active; 'I' for Inactive)
REMARK    1  A    between atoms: C_2  and  C_22
REMARK    2  A    between atoms: N_3  and  C_4
REMARK    3  A    between atoms: C_7  and  S_8
REMARK    4  A    between atoms: S_8  and  N_11
REMARK    5  A    between atoms: N_11  and  C_12
REMARK    6  A    between atoms: C_12  and  C_13
REMARK    7  A    between atoms: C_13  and  C_14
REMARK                            x       y       z     vdW  Elec       q    Type
REMARK                         _______ _______ _______ _____ _____    ______ ____
ROOT
ATOM      1  C   UNL     1       1.213   8.789  19.577  0.00  0.00    +0.000 A 
ATOM      2  C   UNL     1       1.840   9.048  18.357  0.00  0.00    +0.000 A 
ATOM      3  C   UNL     1       2.792   8.170  17.843  0.00  0.00    +0.000 A 
ATOM      4  C   UNL     1       3.160   7.042  18.575  0.00  0.00    +0.000 A 
ATOM      5  C   UNL     1       2.566   6.776  19.811  0.00  0.00    +0.000 A 
ATOM      6  C   UNL     1       1.595   7.656  20.311  0.00  0.00    +0.000 A 
ENDROOT
BRANCH   1   9
ATOM      7  O   UNL     1       1.393  10.754  21.765  0.00  0.00    +0.000 OA
ATOM      8  C   UNL     1       0.355  10.507  21.161  0.00  0.00    +0.000 C 
ATOM      9  N   UNL     1       0.202   9.622  20.105  0.00  0.00    +0.000 N 
ATOM     10  H   UNL     1      -0.660   9.673  19.578  0.00  0.00    +0.000 HD
BRANCH   8  11
ATOM     11  C   UNL     1      -0.859  11.272  21.543  0.00  0.00    +0.000 A 
ATOM     12  C   UNL     1      -1.289  11.208  22.875  0.00  0.00    +0.000 A 
ATOM     13  C   UNL     1      -2.435  11.893  23.276  0.00  0.00    +0.000 A 
ATOM     14  C   UNL     1      -3.159  12.635  22.345  0.00  0.00    +0.000 A 
ATOM     15  C   UNL     1      -2.746  12.687  21.012  0.00  0.00    +0.000 A 
ATOM     16  C   UNL     1      -1.599  12.001  20.605  0.00  0.00    +0.000 A 
ENDBRANCH   8  11
ENDBRANCH   1   9
BRANCH   4  17
ATOM     17  S   UNL     1       4.401   5.954  17.924  0.00  0.00    +0.000 S 
ATOM     18  O   UNL     1       5.063   6.659  16.850  0.00  0.00    +0.000 OA
ATOM     19  O   UNL     1       5.140   5.362  19.018  0.00  0.00    +0.000 OA
BRANCH  17  20
ATOM     20  N   UNL     1       3.495   4.736  17.191  0.00  0.00    +0.000 NA
ATOM     21  H   UNL     1       3.083   5.085  16.324  0.00  0.00    +0.000 HD
BRANCH  20  22
ATOM     22  C   UNL     1       4.037   3.364  17.140  0.00  0.00    +0.000 C 
BRANCH  22  23
ATOM     23  C   UNL     1       3.047   2.317  17.642  0.00  0.00    +0.000 C 
BRANCH  23  24
ATOM     24  C   UNL     1       2.494   2.671  18.993  0.00  0.00    +0.000 A 
ATOM     25  C   UNL     1       3.291   2.499  20.135  0.00  0.00    +0.000 A 
ATOM     26  C   UNL     1       2.780   2.783  21.398  0.00  0.00    +0.000 A 
ATOM     27  C   UNL     1       1.470   3.240  21.528  0.00  0.00    +0.000 A 
ATOM     28  C   UNL     1       0.674   3.422  20.395  0.00  0.00    +0.000 A 
ATOM     29  C   UNL     1       1.186   3.142  19.130  0.00  0.00    +0.000 A 
ENDBRANCH  23  24
ENDBRANCH  22  23
ENDBRANCH  20  22
ENDBRANCH  17  20
ENDBRANCH   4  17
TORSDOF 7
ENDMDL
MODEL 6
REMARK VINA RESULT:      -7.9      1.985      2.762
REMARK  Name = 
REMARK  7 active torsions:
REMARK  status: ('A' for Active; 'I' for Inactive)
REMARK    1  A    between atoms: C_2  and  C_22
REMARK    2  A    between atoms: N_3  and  C_4
REMARK    3  A    between atoms: C_7  and  S_8
REMARK    4  A    between atoms: S_8  and  N_11
REMARK    5  A    between atoms: N_11  and  C_12
REMARK    6  A    between atoms: C_12  and  C_13
REMARK    7  A    between atoms: C_13  and  C_14
REMARK                            x       y       z     vdW  Elec       q    Type
REMARK                         _______ _______ _______ _____ _____    ______ ____
ROOT
ATOM      1  C   UNL     1       1.564   8.378  19.461  0.00  0.00    +0.000 A 
ATOM      2  C   UNL     1       1.891   7.154  20.049  0.00  0.00    +0.000 A 
ATOM      3  C   UNL     1       2.851   6.321  19.479  0.00  0.00    +0.000 A 
ATOM      4  C   UNL     1       3.462   6.688  18.281  0.00  0.00    +0.000 A 
ATOM      5  C   UNL     1       3.134   7.896  17.660  0.00  0.00    +0.000 A 
ATOM      6  C   UNL     1       2.179   8.736  18.252  0.00  0.00    +0.000 A 
ENDROOT
BRANCH   1   9
ATOM      7  O   UNL     1       1.322   9.229  22.271  0.00  0.00    +0.000 OA
ATOM      8  C   UNL     1       0.568   9.609  21.382  0.00  0.00    +0.000 C 
ATOM      9  N   UNL     1       0.640   9.277  20.038  0.00  0.00    +0.000 N 
ATOM     10  H   UNL     1       0.080   9.821  19.394  0.00  0.00    +0.000 HD
BRANCH   8  11
ATOM     11  C   UNL     1      -0.498  10.574  21.751  0.00  0.00    +0.000 A 
ATOM     12  C   UNL     1      -0.961  11.456  20.767  0.00  0.00    +0.000 A 
ATOM     13  C   UNL     1      -1.947  12.393  21.072  0.00  0.00    +0.000 A 
ATOM     14  C   UNL     1      -2.466  12.456  22.364  0.00  0.00    +0.000 A 
ATOM     15  C   UNL     1      -1.995  11.592  23.354  0.00  0.00    +0.000 A 
ATOM     16  C   UNL     1      -1.007  10.652  23.053  0.00  0.00    +0.000 A 
ENDBRANCH   8  11
ENDBRANCH   1   9
BRANCH   4  17
ATOM     17  S   UNL     1       4.655   5.599  17.549  0.00  0.00    +0.000 S 
ATOM     18  O   UNL     1       5.098   6.218  16.321  0.00  0.00    +0.000 OA
ATOM     19  O   UNL     1       5.589   5.161  18.563  0.00  0.00    +0.000 OA
BRANCH  17  20
ATOM     20  N   UNL     1       3.727   4.268  17.090  0.00  0.00    +0.000 NA
ATOM     21  H   UNL     1       3.288   4.448  16.186  0.00  0.00    +0.000 HD
BRANCH  20  22
ATOM     22  C   UNL     1       4.267   2.909  17.285  0.00  0.00    +0.000 C 
BRANCH  22  23
ATOM     23  C   UNL     1       3.219   1.923  17.793  0.00  0.00    +0.000 C 
BRANCH  23  24
ATOM     24  C   UNL     1       2.574   2.396  19.064  0.00  0.00    +0.000 A 
ATOM     25  C   UNL     1       1.213   2.736  19.066  0.00  0.00    +0.000 A 
ATOM     26  C   UNL     1       0.610   3.215  20.226  0.00  0.00    +0.000 A 
ATOM     27  C   UNL     1       1.362   3.358  21.390  0.00  0.00    +0.000 A 
ATOM     28  C   UNL     1       2.716   3.013  21.397  0.00  0.00    +0.000 A 
ATOM     29  C   UNL     1       3.319   2.529  20.238  0.00  0.00    +0.000 A 
ENDBRANCH  23  24
ENDBRANCH  22  23
ENDBRANCH  20  22
ENDBRANCH  17  20
ENDBRANCH   4  17
TORSDOF 7
ENDMDL
MODEL 7
REMARK VINA RESULT:      -7.8      1.927      2.723
REMARK  Name = 
REMARK  7 active torsions:
REMARK  status: ('A' for Active; 'I' for Inactive)
REMARK    1  A    between atoms: C_2  and  C_22
REMARK    2  A    between atoms: N_3  and  C_4
REMARK    3  A    between atoms: C_7  and  S_8
REMARK    4  A    between atoms: S_8  and  N_11
REMARK    5  A    between atoms: N_11  and  C_12
REMARK    6  A    between atoms: C_12  and  C_13
REMARK    7  A    between atoms: C_13  and  C_14
REMARK                            x       y       z     vdW  Elec       q    Type
REMARK                         _______ _______ _______ _____ _____    ______ ____
ROOT
ATOM      1  C   UNL     1       1.156   8.647  19.740  0.00  0.00    +0.000 A 
ATOM      2  C   UNL     1       1.620   7.513  20.411  0.00  0.00    +0.000 A 
ATOM      3  C   UNL     1       2.655   6.744  19.883  0.00  0.00    +0.000 A 
ATOM      4  C   UNL     1       3.205   7.079  18.647  0.00  0.00    +0.000 A 
ATOM      5  C   UNL     1       2.740   8.193  17.944  0.00  0.00    +0.000 A 
ATOM      6  C   UNL     1       1.711   8.972  18.493  0.00  0.00    +0.000 A 
ENDROOT
BRANCH   1   9
ATOM      7  O   UNL     1       1.447  11.027  21.451  0.00  0.00    +0.000 OA
ATOM      8  C   UNL     1       0.363  10.578  21.096  0.00  0.00    +0.000 C 
ATOM      9  N   UNL     1       0.151   9.485  20.269  0.00  0.00    +0.000 N 
ATOM     10  H   UNL     1      -0.783   9.356  19.900  0.00  0.00    +0.000 HD
BRANCH   8  11
ATOM     11  C   UNL     1      -0.857  11.303  21.532  0.00  0.00    +0.000 A 
ATOM     12  C   UNL     1      -1.243  11.199  22.874  0.00  0.00    +0.000 A 
ATOM     13  C   UNL     1      -2.392  11.846  23.326  0.00  0.00    +0.000 A 
ATOM     14  C   UNL     1      -3.163  12.590  22.435  0.00  0.00    +0.000 A 
ATOM     15  C   UNL     1      -2.794  12.682  21.091  0.00  0.00    +0.000 A 
ATOM     16  C   UNL     1      -1.644  12.034  20.634  0.00  0.00    +0.000 A 
ENDBRANCH   8  11
ENDBRANCH   1   9
BRANCH   4  17
ATOM     17  S   UNL     1       4.496   6.067  17.971  0.00  0.00    +0.000 S 
ATOM     18  O   UNL     1       5.236   6.888  17.040  0.00  0.00    +0.000 OA
ATOM     19  O   UNL     1       5.149   5.347  19.042  0.00  0.00    +0.000 OA
BRANCH  17  20
ATOM     20  N   UNL     1       3.652   4.948  17.033  0.00  0.00    +0.000 NA
ATOM     21  H   UNL     1       3.509   5.322  16.094  0.00  0.00    +0.000 HD
BRANCH  20  22
ATOM     22  C   UNL     1       4.019   3.521  17.108  0.00  0.00    +0.000 C 
BRANCH  22  23
ATOM     23  C   UNL     1       2.837   2.624  17.465  0.00  0.00    +0.000 C 
BRANCH  23  24
ATOM     24  C   UNL     1       2.402   2.811  18.891  0.00  0.00    +0.000 A 
ATOM     25  C   UNL     1       1.141   3.360  19.165  0.00  0.00    +0.000 A 
ATOM     26  C   UNL     1       0.740   3.577  20.480  0.00  0.00    +0.000 A 
ATOM     27  C   UNL     1       1.596   3.248  21.529  0.00  0.00    +0.000 A 
ATOM     28  C   UNL     1       2.850   2.693  21.264  0.00  0.00    +0.000 A 
ATOM     29  C   UNL     1       3.251   2.471  19.947  0.00  0.00    +0.000 A 
ENDBRANCH  23  24
ENDBRANCH  22  23
ENDBRANCH  20  22
ENDBRANCH  17  20
ENDBRANCH   4  17
TORSDOF 7
ENDMDL
MODEL 8
REMARK VINA RESULT:      -7.8      1.963      2.406
REMARK  Name = 
REMARK  7 active torsions:
REMARK  status: ('A' for Active; 'I' for Inactive)
REMARK    1  A    between atoms: C_2  and  C_22
REMARK    2  A    between atoms: N_3  and  C_4
REMARK    3  A    between atoms: C_7  and  S_8
REMARK    4  A    between atoms: S_8  and  N_11
REMARK    5  A    between atoms: N_11  and  C_12
REMARK    6  A    between atoms: C_12  and  C_13
REMARK    7  A    between atoms: C_13  and  C_14
REMARK                            x       y       z     vdW  Elec       q    Type
REMARK                         _______ _______ _______ _____ _____    ______ ____
ROOT
ATOM      1  C   UNL     1       1.708   8.472  19.313  0.00  0.00    +0.000 A 
ATOM      2  C   UNL     1       2.353   8.798  18.117  0.00  0.00    +0.000 A 
ATOM      3  C   UNL     1       3.237   7.904  17.516  0.00  0.00    +0.000 A 
ATOM      4  C   UNL     1       3.520   6.688  18.136  0.00  0.00    +0.000 A 
ATOM      5  C   UNL     1       2.907   6.351  19.346  0.00  0.00    +0.000 A 
ATOM      6  C   UNL     1       2.005   7.250  19.934  0.00  0.00    +0.000 A 
ENDROOT
BRANCH   1   9
ATOM      7  O   UNL     1       1.483   9.253  22.145  0.00  0.00    +0.000 OA
ATOM      8  C   UNL     1       0.701   9.625  21.276  0.00  0.00    +0.000 C 
ATOM      9  N   UNL     1       0.762   9.325  19.924  0.00  0.00    +0.000 N 
ATOM     10  H   UNL     1       0.173   9.862  19.302  0.00  0.00    +0.000 HD
BRANCH   8  11
ATOM     11  C   UNL     1      -0.393  10.543  21.684  0.00  0.00    +0.000 A 
ATOM     12  C   UNL     1      -0.892  11.440  20.731  0.00  0.00    +0.000 A 
ATOM     13  C   UNL     1      -1.905  12.334  21.073  0.00  0.00    +0.000 A 
ATOM     14  C   UNL     1      -2.414  12.341  22.370  0.00  0.00    +0.000 A 
ATOM     15  C   UNL     1      -1.907  11.462  23.329  0.00  0.00    +0.000 A 
ATOM     16  C   UNL     1      -0.892  10.564  22.991  0.00  0.00    +0.000 A 
ENDBRANCH   8  11
ENDBRANCH   1   9
BRANCH   4  17
ATOM     17  S   UNL     1       4.676   5.578  17.377  0.00  0.00    +0.000 S 
ATOM     18  O   UNL     1       5.056   6.160  16.111  0.00  0.00    +0.000 OA
ATOM     19  O   UNL     1       5.660   5.170  18.355  0.00  0.00    +0.000 OA
BRANCH  17  20
ATOM     20  N   UNL     1       3.727   4.234  17.005  0.00  0.00    +0.000 NA
ATOM     21  H   UNL     1       3.259   4.379  16.109  0.00  0.00    +0.000 HD
BRANCH  20  22
ATOM     22  C   UNL     1       4.270   2.882  17.235  0.00  0.00    +0.000 C 
BRANCH  22  23
ATOM     23  C   UNL     1       3.233   1.918  17.806  0.00  0.00    +0.000 C 
BRANCH  23  24
ATOM     24  C   UNL     1       2.569   2.473  19.034  0.00  0.00    +0.000 A 
ATOM     25  C   UNL     1       3.312   2.630  20.214  0.00  0.00    +0.000 A 
ATOM     26  C   UNL     1       2.701   3.104  21.371  0.00  0.00    +0.000 A 
ATOM     27  C   UNL     1       1.345   3.423  21.358  0.00  0.00    +0.000 A 
ATOM     28  C   UNL     1       0.601   3.278  20.184  0.00  0.00    +0.000 A 
ATOM     29  C   UNL     1       1.212   2.807  19.024  0.00  0.00    +0.000 A 
ENDBRANCH  23  24
ENDBRANCH  22  23
ENDBRANCH  20  22
ENDBRANCH  17  20
ENDBRANCH   4  17
TORSDOF 7
ENDMDL
MODEL 9
REMARK VINA RESULT:      -7.8      4.660      7.438
REMARK  Name = 
REMARK  7 active torsions:
REMARK  status: ('A' for Active; 'I' for Inactive)
REMARK    1  A    between atoms: C_2  and  C_22
REMARK    2  A    between atoms: N_3  and  C_4
REMARK    3  A    between atoms: C_7  and  S_8
REMARK    4  A    between atoms: S_8  and  N_11
REMARK    5  A    between atoms: N_11  and  C_12
REMARK    6  A    between atoms: C_12  and  C_13
REMARK    7  A    between atoms: C_13  and  C_14
REMARK                            x       y       z     vdW  Elec       q    Type
REMARK                         _______ _______ _______ _____ _____    ______ ____
ROOT
ATOM      1  C   UNL     1       7.974   7.568  18.418  0.00  0.00    +0.000 A 
ATOM      2  C   UNL     1       7.015   7.711  17.411  0.00  0.00    +0.000 A 
ATOM      3  C   UNL     1       6.118   6.683  17.129  0.00  0.00    +0.000 A 
ATOM      4  C   UNL     1       6.204   5.478  17.825  0.00  0.00    +0.000 A 
ATOM      5  C   UNL     1       7.171   5.302  18.817  0.00  0.00    +0.000 A 
ATOM      6  C   UNL     1       8.058   6.350  19.107  0.00  0.00    +0.000 A 
ENDROOT
BRANCH   1   9
ATOM      7  O   UNL     1       7.904  10.409  17.640  0.00  0.00    +0.000 OA
ATOM      8  C   UNL     1       8.782   9.922  18.344  0.00  0.00    +0.000 C 
ATOM      9  N   UNL     1       8.863   8.606  18.774  0.00  0.00    +0.000 N 
ATOM     10  H   UNL     1       9.526   8.398  19.509  0.00  0.00    +0.000 HD
BRANCH   8  11
ATOM     11  C   UNL     1       9.841  10.831  18.849  0.00  0.00    +0.000 A 
ATOM     12  C   UNL     1      10.773  11.334  17.933  0.00  0.00    +0.000 A 
ATOM     13  C   UNL     1      11.797  12.176  18.364  0.00  0.00    +0.000 A 
ATOM     14  C   UNL     1      11.897  12.509  19.713  0.00  0.00    +0.000 A 
ATOM     15  C   UNL     1      10.982  11.996  20.634  0.00  0.00    +0.000 A 
ATOM     16  C   UNL     1       9.955  11.152  20.207  0.00  0.00    +0.000 A 
ENDBRANCH   8  11
ENDBRANCH   1   9
BRANCH   4  17
ATOM     17  S   UNL     1       5.079   4.167  17.426  0.00  0.00    +0.000 S 
ATOM     18  O   UNL     1       5.461   3.657  16.130  0.00  0.00    +0.000 OA
ATOM     19  O   UNL     1       4.930   3.299  18.574  0.00  0.00    +0.000 OA
BRANCH  17  20
ATOM     20  N   UNL     1       3.617   4.975  17.195  0.00  0.00    +0.000 NA
ATOM     21  H   UNL     1       3.216   4.714  16.293  0.00  0.00    +0.000 HD
BRANCH  20  22
ATOM     22  C   UNL     1       2.664   5.078  18.317  0.00  0.00    +0.000 C 
BRANCH  22  23
ATOM     23  C   UNL     1       3.097   6.094  19.370  0.00  0.00    +0.000 C 
BRANCH  23  24
ATOM     24  C   UNL     1       2.318   7.374  19.267  0.00  0.00    +0.000 A 
ATOM     25  C   UNL     1       2.255   8.051  18.040  0.00  0.00    +0.000 A 
ATOM     26  C   UNL     1       1.571   9.259  17.939  0.00  0.00    +0.000 A 
ATOM     27  C   UNL     1       0.948   9.799  19.062  0.00  0.00    +0.000 A 
ATOM     28  C   UNL     1       1.000   9.126  20.285  0.00  0.00    +0.000 A 
ATOM     29  C   UNL     1       1.680   7.914  20.386  0.00  0.00    +0.000 A 
ENDBRANCH  23  24
ENDBRANCH  22  23
ENDBRANCH  20  22
ENDBRANCH  17  20
ENDBRANCH   4  17
TORSDOF 7
ENDMDL
