MODEL 1
REMARK VINA RESULT:      -8.8      0.000      0.000
REMARK  Name = 
REMARK  10 active torsions:
REMARK  status: ('A' for Active; 'I' for Inactive)
REMARK    1  A    between atoms: C_1  and  O_2
REMARK    2  A    between atoms: O_2  and  C_3
REMARK    3  A    between atoms: C_6  and  C_7
REMARK    4  A    between atoms: C_8  and  C_9
REMARK    5  A    between atoms: C_11  and  C_12
REMARK    6  A    between atoms: C_14  and  N_15
REMARK    7  A    between atoms: N_15  and  C_16
REMARK    8  A    between atoms: C_16  and  C_17
REMARK    9  A    between atoms: C_26  and  O_27
REMARK   10  A    between atoms: O_27  and  C_28
REMARK                            x       y       z     vdW  Elec       q    Type
REMARK                         _______ _______ _______ _____ _____    ______ ____
ROOT
ATOM      1  C   UNL     1       7.297   6.900  17.403  0.00  0.00    +0.000 A 
ATOM      2  N   UNL     1       7.635   6.262  16.288  0.00  0.00    +0.000 NA
ATOM      3  C   UNL     1       6.570   5.436  16.014  0.00  0.00    +0.000 A 
ATOM      4  C   UNL     1       5.584   5.591  16.956  0.00  0.00    +0.000 A 
ATOM      5  O   UNL     1       6.039   6.520  17.849  0.00  0.00    +0.000 OA
ENDROOT
BRANCH   1   7
ATOM      6  C   UNL     1       7.961   9.191  17.807  0.00  0.00    +0.000 C 
ATOM      7  C   UNL     1       8.102   7.879  18.055  0.00  0.00    +0.000 C 
BRANCH   6  11
ATOM      8  C   UNL     1      10.539  12.166  19.553  0.00  0.00    +0.000 A 
ATOM      9  C   UNL     1      10.069  11.071  20.292  0.00  0.00    +0.000 A 
ATOM     10  C   UNL     1       9.232  10.115  19.708  0.00  0.00    +0.000 A 
ATOM     11  C   UNL     1       8.794  10.259  18.391  0.00  0.00    +0.000 A 
ATOM     12  C   UNL     1       9.207  11.393  17.680  0.00  0.00    +0.000 A 
ATOM     13  C   UNL     1      10.065  12.356  18.247  0.00  0.00    +0.000 A 
BRANCH   8  15
ATOM     14  C   UNL     1      10.857  14.222  20.685  0.00  0.00    +0.000 C 
ATOM     15  O   UNL     1      11.430  13.053  20.098  0.00  0.00    +0.000 OA
ENDBRANCH   8  15
BRANCH  13  16
ATOM     16  O   UNL     1      10.337  13.374  17.370  0.00  0.00    +0.000 OA
ATOM     17  C   UNL     1      11.540  13.349  16.619  0.00  0.00    +0.000 C 
ENDBRANCH  13  16
ENDBRANCH   6  11
ENDBRANCH   1   7
BRANCH   3  18
ATOM     18  C   UNL     1       6.543   4.595  14.859  0.00  0.00    +0.000 C 
ATOM     19  N   UNL     1       6.497   3.898  13.935  0.00  0.00    +0.000 NA
ENDBRANCH   3  18
BRANCH   4  20
ATOM     20  N   UNL     1       4.368   5.036  17.170  0.00  0.00    +0.000 N 
ATOM     21  H   UNL     1       3.975   4.388  16.489  0.00  0.00    +0.000 HD
BRANCH  20  22
ATOM     22  C   UNL     1       3.383   5.671  18.027  0.00  0.00    +0.000 C 
BRANCH  22  23
ATOM     23  C   UNL     1       2.926   4.698  19.093  0.00  0.00    +0.000 A 
ATOM     24  C   UNL     1       3.706   3.576  19.424  0.00  0.00    +0.000 A 
ATOM     25  C   UNL     1       3.276   2.681  20.407  0.00  0.00    +0.000 A 
ATOM     26  C   UNL     1       2.066   2.901  21.055  0.00  0.00    +0.000 A 
ATOM     27  F   UNL     1       1.657   2.042  21.998  0.00  0.00    +0.000 F 
ATOM     28  C   UNL     1       1.276   3.998  20.738  0.00  0.00    +0.000 A 
ATOM     29  C   UNL     1       1.702   4.894  19.755  0.00  0.00    +0.000 A 
ENDBRANCH  22  23
ENDBRANCH  20  22
ENDBRANCH   4  20
TORSDOF 8
ENDMDL
MODEL 2
REMARK VINA RESULT:      -8.6      1.547      2.285
REMARK  Name = 
REMARK  10 active torsions:
REMARK  status: ('A' for Active; 'I' for Inactive)
REMARK    1  A    between atoms: C_1  and  O_2
REMARK    2  A    between atoms: O_2  and  C_3
REMARK    3  A    between atoms: C_6  and  C_7
REMARK    4  A    between atoms: C_8  and  C_9
REMARK    5  A    between atoms: C_11  and  C_12
REMARK    6  A    between atoms: C_14  and  N_15
REMARK    7  A    between atoms: N_15  and  C_16
REMARK    8  A    between atoms: C_16  and  C_17
REMARK    9  A    between atoms: C_26  and  O_27
REMARK   10  A    between atoms: O_27  and  C_28
REMARK                            x       y       z     vdW  Elec       q    Type
REMARK                         _______ _______ _______ _____ _____    ______ ____
ROOT
ATOM      1  C   UNL     1       7.469   7.187  17.412  0.00  0.00    +0.000 A 
ATOM      2  N   UNL     1       7.397   6.579  16.234  0.00  0.00    +0.000 NA
ATOM      3  C   UNL     1       6.864   5.340  16.505  0.00  0.00    +0.000 A 
ATOM      4  C   UNL     1       6.599   5.212  17.846  0.00  0.00    +0.000 A 
ATOM      5  O   UNL     1       6.985   6.383  18.434  0.00  0.00    +0.000 OA
ENDROOT
BRANCH   1   7
ATOM      6  C   UNL     1       8.698   8.840  18.682  0.00  0.00    +0.000 C 
ATOM      7  C   UNL     1       7.952   8.513  17.615  0.00  0.00    +0.000 C 
BRANCH   6  11
ATOM      8  C   UNL     1       9.949  12.882  19.486  0.00  0.00    +0.000 A 
ATOM      9  C   UNL     1       9.877  12.377  18.180  0.00  0.00    +0.000 A 
ATOM     10  C   UNL     1       9.470  11.061  17.938  0.00  0.00    +0.000 A 
ATOM     11  C   UNL     1       9.181  10.198  18.995  0.00  0.00    +0.000 A 
ATOM     12  C   UNL     1       9.325  10.685  20.301  0.00  0.00    +0.000 A 
ATOM     13  C   UNL     1       9.717  12.013  20.562  0.00  0.00    +0.000 A 
BRANCH   8  15
ATOM     14  C   UNL     1      11.656  14.494  19.799  0.00  0.00    +0.000 C 
ATOM     15  O   UNL     1      10.261  14.196  19.717  0.00  0.00    +0.000 OA
ENDBRANCH   8  15
BRANCH  13  16
ATOM     16  O   UNL     1       9.787  12.267  21.907  0.00  0.00    +0.000 OA
ATOM     17  C   UNL     1       8.713  12.933  22.552  0.00  0.00    +0.000 C 
ENDBRANCH  13  16
ENDBRANCH   6  11
ENDBRANCH   1   7
BRANCH   3  18
ATOM     18  C   UNL     1       6.602   4.388  15.473  0.00  0.00    +0.000 C 
ATOM     19  N   UNL     1       6.372   3.636  14.622  0.00  0.00    +0.000 NA
ENDBRANCH   3  18
BRANCH   4  20
ATOM     20  N   UNL     1       6.098   4.231  18.632  0.00  0.00    +0.000 N 
ATOM     21  H   UNL     1       6.088   3.267  18.304  0.00  0.00    +0.000 HD
BRANCH  20  22
ATOM     22  C   UNL     1       5.132   4.515  19.678  0.00  0.00    +0.000 C 
BRANCH  22  23
ATOM     23  C   UNL     1       3.811   3.851  19.350  0.00  0.00    +0.000 A 
ATOM     24  C   UNL     1       3.731   2.459  19.171  0.00  0.00    +0.000 A 
ATOM     25  C   UNL     1       2.510   1.854  18.866  0.00  0.00    +0.000 A 
ATOM     26  C   UNL     1       1.369   2.637  18.733  0.00  0.00    +0.000 A 
ATOM     27  F   UNL     1       0.199   2.054  18.441  0.00  0.00    +0.000 F 
ATOM     28  C   UNL     1       1.426   4.014  18.896  0.00  0.00    +0.000 A 
ATOM     29  C   UNL     1       2.646   4.623  19.200  0.00  0.00    +0.000 A 
ENDBRANCH  22  23
ENDBRANCH  20  22
ENDBRANCH   4  20
TORSDOF 8
ENDMDL
MODEL 3
REMARK VINA RESULT:      -8.6      1.521      1.735
REMARK  Name = 
REMARK  10 active torsions:
REMARK  status: ('A' for Active; 'I' for Inactive)
REMARK    1  A    between atoms: C_1  and  O_2
REMARK    2  A    between atoms: O_2  and  C_3
REMARK    3  A    between atoms: C_6  and  C_7
REMARK    4  A    between atoms: C_8  and  C_9
REMARK    5  A    between atoms: C_11  and  C_12
REMARK    6  A    between atoms: C_14  and  N_15
REMARK    7  A    between atoms: N_15  and  C_16
REMARK    8  A    between atoms: C_16  and  C_17
REMARK    9  A    between atoms: C_26  and  O_27
REMARK   10  A    between atoms: O_27  and  C_28
REMARK                            x       y       z     vdW  Elec       q    Type
REMARK                         _______ _______ _______ _____ _____    ______ ____
ROOT
ATOM      1  C   UNL     1       7.732   7.103  17.946  0.00  0.00    +0.000 A 
ATOM      2  N   UNL     1       7.723   6.873  16.638  0.00  0.00    +0.000 NA
ATOM      3  C   UNL     1       7.079   5.666  16.494  0.00  0.00    +0.000 A 
ATOM      4  C   UNL     1       6.683   5.181  17.716  0.00  0.00    +0.000 A 
ATOM      5  O   UNL     1       7.098   6.089  18.649  0.00  0.00    +0.000 OA
ENDROOT
BRANCH   1   7
ATOM      6  C   UNL     1       8.368   9.438  17.924  0.00  0.00    +0.000 C 
ATOM      7  C   UNL     1       8.289   8.261  18.565  0.00  0.00    +0.000 C 
BRANCH   6  11
ATOM      8  C   UNL     1      10.358  12.919  19.496  0.00  0.00    +0.000 A 
ATOM      9  C   UNL     1      10.452  11.668  20.123  0.00  0.00    +0.000 A 
ATOM     10  C   UNL     1       9.797  10.549  19.599  0.00  0.00    +0.000 A 
ATOM     11  C   UNL     1       8.985  10.661  18.470  0.00  0.00    +0.000 A 
ATOM     12  C   UNL     1       8.836  11.927  17.890  0.00  0.00    +0.000 A 
ATOM     13  C   UNL     1       9.502  13.062  18.394  0.00  0.00    +0.000 A 
BRANCH   8  15
ATOM     14  C   UNL     1      12.330  14.219  19.323  0.00  0.00    +0.000 C 
ATOM     15  O   UNL     1      11.070  13.994  19.959  0.00  0.00    +0.000 OA
ENDBRANCH   8  15
BRANCH  13  16
ATOM     16  O   UNL     1       9.211  14.187  17.668  0.00  0.00    +0.000 OA
ATOM     17  C   UNL     1       8.360  15.177  18.221  0.00  0.00    +0.000 C 
ENDBRANCH  13  16
ENDBRANCH   6  11
ENDBRANCH   1   7
BRANCH   3  18
ATOM     18  C   UNL     1       6.843   5.084  15.211  0.00  0.00    +0.000 C 
ATOM     19  N   UNL     1       6.671   4.633  14.158  0.00  0.00    +0.000 NA
ENDBRANCH   3  18
BRANCH   4  20
ATOM     20  N   UNL     1       6.042   4.068  18.141  0.00  0.00    +0.000 N 
ATOM     21  H   UNL     1       5.751   3.358  17.473  0.00  0.00    +0.000 HD
BRANCH  20  22
ATOM     22  C   UNL     1       5.302   4.049  19.391  0.00  0.00    +0.000 C 
BRANCH  22  23
ATOM     23  C   UNL     1       3.891   3.557  19.145  0.00  0.00    +0.000 A 
ATOM     24  C   UNL     1       3.525   2.237  19.459  0.00  0.00    +0.000 A 
ATOM     25  C   UNL     1       2.223   1.790  19.225  0.00  0.00    +0.000 A 
ATOM     26  C   UNL     1       1.287   2.656  18.673  0.00  0.00    +0.000 A 
ATOM     27  F   UNL     1       0.038   2.225  18.451  0.00  0.00    +0.000 F 
ATOM     28  C   UNL     1       1.629   3.962  18.346  0.00  0.00    +0.000 A 
ATOM     29  C   UNL     1       2.931   4.412  18.577  0.00  0.00    +0.000 A 
ENDBRANCH  22  23
ENDBRANCH  20  22
ENDBRANCH   4  20
TORSDOF 8
ENDMDL
MODEL 4
REMARK VINA RESULT:      -8.6      1.128      1.278
REMARK  Name = 
REMARK  10 active torsions:
REMARK  status: ('A' for Active; 'I' for Inactive)
REMARK    1  A    between atoms: C_1  and  O_2
REMARK    2  A    between atoms: O_2  and  C_3
REMARK    3  A    between atoms: C_6  and  C_7
REMARK    4  A    between atoms: C_8  and  C_9
REMARK    5  A    between atoms: C_11  and  C_12
REMARK    6  A    between atoms: C_14  and  N_15
REMARK    7  A    between atoms: N_15  and  C_16
REMARK    8  A    between atoms: C_16  and  C_17
REMARK    9  A    between atoms: C_26  and  O_27
REMARK   10  A    between atoms: O_27  and  C_28
REMARK                            x       y       z     vdW  Elec       q    Type
REMARK                         _______ _______ _______ _____ _____    ______ ____
ROOT
ATOM      1  C   UNL     1       7.408   6.941  17.581  0.00  0.00    +0.000 A 
ATOM      2  N   UNL     1       7.661   6.462  16.369  0.00  0.00    +0.000 NA
ATOM      3  C   UNL     1       6.769   5.428  16.202  0.00  0.00    +0.000 A 
ATOM      4  C   UNL     1       5.968   5.298  17.309  0.00  0.00    +0.000 A 
ATOM      5  O   UNL     1       6.370   6.256  18.196  0.00  0.00    +0.000 OA
ENDROOT
BRANCH   1   7
ATOM      6  C   UNL     1       7.905   9.303  17.756  0.00  0.00    +0.000 C 
ATOM      7  C   UNL     1       8.089   8.042  18.179  0.00  0.00    +0.000 C 
BRANCH   6  11
ATOM      8  C   UNL     1      10.159  12.667  19.221  0.00  0.00    +0.000 A 
ATOM      9  C   UNL     1      10.343  11.375  19.733  0.00  0.00    +0.000 A 
ATOM     10  C   UNL     1       9.601  10.294  19.246  0.00  0.00    +0.000 A 
ATOM     11  C   UNL     1       8.615  10.485  18.277  0.00  0.00    +0.000 A 
ATOM     12  C   UNL     1       8.384  11.789  17.822  0.00  0.00    +0.000 A 
ATOM     13  C   UNL     1       9.134  12.886  18.289  0.00  0.00    +0.000 A 
BRANCH   8  15
ATOM     14  C   UNL     1      12.324  13.625  19.262  0.00  0.00    +0.000 C 
ATOM     15  O   UNL     1      10.948  13.708  19.635  0.00  0.00    +0.000 OA
ENDBRANCH   8  15
BRANCH  13  16
ATOM     16  O   UNL     1       8.738  14.060  17.702  0.00  0.00    +0.000 OA
ATOM     17  C   UNL     1       7.480  14.622  18.039  0.00  0.00    +0.000 C 
ENDBRANCH  13  16
ENDBRANCH   6  11
ENDBRANCH   1   7
BRANCH   3  18
ATOM     18  C   UNL     1       6.709   4.670  14.993  0.00  0.00    +0.000 C 
ATOM     19  N   UNL     1       6.663   4.029  14.029  0.00  0.00    +0.000 NA
ENDBRANCH   3  18
BRANCH   4  20
ATOM     20  N   UNL     1       4.965   4.466  17.672  0.00  0.00    +0.000 N 
ATOM     21  H   UNL     1       5.077   3.458  17.579  0.00  0.00    +0.000 HD
BRANCH  20  22
ATOM     22  C   UNL     1       3.583   4.911  17.704  0.00  0.00    +0.000 C 
BRANCH  22  23
ATOM     23  C   UNL     1       2.860   4.258  18.863  0.00  0.00    +0.000 A 
ATOM     24  C   UNL     1       2.152   3.057  18.684  0.00  0.00    +0.000 A 
ATOM     25  C   UNL     1       1.485   2.463  19.758  0.00  0.00    +0.000 A 
ATOM     26  C   UNL     1       1.517   3.069  21.008  0.00  0.00    +0.000 A 
ATOM     27  F   UNL     1       0.877   2.496  22.035  0.00  0.00    +0.000 F 
ATOM     28  C   UNL     1       2.202   4.260  21.205  0.00  0.00    +0.000 A 
ATOM     29  C   UNL     1       2.870   4.858  20.134  0.00  0.00    +0.000 A 
ENDBRANCH  22  23
ENDBRANCH  20  22
ENDBRANCH   4  20
TORSDOF 8
ENDMDL
MODEL 5
REMARK VINA RESULT:      -8.6      1.239      2.007
REMARK  Name = 
REMARK  10 active torsions:
REMARK  status: ('A' for Active; 'I' for Inactive)
REMARK    1  A    between atoms: C_1  and  O_2
REMARK    2  A    between atoms: O_2  and  C_3
REMARK    3  A    between atoms: C_6  and  C_7
REMARK    4  A    between atoms: C_8  and  C_9
REMARK    5  A    between atoms: C_11  and  C_12
REMARK    6  A    between atoms: C_14  and  N_15
REMARK    7  A    between atoms: N_15  and  C_16
REMARK    8  A    between atoms: C_16  and  C_17
REMARK    9  A    between atoms: C_26  and  O_27
REMARK   10  A    between atoms: O_27  and  C_28
REMARK                            x       y       z     vdW  Elec       q    Type
REMARK                         _______ _______ _______ _____ _____    ______ ____
ROOT
ATOM      1  C   UNL     1       7.382   7.274  17.478  0.00  0.00    +0.000 A 
ATOM      2  N   UNL     1       7.735   6.457  16.492  0.00  0.00    +0.000 NA
ATOM      3  C   UNL     1       6.572   5.821  16.124  0.00  0.00    +0.000 A 
ATOM      4  C   UNL     1       5.517   6.270  16.878  0.00  0.00    +0.000 A 
ATOM      5  O   UNL     1       6.024   7.194  17.748  0.00  0.00    +0.000 OA
ENDROOT
BRANCH   1   7
ATOM      6  C   UNL     1       8.286   9.474  17.923  0.00  0.00    +0.000 C 
ATOM      7  C   UNL     1       8.271   8.153  18.164  0.00  0.00    +0.000 C 
BRANCH   6  11
ATOM      8  C   UNL     1      10.936  12.431  19.589  0.00  0.00    +0.000 A 
ATOM      9  C   UNL     1      11.053  12.000  18.260  0.00  0.00    +0.000 A 
ATOM     10  C   UNL     1      10.184  11.037  17.736  0.00  0.00    +0.000 A 
ATOM     11  C   UNL     1       9.215  10.438  18.541  0.00  0.00    +0.000 A 
ATOM     12  C   UNL     1       9.150  10.819  19.887  0.00  0.00    +0.000 A 
ATOM     13  C   UNL     1      10.005  11.800  20.427  0.00  0.00    +0.000 A 
BRANCH   8  15
ATOM     14  C   UNL     1      11.731  14.645  19.311  0.00  0.00    +0.000 C 
ATOM     15  O   UNL     1      11.729  13.438  20.075  0.00  0.00    +0.000 OA
ENDBRANCH   8  15
BRANCH  13  16
ATOM     16  O   UNL     1       9.759  12.013  21.758  0.00  0.00    +0.000 OA
ATOM     17  C   UNL     1       8.978  13.127  22.157  0.00  0.00    +0.000 C 
ENDBRANCH  13  16
ENDBRANCH   6  11
ENDBRANCH   1   7
BRANCH   3  18
ATOM     18  C   UNL     1       6.536   4.871  15.058  0.00  0.00    +0.000 C 
ATOM     19  N   UNL     1       6.475   4.100  14.195  0.00  0.00    +0.000 NA
ENDBRANCH   3  18
BRANCH   4  20
ATOM     20  N   UNL     1       4.196   5.984  16.941  0.00  0.00    +0.000 N 
ATOM     21  H   UNL     1       3.715   5.605  16.127  0.00  0.00    +0.000 HD
BRANCH  20  22
ATOM     22  C   UNL     1       3.322   6.638  17.899  0.00  0.00    +0.000 C 
BRANCH  22  23
ATOM     23  C   UNL     1       2.590   5.597  18.720  0.00  0.00    +0.000 A 
ATOM     24  C   UNL     1       2.574   5.671  20.124  0.00  0.00    +0.000 A 
ATOM     25  C   UNL     1       1.899   4.705  20.874  0.00  0.00    +0.000 A 
ATOM     26  C   UNL     1       1.246   3.663  20.227  0.00  0.00    +0.000 A 
ATOM     27  F   UNL     1       0.600   2.739  20.950  0.00  0.00    +0.000 F 
ATOM     28  C   UNL     1       1.258   3.566  18.842  0.00  0.00    +0.000 A 
ATOM     29  C   UNL     1       1.932   4.528  18.088  0.00  0.00    +0.000 A 
ENDBRANCH  22  23
ENDBRANCH  20  22
ENDBRANCH   4  20
TORSDOF 8
ENDMDL
MODEL 6
REMARK VINA RESULT:      -8.4      1.005      1.236
REMARK  Name = 
REMARK  10 active torsions:
REMARK  status: ('A' for Active; 'I' for Inactive)
REMARK    1  A    between atoms: C_1  and  O_2
REMARK    2  A    between atoms: O_2  and  C_3
REMARK    3  A    between atoms: C_6  and  C_7
REMARK    4  A    between atoms: C_8  and  C_9
REMARK    5  A    between atoms: C_11  and  C_12
REMARK    6  A    between atoms: C_14  and  N_15
REMARK    7  A    between atoms: N_15  and  C_16
REMARK    8  A    between atoms: C_16  and  C_17
REMARK    9  A    between atoms: C_26  and  O_27
REMARK   10  A    between atoms: O_27  and  C_28
REMARK                            x       y       z     vdW  Elec       q    Type
REMARK                         _______ _______ _______ _____ _____    ______ ____
ROOT
ATOM      1  C   UNL     1       7.253   7.291  17.371  0.00  0.00    +0.000 A 
ATOM      2  N   UNL     1       7.670   6.455  16.427  0.00  0.00    +0.000 NA
ATOM      3  C   UNL     1       6.561   5.713  16.094  0.00  0.00    +0.000 A 
ATOM      4  C   UNL     1       5.472   6.117  16.826  0.00  0.00    +0.000 A 
ATOM      5  O   UNL     1       5.904   7.121  17.646  0.00  0.00    +0.000 OA
ENDROOT
BRANCH   1   7
ATOM      6  C   UNL     1       7.947   9.580  17.740  0.00  0.00    +0.000 C 
ATOM      7  C   UNL     1       8.070   8.271  18.009  0.00  0.00    +0.000 C 
BRANCH   6  11
ATOM      8  C   UNL     1      10.585  12.579  19.350  0.00  0.00    +0.000 A 
ATOM      9  C   UNL     1      10.554  11.273  19.859  0.00  0.00    +0.000 A 
ATOM     10  C   UNL     1       9.689  10.312  19.324  0.00  0.00    +0.000 A 
ATOM     11  C   UNL     1       8.793  10.646  18.308  0.00  0.00    +0.000 A 
ATOM     12  C   UNL     1       8.776  11.971  17.854  0.00  0.00    +0.000 A 
ATOM     13  C   UNL     1       9.653  12.946  18.369  0.00  0.00    +0.000 A 
BRANCH   8  15
ATOM     14  C   UNL     1      10.980  14.468  20.723  0.00  0.00    +0.000 C 
ATOM     15  O   UNL     1      11.494  13.494  19.813  0.00  0.00    +0.000 OA
ENDBRANCH   8  15
BRANCH  13  16
ATOM     16  O   UNL     1       9.461  14.167  17.774  0.00  0.00    +0.000 OA
ATOM     17  C   UNL     1       8.177  14.767  17.805  0.00  0.00    +0.000 C 
ENDBRANCH  13  16
ENDBRANCH   6  11
ENDBRANCH   1   7
BRANCH   3  18
ATOM     18  C   UNL     1       6.600   4.710  15.078  0.00  0.00    +0.000 C 
ATOM     19  N   UNL     1       6.617   3.916  14.235  0.00  0.00    +0.000 NA
ENDBRANCH   3  18
BRANCH   4  20
ATOM     20  N   UNL     1       4.177   5.734  16.905  0.00  0.00    +0.000 N 
ATOM     21  H   UNL     1       3.738   5.247  16.126  0.00  0.00    +0.000 HD
BRANCH  20  22
ATOM     22  C   UNL     1       3.241   6.399  17.795  0.00  0.00    +0.000 C 
BRANCH  22  23
ATOM     23  C   UNL     1       2.592   5.383  18.711  0.00  0.00    +0.000 A 
ATOM     24  C   UNL     1       2.626   5.548  20.106  0.00  0.00    +0.000 A 
ATOM     25  C   UNL     1       2.028   4.604  20.944  0.00  0.00    +0.000 A 
ATOM     26  C   UNL     1       1.401   3.493  20.392  0.00  0.00    +0.000 A 
ATOM     27  F   UNL     1       0.827   2.591  21.199  0.00  0.00    +0.000 F 
ATOM     28  C   UNL     1       1.363   3.306  19.017  0.00  0.00    +0.000 A 
ATOM     29  C   UNL     1       1.961   4.247  18.175  0.00  0.00    +0.000 A 
ENDBRANCH  22  23
ENDBRANCH  20  22
ENDBRANCH   4  20
TORSDOF 8
ENDMDL
MODEL 7
REMARK VINA RESULT:      -8.4      1.119      1.937
REMARK  Name = 
REMARK  10 active torsions:
REMARK  status: ('A' for Active; 'I' for Inactive)
REMARK    1  A    between atoms: C_1  and  O_2
REMARK    2  A    between atoms: O_2  and  C_3
REMARK    3  A    between atoms: C_6  and  C_7
REMARK    4  A    between atoms: C_8  and  C_9
REMARK    5  A    between atoms: C_11  and  C_12
REMARK    6  A    between atoms: C_14  and  N_15
REMARK    7  A    between atoms: N_15  and  C_16
REMARK    8  A    between atoms: C_16  and  C_17
REMARK    9  A    between atoms: C_26  and  O_27
REMARK   10  A    between atoms: O_27  and  C_28
REMARK                            x       y       z     vdW  Elec       q    Type
REMARK                         _______ _______ _______ _____ _____    ______ ____
ROOT
ATOM      1  C   UNL     1       7.338   7.059  17.510  0.00  0.00    +0.000 A 
ATOM      2  N   UNL     1       7.652   6.350  16.432  0.00  0.00    +0.000 NA
ATOM      3  C   UNL     1       6.508   5.655  16.117  0.00  0.00    +0.000 A 
ATOM      4  C   UNL     1       5.499   5.961  16.997  0.00  0.00    +0.000 A 
ATOM      5  O   UNL     1       6.020   6.853  17.892  0.00  0.00    +0.000 OA
ENDROOT
BRANCH   1   7
ATOM      6  C   UNL     1       8.194   9.275  17.970  0.00  0.00    +0.000 C 
ATOM      7  C   UNL     1       8.223   7.950  18.184  0.00  0.00    +0.000 C 
BRANCH   6  11
ATOM      8  C   UNL     1      10.813  12.274  19.610  0.00  0.00    +0.000 A 
ATOM      9  C   UNL     1      10.902  11.868  18.271  0.00  0.00    +0.000 A 
ATOM     10  C   UNL     1      10.044  10.892  17.756  0.00  0.00    +0.000 A 
ATOM     11  C   UNL     1       9.114  10.253  18.578  0.00  0.00    +0.000 A 
ATOM     12  C   UNL     1       9.079  10.610  19.932  0.00  0.00    +0.000 A 
ATOM     13  C   UNL     1       9.924  11.604  20.463  0.00  0.00    +0.000 A 
BRANCH   8  15
ATOM     14  C   UNL     1      11.282  14.596  19.592  0.00  0.00    +0.000 C 
ATOM     15  O   UNL     1      11.593  13.294  20.090  0.00  0.00    +0.000 OA
ENDBRANCH   8  15
BRANCH  13  16
ATOM     16  O   UNL     1       9.712  11.788  21.805  0.00  0.00    +0.000 OA
ATOM     17  C   UNL     1       8.485  12.340  22.251  0.00  0.00    +0.000 C 
ENDBRANCH  13  16
ENDBRANCH   6  11
ENDBRANCH   1   7
BRANCH   3  18
ATOM     18  C   UNL     1       6.437   4.789  14.983  0.00  0.00    +0.000 C 
ATOM     19  N   UNL     1       6.400   4.067  14.078  0.00  0.00    +0.000 NA
ENDBRANCH   3  18
BRANCH   4  20
ATOM     20  N   UNL     1       4.214   5.569  17.153  0.00  0.00    +0.000 N 
ATOM     21  H   UNL     1       3.563   6.148  17.679  0.00  0.00    +0.000 HD
BRANCH  20  22
ATOM     22  C   UNL     1       3.831   4.171  17.063  0.00  0.00    +0.000 C 
BRANCH  22  23
ATOM     23  C   UNL     1       3.022   3.781  18.283  0.00  0.00    +0.000 A 
ATOM     24  C   UNL     1       2.514   2.478  18.421  0.00  0.00    +0.000 A 
ATOM     25  C   UNL     1       1.766   2.127  19.548  0.00  0.00    +0.000 A 
ATOM     26  C   UNL     1       1.519   3.077  20.533  0.00  0.00    +0.000 A 
ATOM     27  F   UNL     1       0.802   2.737  21.612  0.00  0.00    +0.000 F 
ATOM     28  C   UNL     1       2.003   4.372  20.411  0.00  0.00    +0.000 A 
ATOM     29  C   UNL     1       2.751   4.727  19.286  0.00  0.00    +0.000 A 
ENDBRANCH  22  23
ENDBRANCH  20  22
ENDBRANCH   4  20
TORSDOF 8
ENDMDL
MODEL 8
REMARK VINA RESULT:      -8.4      0.855      1.069
REMARK  Name = 
REMARK  10 active torsions:
REMARK  status: ('A' for Active; 'I' for Inactive)
REMARK    1  A    between atoms: C_1  and  O_2
REMARK    2  A    between atoms: O_2  and  C_3
REMARK    3  A    between atoms: C_6  and  C_7
REMARK    4  A    between atoms: C_8  and  C_9
REMARK    5  A    between atoms: C_11  and  C_12
REMARK    6  A    between atoms: C_14  and  N_15
REMARK    7  A    between atoms: N_15  and  C_16
REMARK    8  A    between atoms: C_16  and  C_17
REMARK    9  A    between atoms: C_26  and  O_27
REMARK   10  A    between atoms: O_27  and  C_28
REMARK                            x       y       z     vdW  Elec       q    Type
REMARK                         _______ _______ _______ _____ _____    ______ ____
ROOT
ATOM      1  C   UNL     1       7.505   7.434  17.337  0.00  0.00    +0.000 A 
ATOM      2  N   UNL     1       7.606   6.672  16.254  0.00  0.00    +0.000 NA
ATOM      3  C   UNL     1       6.761   5.612  16.484  0.00  0.00    +0.000 A 
ATOM      4  C   UNL     1       6.138   5.746  17.700  0.00  0.00    +0.000 A 
ATOM      5  O   UNL     1       6.609   6.904  18.254  0.00  0.00    +0.000 OA
ENDROOT
BRANCH   1   7
ATOM      6  C   UNL     1       8.588   9.069  18.754  0.00  0.00    +0.000 C 
ATOM      7  C   UNL     1       8.199   8.663  17.535  0.00  0.00    +0.000 C 
BRANCH   6  11
ATOM      8  C   UNL     1      10.682  12.708  19.711  0.00  0.00    +0.000 A 
ATOM      9  C   UNL     1      10.226  11.835  20.708  0.00  0.00    +0.000 A 
ATOM     10  C   UNL     1       9.547  10.658  20.378  0.00  0.00    +0.000 A 
ATOM     11  C   UNL     1       9.253  10.352  19.049  0.00  0.00    +0.000 A 
ATOM     12  C   UNL     1       9.646  11.264  18.061  0.00  0.00    +0.000 A 
ATOM     13  C   UNL     1      10.347  12.445  18.374  0.00  0.00    +0.000 A 
BRANCH   8  15
ATOM     14  C   UNL     1      10.683  15.018  20.234  0.00  0.00    +0.000 C 
ATOM     15  O   UNL     1      11.425  13.815  20.029  0.00  0.00    +0.000 OA
ENDBRANCH   8  15
BRANCH  13  16
ATOM     16  O   UNL     1      10.630  13.180  17.253  0.00  0.00    +0.000 OA
ATOM     17  C   UNL     1      11.963  13.237  16.770  0.00  0.00    +0.000 C 
ENDBRANCH  13  16
ENDBRANCH   6  11
ENDBRANCH   1   7
BRANCH   3  18
ATOM     18  C   UNL     1       6.570   4.574  15.521  0.00  0.00    +0.000 C 
ATOM     19  N   UNL     1       6.445   3.731  14.736  0.00  0.00    +0.000 NA
ENDBRANCH   3  18
BRANCH   4  20
ATOM     20  N   UNL     1       5.248   5.011  18.406  0.00  0.00    +0.000 N 
ATOM     21  H   UNL     1       5.573   4.269  19.023  0.00  0.00    +0.000 HD
BRANCH  20  22
ATOM     22  C   UNL     1       3.870   4.864  17.972  0.00  0.00    +0.000 C 
BRANCH  22  23
ATOM     23  C   UNL     1       3.050   4.223  19.072  0.00  0.00    +0.000 A 
ATOM     24  C   UNL     1       2.839   4.889  20.292  0.00  0.00    +0.000 A 
ATOM     25  C   UNL     1       2.085   4.289  21.303  0.00  0.00    +0.000 A 
ATOM     26  C   UNL     1       1.546   3.024  21.100  0.00  0.00    +0.000 A 
ATOM     27  F   UNL     1       0.822   2.452  22.072  0.00  0.00    +0.000 F 
ATOM     28  C   UNL     1       1.750   2.345  19.907  0.00  0.00    +0.000 A 
ATOM     29  C   UNL     1       2.505   2.940  18.894  0.00  0.00    +0.000 A 
ENDBRANCH  22  23
ENDBRANCH  20  22
ENDBRANCH   4  20
TORSDOF 8
ENDMDL
MODEL 9
REMARK VINA RESULT:      -8.3      1.482      1.813
REMARK  Name = 
REMARK  10 active torsions:
REMARK  status: ('A' for Active; 'I' for Inactive)
REMARK    1  A    between atoms: C_1  and  O_2
REMARK    2  A    between atoms: O_2  and  C_3
REMARK    3  A    between atoms: C_6  and  C_7
REMARK    4  A    between atoms: C_8  and  C_9
REMARK    5  A    between atoms: C_11  and  C_12
REMARK    6  A    between atoms: C_14  and  N_15
REMARK    7  A    between atoms: N_15  and  C_16
REMARK    8  A    between atoms: C_16  and  C_17
REMARK    9  A    between atoms: C_26  and  O_27
REMARK   10  A    between atoms: O_27  and  C_28
REMARK                            x       y       z     vdW  Elec       q    Type
REMARK                         _______ _______ _______ _____ _____    ______ ____
ROOT
ATOM      1  C   UNL     1       7.587   7.212  17.581  0.00  0.00    +0.000 A 
ATOM      2  N   UNL     1       7.446   6.633  16.394  0.00  0.00    +0.000 NA
ATOM      3  C   UNL     1       6.865   5.415  16.660  0.00  0.00    +0.000 A 
ATOM      4  C   UNL     1       6.639   5.271  18.006  0.00  0.00    +0.000 A 
ATOM      5  O   UNL     1       7.100   6.411  18.603  0.00  0.00    +0.000 OA
ENDROOT
BRANCH   1   7
ATOM      6  C   UNL     1       8.809   8.821  18.914  0.00  0.00    +0.000 C 
ATOM      7  C   UNL     1       8.138   8.510  17.793  0.00  0.00    +0.000 C 
BRANCH   6  11
ATOM      8  C   UNL     1      10.506  12.625  20.007  0.00  0.00    +0.000 A 
ATOM      9  C   UNL     1       9.714  11.886  20.898  0.00  0.00    +0.000 A 
ATOM     10  C   UNL     1       9.170  10.653  20.525  0.00  0.00    +0.000 A 
ATOM     11  C   UNL     1       9.353  10.153  19.235  0.00  0.00    +0.000 A 
ATOM     12  C   UNL     1      10.084  10.929  18.326  0.00  0.00    +0.000 A 
ATOM     13  C   UNL     1      10.654  12.165  18.691  0.00  0.00    +0.000 A 
BRANCH   8  15
ATOM     14  C   UNL     1      10.238  14.798  20.910  0.00  0.00    +0.000 C 
ATOM     15  O   UNL     1      11.112  13.788  20.402  0.00  0.00    +0.000 OA
ENDBRANCH   8  15
BRANCH  13  16
ATOM     16  O   UNL     1      11.325  12.744  17.645  0.00  0.00    +0.000 OA
ATOM     17  C   UNL     1      10.762  13.867  16.987  0.00  0.00    +0.000 C 
ENDBRANCH  13  16
ENDBRANCH   6  11
ENDBRANCH   1   7
BRANCH   3  18
ATOM     18  C   UNL     1       6.523   4.498  15.619  0.00  0.00    +0.000 C 
ATOM     19  N   UNL     1       6.270   3.764  14.759  0.00  0.00    +0.000 NA
ENDBRANCH   3  18
BRANCH   4  20
ATOM     20  N   UNL     1       6.119   4.298  18.790  0.00  0.00    +0.000 N 
ATOM     21  H   UNL     1       6.735   3.682  19.317  0.00  0.00    +0.000 HD
BRANCH  20  22
ATOM     22  C   UNL     1       4.796   3.752  18.546  0.00  0.00    +0.000 C 
BRANCH  22  23
ATOM     23  C   UNL     1       3.752   4.606  19.235  0.00  0.00    +0.000 A 
ATOM     24  C   UNL     1       2.975   4.084  20.284  0.00  0.00    +0.000 A 
ATOM     25  C   UNL     1       2.012   4.877  20.912  0.00  0.00    +0.000 A 
ATOM     26  C   UNL     1       1.819   6.188  20.490  0.00  0.00    +0.000 A 
ATOM     27  F   UNL     1       0.895   6.945  21.095  0.00  0.00    +0.000 F 
ATOM     28  C   UNL     1       2.569   6.720  19.450  0.00  0.00    +0.000 A 
ATOM     29  C   UNL     1       3.532   5.930  18.819  0.00  0.00    +0.000 A 
ENDBRANCH  22  23
ENDBRANCH  20  22
ENDBRANCH   4  20
TORSDOF 8
ENDMDL
