MODEL 1
REMARK VINA RESULT:      -7.7      0.000      0.000
REMARK  Name = 
REMARK  5 active torsions:
REMARK  status: ('A' for Active; 'I' for Inactive)
REMARK    1  A    between atoms: C_1  and  N_2
REMARK    2  A    between atoms: N_2  and  C_3
REMARK    3  A    between atoms: C_4  and  C_6
REMARK    4  A    between atoms: N_15  and  S_16
REMARK    5  A    between atoms: S_16  and  C_19
REMARK                            x       y       z     vdW  Elec       q    Type
REMARK                         _______ _______ _______ _____ _____    ______ ____
ROOT
ATOM      1  C   UNL     1       3.174   6.301  18.011  0.00  0.00    +0.000 C 
ATOM      2  C   UNL     1       2.265   5.126  17.605  0.00  0.00    +0.000 C 
ATOM      3  C   UNL     1       1.959   4.233  18.774  0.00  0.00    +0.000 A 
ATOM      4  C   UNL     1       1.872   2.842  18.628  0.00  0.00    +0.000 A 
ATOM      5  C   UNL     1       1.673   2.036  19.747  0.00  0.00    +0.000 A 
ATOM      6  C   UNL     1       1.533   2.616  21.005  0.00  0.00    +0.000 A 
ATOM      7  C   UNL     1       1.576   4.007  21.145  0.00  0.00    +0.000 A 
ATOM      8  C   UNL     1       1.801   4.828  20.031  0.00  0.00    +0.000 A 
ATOM      9  C   UNL     1       1.769   6.335  20.142  0.00  0.00    +0.000 C 
ATOM     10  N   UNL     1       2.583   7.114  19.146  0.00  0.00    +0.000 NA
ENDROOT
BRANCH   1  14
ATOM     11  C   UNL     1       6.884   5.285  17.572  0.00  0.00    +0.000 C 
ATOM     12  N   UNL     1       5.563   5.814  17.278  0.00  0.00    +0.000 N 
ATOM     13  C   UNL     1       5.274   6.149  15.897  0.00  0.00    +0.000 C 
ATOM     14  C   UNL     1       4.626   5.841  18.316  0.00  0.00    +0.000 C 
ATOM     15  O   UNL     1       4.960   5.459  19.444  0.00  0.00    +0.000 OA
ENDBRANCH   1  14
BRANCH  10  16
ATOM     16  S   UNL     1       1.834   8.559  18.618  0.00  0.00    +0.000 S 
ATOM     17  O   UNL     1       2.857   9.500  18.220  0.00  0.00    +0.000 OA
ATOM     18  O   UNL     1       0.781   8.190  17.695  0.00  0.00    +0.000 OA
BRANCH  16  19
ATOM     19  C   UNL     1       1.087   9.253  20.076  0.00  0.00    +0.000 A 
ATOM     20  C   UNL     1       0.015  10.147  19.950  0.00  0.00    +0.000 A 
ATOM     21  C   UNL     1      -0.665  10.573  21.094  0.00  0.00    +0.000 A 
ATOM     22  C   UNL     1      -0.268  10.108  22.343  0.00  0.00    +0.000 A 
ATOM     23  F   UNL     1      -0.937  10.502  23.435  0.00  0.00    +0.000 F 
ATOM     24  C   UNL     1       0.802   9.228  22.475  0.00  0.00    +0.000 A 
ATOM     25  C   UNL     1       1.487   8.797  21.338  0.00  0.00    +0.000 A 
ENDBRANCH  16  19
ENDBRANCH  10  16
TORSDOF 3
ENDMDL
MODEL 2
REMARK VINA RESULT:      -7.4      4.066      7.722
REMARK  Name = 
REMARK  5 active torsions:
REMARK  status: ('A' for Active; 'I' for Inactive)
REMARK    1  A    between atoms: C_1  and  N_2
REMARK    2  A    between atoms: N_2  and  C_3
REMARK    3  A    between atoms: C_4  and  C_6
REMARK    4  A    between atoms: N_15  and  S_16
REMARK    5  A    between atoms: S_16  and  C_19
REMARK                            x       y       z     vdW  Elec       q    Type
REMARK                         _______ _______ _______ _____ _____    ______ ____
ROOT
ATOM      1  C   UNL     1      -0.738  11.861  19.781  0.00  0.00    +0.000 C 
ATOM      2  C   UNL     1      -2.271  11.712  19.798  0.00  0.00    +0.000 C 
ATOM      3  C   UNL     1      -2.807  11.344  18.444  0.00  0.00    +0.000 A 
ATOM      4  C   UNL     1      -4.019  11.863  17.970  0.00  0.00    +0.000 A 
ATOM      5  C   UNL     1      -4.445  11.570  16.677  0.00  0.00    +0.000 A 
ATOM      6  C   UNL     1      -3.677  10.738  15.865  0.00  0.00    +0.000 A 
ATOM      7  C   UNL     1      -2.489  10.184  16.352  0.00  0.00    +0.000 A 
ATOM      8  C   UNL     1      -2.037  10.491  17.643  0.00  0.00    +0.000 A 
ATOM      9  C   UNL     1      -0.802   9.841  18.222  0.00  0.00    +0.000 C 
ATOM     10  N   UNL     1      -0.049  10.610  19.272  0.00  0.00    +0.000 NA
ENDROOT
BRANCH   1  14
ATOM     11  C   UNL     1       0.856  15.293  18.963  0.00  0.00    +0.000 C 
ATOM     12  N   UNL     1       0.528  14.067  19.670  0.00  0.00    +0.000 N 
ATOM     13  C   UNL     1       0.952  13.964  21.053  0.00  0.00    +0.000 C 
ATOM     14  C   UNL     1      -0.281  13.133  19.015  0.00  0.00    +0.000 C 
ATOM     15  O   UNL     1      -0.651  13.358  17.857  0.00  0.00    +0.000 OA
ENDBRANCH   1  14
BRANCH  10  16
ATOM     16  S   UNL     1       0.584   9.634  20.526  0.00  0.00    +0.000 S 
ATOM     17  O   UNL     1       1.429  10.446  21.372  0.00  0.00    +0.000 OA
ATOM     18  O   UNL     1      -0.520   8.890  21.096  0.00  0.00    +0.000 OA
BRANCH  16  19
ATOM     19  C   UNL     1       1.677   8.488  19.715  0.00  0.00    +0.000 A 
ATOM     20  C   UNL     1       1.892   7.220  20.272  0.00  0.00    +0.000 A 
ATOM     21  C   UNL     1       2.630   6.271  19.560  0.00  0.00    +0.000 A 
ATOM     22  C   UNL     1       3.142   6.596  18.308  0.00  0.00    +0.000 A 
ATOM     23  F   UNL     1       3.830   5.675  17.618  0.00  0.00    +0.000 F 
ATOM     24  C   UNL     1       2.940   7.857  17.755  0.00  0.00    +0.000 A 
ATOM     25  C   UNL     1       2.204   8.812  18.459  0.00  0.00    +0.000 A 
ENDBRANCH  16  19
ENDBRANCH  10  16
TORSDOF 3
ENDMDL
MODEL 3
REMARK VINA RESULT:      -7.3      3.443      5.641
REMARK  Name = 
REMARK  5 active torsions:
REMARK  status: ('A' for Active; 'I' for Inactive)
REMARK    1  A    between atoms: C_1  and  N_2
REMARK    2  A    between atoms: N_2  and  C_3
REMARK    3  A    between atoms: C_4  and  C_6
REMARK    4  A    between atoms: N_15  and  S_16
REMARK    5  A    between atoms: S_16  and  C_19
REMARK                            x       y       z     vdW  Elec       q    Type
REMARK                         _______ _______ _______ _____ _____    ______ ____
ROOT
ATOM      1  C   UNL     1       4.140   5.632  18.518  0.00  0.00    +0.000 C 
ATOM      2  C   UNL     1       4.217   4.663  19.713  0.00  0.00    +0.000 C 
ATOM      3  C   UNL     1       2.990   3.802  19.806  0.00  0.00    +0.000 A 
ATOM      4  C   UNL     1       2.433   3.454  21.044  0.00  0.00    +0.000 A 
ATOM      5  C   UNL     1       1.247   2.727  21.095  0.00  0.00    +0.000 A 
ATOM      6  C   UNL     1       0.630   2.321  19.913  0.00  0.00    +0.000 A 
ATOM      7  C   UNL     1       1.209   2.630  18.678  0.00  0.00    +0.000 A 
ATOM      8  C   UNL     1       2.390   3.383  18.613  0.00  0.00    +0.000 A 
ATOM      9  C   UNL     1       3.078   3.659  17.297  0.00  0.00    +0.000 C 
ATOM     10  N   UNL     1       3.914   4.905  17.207  0.00  0.00    +0.000 NA
ENDROOT
BRANCH   1  14
ATOM     11  C   UNL     1       2.065   8.872  18.078  0.00  0.00    +0.000 C 
ATOM     12  N   UNL     1       2.975   7.775  17.790  0.00  0.00    +0.000 N 
ATOM     13  C   UNL     1       3.785   7.883  16.592  0.00  0.00    +0.000 C 
ATOM     14  C   UNL     1       3.100   6.763  18.746  0.00  0.00    +0.000 C 
ATOM     15  O   UNL     1       2.412   6.810  19.773  0.00  0.00    +0.000 OA
ENDBRANCH   1  14
BRANCH  10  16
ATOM     16  S   UNL     1       5.345   4.715  16.289  0.00  0.00    +0.000 S 
ATOM     17  O   UNL     1       5.820   3.357  16.435  0.00  0.00    +0.000 OA
ATOM     18  O   UNL     1       5.093   5.262  14.973  0.00  0.00    +0.000 OA
BRANCH  16  19
ATOM     19  C   UNL     1       6.556   5.735  17.101  0.00  0.00    +0.000 A 
ATOM     20  C   UNL     1       6.749   7.056  16.677  0.00  0.00    +0.000 A 
ATOM     21  C   UNL     1       7.590   7.899  17.408  0.00  0.00    +0.000 A 
ATOM     22  C   UNL     1       8.226   7.416  18.547  0.00  0.00    +0.000 A 
ATOM     23  F   UNL     1       9.014   8.234  19.259  0.00  0.00    +0.000 F 
ATOM     24  C   UNL     1       8.046   6.101  18.967  0.00  0.00    +0.000 A 
ATOM     25  C   UNL     1       7.208   5.252  18.242  0.00  0.00    +0.000 A 
ENDBRANCH  16  19
ENDBRANCH  10  16
TORSDOF 3
ENDMDL
MODEL 4
REMARK VINA RESULT:      -7.3      4.213      7.948
REMARK  Name = 
REMARK  5 active torsions:
REMARK  status: ('A' for Active; 'I' for Inactive)
REMARK    1  A    between atoms: C_1  and  N_2
REMARK    2  A    between atoms: N_2  and  C_3
REMARK    3  A    between atoms: C_4  and  C_6
REMARK    4  A    between atoms: N_15  and  S_16
REMARK    5  A    between atoms: S_16  and  C_19
REMARK                            x       y       z     vdW  Elec       q    Type
REMARK                         _______ _______ _______ _____ _____    ______ ____
ROOT
ATOM      1  C   UNL     1      -0.976  12.104  19.839  0.00  0.00    +0.000 C 
ATOM      2  C   UNL     1      -2.492  11.833  19.874  0.00  0.00    +0.000 C 
ATOM      3  C   UNL     1      -3.016  11.445  18.521  0.00  0.00    +0.000 A 
ATOM      4  C   UNL     1      -4.272  11.874  18.072  0.00  0.00    +0.000 A 
ATOM      5  C   UNL     1      -4.692  11.569  16.779  0.00  0.00    +0.000 A 
ATOM      6  C   UNL     1      -3.872  10.814  15.943  0.00  0.00    +0.000 A 
ATOM      7  C   UNL     1      -2.637  10.348  16.406  0.00  0.00    +0.000 A 
ATOM      8  C   UNL     1      -2.192  10.670  17.696  0.00  0.00    +0.000 A 
ATOM      9  C   UNL     1      -0.901  10.111  18.247  0.00  0.00    +0.000 C 
ATOM     10  N   UNL     1      -0.197  10.921  19.300  0.00  0.00    +0.000 NA
ENDROOT
BRANCH   1  14
ATOM     11  C   UNL     1      -0.265  15.835  19.086  0.00  0.00    +0.000 C 
ATOM     12  N   UNL     1      -0.488  14.602  19.823  0.00  0.00    +0.000 N 
ATOM     13  C   UNL     1      -0.677  14.712  21.257  0.00  0.00    +0.000 C 
ATOM     14  C   UNL     1      -0.633  13.421  19.090  0.00  0.00    +0.000 C 
ATOM     15  O   UNL     1      -0.526  13.455  17.858  0.00  0.00    +0.000 OA
ENDBRANCH   1  14
BRANCH  10  16
ATOM     16  S   UNL     1       0.529   9.978  20.529  0.00  0.00    +0.000 S 
ATOM     17  O   UNL     1       1.529  10.775  21.204  0.00  0.00    +0.000 OA
ATOM     18  O   UNL     1      -0.536   9.352  21.283  0.00  0.00    +0.000 OA
BRANCH  16  19
ATOM     19  C   UNL     1       1.430   8.708  19.668  0.00  0.00    +0.000 A 
ATOM     20  C   UNL     1       1.997   8.984  18.417  0.00  0.00    +0.000 A 
ATOM     21  C   UNL     1       2.828   8.037  17.812  0.00  0.00    +0.000 A 
ATOM     22  C   UNL     1       3.080   6.832  18.458  0.00  0.00    +0.000 A 
ATOM     23  F   UNL     1       3.896   5.936  17.885  0.00  0.00    +0.000 F 
ATOM     24  C   UNL     1       2.513   6.548  19.697  0.00  0.00    +0.000 A 
ATOM     25  C   UNL     1       1.681   7.488  20.308  0.00  0.00    +0.000 A 
ENDBRANCH  16  19
ENDBRANCH  10  16
TORSDOF 3
ENDMDL
MODEL 5
REMARK VINA RESULT:      -7.3      3.345      5.642
REMARK  Name = 
REMARK  5 active torsions:
REMARK  status: ('A' for Active; 'I' for Inactive)
REMARK    1  A    between atoms: C_1  and  N_2
REMARK    2  A    between atoms: N_2  and  C_3
REMARK    3  A    between atoms: C_4  and  C_6
REMARK    4  A    between atoms: N_15  and  S_16
REMARK    5  A    between atoms: S_16  and  C_19
REMARK                            x       y       z     vdW  Elec       q    Type
REMARK                         _______ _______ _______ _____ _____    ______ ____
ROOT
ATOM      1  C   UNL     1       3.981   5.851  18.698  0.00  0.00    +0.000 C 
ATOM      2  C   UNL     1       4.100   4.824  19.839  0.00  0.00    +0.000 C 
ATOM      3  C   UNL     1       2.947   3.861  19.840  0.00  0.00    +0.000 A 
ATOM      4  C   UNL     1       2.381   3.398  21.036  0.00  0.00    +0.000 A 
ATOM      5  C   UNL     1       1.259   2.574  21.002  0.00  0.00    +0.000 A 
ATOM      6  C   UNL     1       0.716   2.190  19.778  0.00  0.00    +0.000 A 
ATOM      7  C   UNL     1       1.307   2.616  18.584  0.00  0.00    +0.000 A 
ATOM      8  C   UNL     1       2.422   3.466  18.605  0.00  0.00    +0.000 A 
ATOM      9  C   UNL     1       3.127   3.873  17.331  0.00  0.00    +0.000 C 
ATOM     10  N   UNL     1       3.858   5.187  17.342  0.00  0.00    +0.000 NA
ENDROOT
BRANCH   1  14
ATOM     11  C   UNL     1       1.667   8.939  18.373  0.00  0.00    +0.000 C 
ATOM     12  N   UNL     1       2.674   7.940  18.057  0.00  0.00    +0.000 N 
ATOM     13  C   UNL     1       3.520   8.192  16.906  0.00  0.00    +0.000 C 
ATOM     14  C   UNL     1       2.843   6.879  18.951  0.00  0.00    +0.000 C 
ATOM     15  O   UNL     1       2.112   6.802  19.946  0.00  0.00    +0.000 OA
ENDBRANCH   1  14
BRANCH  10  16
ATOM     16  S   UNL     1       5.328   5.168  16.467  0.00  0.00    +0.000 S 
ATOM     17  O   UNL     1       5.906   3.845  16.549  0.00  0.00    +0.000 OA
ATOM     18  O   UNL     1       5.075   5.775  15.178  0.00  0.00    +0.000 OA
BRANCH  16  19
ATOM     19  C   UNL     1       6.426   6.227  17.383  0.00  0.00    +0.000 A 
ATOM     20  C   UNL     1       7.207   5.693  18.416  0.00  0.00    +0.000 A 
ATOM     21  C   UNL     1       8.175   6.490  19.032  0.00  0.00    +0.000 A 
ATOM     22  C   UNL     1       8.349   7.805  18.614  0.00  0.00    +0.000 A 
ATOM     23  F   UNL     1       9.293   8.561  19.193  0.00  0.00    +0.000 F 
ATOM     24  C   UNL     1       7.569   8.345  17.596  0.00  0.00    +0.000 A 
ATOM     25  C   UNL     1       6.600   7.555  16.974  0.00  0.00    +0.000 A 
ENDBRANCH  16  19
ENDBRANCH  10  16
TORSDOF 3
ENDMDL
MODEL 6
REMARK VINA RESULT:      -7.2      4.535      8.578
REMARK  Name = 
REMARK  5 active torsions:
REMARK  status: ('A' for Active; 'I' for Inactive)
REMARK    1  A    between atoms: C_1  and  N_2
REMARK    2  A    between atoms: N_2  and  C_3
REMARK    3  A    between atoms: C_4  and  C_6
REMARK    4  A    between atoms: N_15  and  S_16
REMARK    5  A    between atoms: S_16  and  C_19
REMARK                            x       y       z     vdW  Elec       q    Type
REMARK                         _______ _______ _______ _____ _____    ______ ____
ROOT
ATOM      1  C   UNL     1      -1.983  12.809  19.826  0.00  0.00    +0.000 C 
ATOM      2  C   UNL     1      -2.311  14.039  20.694  0.00  0.00    +0.000 C 
ATOM      3  C   UNL     1      -2.944  13.644  21.997  0.00  0.00    +0.000 A 
ATOM      4  C   UNL     1      -3.969  14.406  22.573  0.00  0.00    +0.000 A 
ATOM      5  C   UNL     1      -4.594  13.966  23.737  0.00  0.00    +0.000 A 
ATOM      6  C   UNL     1      -4.180  12.782  24.343  0.00  0.00    +0.000 A 
ATOM      7  C   UNL     1      -3.128  12.043  23.792  0.00  0.00    +0.000 A 
ATOM      8  C   UNL     1      -2.507  12.462  22.607  0.00  0.00    +0.000 A 
ATOM      9  C   UNL     1      -1.315  11.727  22.038  0.00  0.00    +0.000 C 
ATOM     10  N   UNL     1      -1.099  11.816  20.553  0.00  0.00    +0.000 NA
ENDROOT
BRANCH   1  14
ATOM     11  C   UNL     1      -4.407  10.904  17.483  0.00  0.00    +0.000 C 
ATOM     12  N   UNL     1      -3.176  11.433  18.047  0.00  0.00    +0.000 N 
ATOM     13  C   UNL     1      -1.971  11.302  17.251  0.00  0.00    +0.000 C 
ATOM     14  C   UNL     1      -3.262  12.141  19.249  0.00  0.00    +0.000 C 
ATOM     15  O   UNL     1      -4.359  12.257  19.808  0.00  0.00    +0.000 OA
ENDBRANCH   1  14
BRANCH  10  16
ATOM     16  S   UNL     1       0.547  11.923  20.098  0.00  0.00    +0.000 S 
ATOM     17  O   UNL     1       0.648  12.692  18.878  0.00  0.00    +0.000 OA
ATOM     18  O   UNL     1       1.298  12.315  21.272  0.00  0.00    +0.000 OA
BRANCH  16  19
ATOM     19  C   UNL     1       1.015  10.264  19.658  0.00  0.00    +0.000 A 
ATOM     20  C   UNL     1       1.439   9.983  18.353  0.00  0.00    +0.000 A 
ATOM     21  C   UNL     1       1.946   8.718  18.049  0.00  0.00    +0.000 A 
ATOM     22  C   UNL     1       2.023   7.751  19.046  0.00  0.00    +0.000 A 
ATOM     23  F   UNL     1       2.532   6.545  18.756  0.00  0.00    +0.000 F 
ATOM     24  C   UNL     1       1.595   8.020  20.342  0.00  0.00    +0.000 A 
ATOM     25  C   UNL     1       1.086   9.282  20.654  0.00  0.00    +0.000 A 
ENDBRANCH  16  19
ENDBRANCH  10  16
TORSDOF 3
ENDMDL
MODEL 7
REMARK VINA RESULT:      -7.1      1.038      1.169
REMARK  Name = 
REMARK  5 active torsions:
REMARK  status: ('A' for Active; 'I' for Inactive)
REMARK    1  A    between atoms: C_1  and  N_2
REMARK    2  A    between atoms: N_2  and  C_3
REMARK    3  A    between atoms: C_4  and  C_6
REMARK    4  A    between atoms: N_15  and  S_16
REMARK    5  A    between atoms: S_16  and  C_19
REMARK                            x       y       z     vdW  Elec       q    Type
REMARK                         _______ _______ _______ _____ _____    ______ ____
ROOT
ATOM      1  C   UNL     1       4.024   6.182  18.049  0.00  0.00    +0.000 C 
ATOM      2  C   UNL     1       3.561   5.022  17.149  0.00  0.00    +0.000 C 
ATOM      3  C   UNL     1       2.973   3.898  17.953  0.00  0.00    +0.000 A 
ATOM      4  C   UNL     1       3.186   2.557  17.601  0.00  0.00    +0.000 A 
ATOM      5  C   UNL     1       2.699   1.538  18.416  0.00  0.00    +0.000 A 
ATOM      6  C   UNL     1       1.978   1.852  19.566  0.00  0.00    +0.000 A 
ATOM      7  C   UNL     1       1.728   3.189  19.893  0.00  0.00    +0.000 A 
ATOM      8  C   UNL     1       2.234   4.225  19.095  0.00  0.00    +0.000 A 
ATOM      9  C   UNL     1       1.908   5.673  19.381  0.00  0.00    +0.000 C 
ATOM     10  N   UNL     1       2.905   6.703  18.930  0.00  0.00    +0.000 NA
ENDROOT
BRANCH   1  14
ATOM     11  C   UNL     1       7.720   5.764  19.125  0.00  0.00    +0.000 C 
ATOM     12  N   UNL     1       6.547   6.205  18.389  0.00  0.00    +0.000 N 
ATOM     13  C   UNL     1       6.772   6.900  17.136  0.00  0.00    +0.000 C 
ATOM     14  C   UNL     1       5.293   5.818  18.869  0.00  0.00    +0.000 C 
ATOM     15  O   UNL     1       5.220   5.159  19.913  0.00  0.00    +0.000 OA
ENDBRANCH   1  14
BRANCH  10  16
ATOM     16  S   UNL     1       2.195   8.140  18.334  0.00  0.00    +0.000 S 
ATOM     17  O   UNL     1       3.239   9.015  17.850  0.00  0.00    +0.000 OA
ATOM     18  O   UNL     1       1.103   7.757  17.465  0.00  0.00    +0.000 OA
BRANCH  16  19
ATOM     19  C   UNL     1       1.518   8.951  19.766  0.00  0.00    +0.000 A 
ATOM     20  C   UNL     1       0.819  10.156  19.617  0.00  0.00    +0.000 A 
ATOM     21  C   UNL     1       0.162  10.713  20.717  0.00  0.00    +0.000 A 
ATOM     22  C   UNL     1       0.210  10.064  21.947  0.00  0.00    +0.000 A 
ATOM     23  F   UNL     1      -0.440  10.589  22.994  0.00  0.00    +0.000 F 
ATOM     24  C   UNL     1       0.910   8.872  22.103  0.00  0.00    +0.000 A 
ATOM     25  C   UNL     1       1.570   8.309  21.009  0.00  0.00    +0.000 A 
ENDBRANCH  16  19
ENDBRANCH  10  16
TORSDOF 3
ENDMDL
MODEL 8
REMARK VINA RESULT:      -7.1      6.071      9.984
REMARK  Name = 
REMARK  5 active torsions:
REMARK  status: ('A' for Active; 'I' for Inactive)
REMARK    1  A    between atoms: C_1  and  N_2
REMARK    2  A    between atoms: N_2  and  C_3
REMARK    3  A    between atoms: C_4  and  C_6
REMARK    4  A    between atoms: N_15  and  S_16
REMARK    5  A    between atoms: S_16  and  C_19
REMARK                            x       y       z     vdW  Elec       q    Type
REMARK                         _______ _______ _______ _____ _____    ______ ____
ROOT
ATOM      1  C   UNL     1      -3.901  13.399  20.821  0.00  0.00    +0.000 C 
ATOM      2  C   UNL     1      -4.659  14.639  21.331  0.00  0.00    +0.000 C 
ATOM      3  C   UNL     1      -5.685  14.274  22.364  0.00  0.00    +0.000 A 
ATOM      4  C   UNL     1      -6.928  14.920  22.422  0.00  0.00    +0.000 A 
ATOM      5  C   UNL     1      -7.890  14.499  23.337  0.00  0.00    +0.000 A 
ATOM      6  C   UNL     1      -7.606  13.453  24.212  0.00  0.00    +0.000 A 
ATOM      7  C   UNL     1      -6.351  12.837  24.184  0.00  0.00    +0.000 A 
ATOM      8  C   UNL     1      -5.382  13.234  23.251  0.00  0.00    +0.000 A 
ATOM      9  C   UNL     1      -3.992  12.641  23.255  0.00  0.00    +0.000 C 
ATOM     10  N   UNL     1      -3.249  12.624  21.949  0.00  0.00    +0.000 NA
ENDROOT
BRANCH   1  14
ATOM     11  C   UNL     1      -5.077  11.022  18.000  0.00  0.00    +0.000 C 
ATOM     12  N   UNL     1      -4.203  11.781  18.878  0.00  0.00    +0.000 N 
ATOM     13  C   UNL     1      -2.800  11.853  18.519  0.00  0.00    +0.000 C 
ATOM     14  C   UNL     1      -4.792  12.493  19.927  0.00  0.00    +0.000 C 
ATOM     15  O   UNL     1      -6.015  12.420  20.098  0.00  0.00    +0.000 OA
ENDBRANCH   1  14
BRANCH  10  16
ATOM     16  S   UNL     1      -1.574  12.939  22.100  0.00  0.00    +0.000 S 
ATOM     17  O   UNL     1      -1.138  13.718  20.964  0.00  0.00    +0.000 OA
ATOM     18  O   UNL     1      -1.343  13.418  23.447  0.00  0.00    +0.000 OA
BRANCH  16  19
ATOM     19  C   UNL     1      -0.787  11.353  21.923  0.00  0.00    +0.000 A 
ATOM     20  C   UNL     1      -0.043  11.071  20.771  0.00  0.00    +0.000 A 
ATOM     21  C   UNL     1       0.696   9.887  20.699  0.00  0.00    +0.000 A 
ATOM     22  C   UNL     1       0.682   9.003  21.772  0.00  0.00    +0.000 A 
ATOM     23  F   UNL     1       1.410   7.879  21.709  0.00  0.00    +0.000 F 
ATOM     24  C   UNL     1      -0.063   9.273  22.916  0.00  0.00    +0.000 A 
ATOM     25  C   UNL     1      -0.804  10.453  22.996  0.00  0.00    +0.000 A 
ENDBRANCH  16  19
ENDBRANCH  10  16
TORSDOF 3
ENDMDL
MODEL 9
REMARK VINA RESULT:      -7.1      6.046      9.992
REMARK  Name = 
REMARK  5 active torsions:
REMARK  status: ('A' for Active; 'I' for Inactive)
REMARK    1  A    between atoms: C_1  and  N_2
REMARK    2  A    between atoms: N_2  and  C_3
REMARK    3  A    between atoms: C_4  and  C_6
REMARK    4  A    between atoms: N_15  and  S_16
REMARK    5  A    between atoms: S_16  and  C_19
REMARK                            x       y       z     vdW  Elec       q    Type
REMARK                         _______ _______ _______ _____ _____    ______ ____
ROOT
ATOM      1  C   UNL     1      -3.946  13.350  20.741  0.00  0.00    +0.000 C 
ATOM      2  C   UNL     1      -4.720  14.590  21.228  0.00  0.00    +0.000 C 
ATOM      3  C   UNL     1      -5.723  14.235  22.288  0.00  0.00    +0.000 A 
ATOM      4  C   UNL     1      -6.976  14.859  22.347  0.00  0.00    +0.000 A 
ATOM      5  C   UNL     1      -7.916  14.447  23.289  0.00  0.00    +0.000 A 
ATOM      6  C   UNL     1      -7.599  13.432  24.188  0.00  0.00    +0.000 A 
ATOM      7  C   UNL     1      -6.333  12.838  24.158  0.00  0.00    +0.000 A 
ATOM      8  C   UNL     1      -5.387  13.227  23.199  0.00  0.00    +0.000 A 
ATOM      9  C   UNL     1      -3.986  12.660  23.198  0.00  0.00    +0.000 C 
ATOM     10  N   UNL     1      -3.262  12.620  21.880  0.00  0.00    +0.000 NA
ENDROOT
BRANCH   1  14
ATOM     11  C   UNL     1      -5.141  10.932  17.963  0.00  0.00    +0.000 C 
ATOM     12  N   UNL     1      -4.264  11.732  18.801  0.00  0.00    +0.000 N 
ATOM     13  C   UNL     1      -2.889  11.885  18.367  0.00  0.00    +0.000 C 
ATOM     14  C   UNL     1      -4.834  12.402  19.888  0.00  0.00    +0.000 C 
ATOM     15  O   UNL     1      -6.039  12.260  20.124  0.00  0.00    +0.000 OA
ENDBRANCH   1  14
BRANCH  10  16
ATOM     16  S   UNL     1      -1.592  12.970  21.996  0.00  0.00    +0.000 S 
ATOM     17  O   UNL     1      -1.191  13.737  20.838  0.00  0.00    +0.000 OA
ATOM     18  O   UNL     1      -1.346  13.479  23.329  0.00  0.00    +0.000 OA
BRANCH  16  19
ATOM     19  C   UNL     1      -0.776  11.397  21.834  0.00  0.00    +0.000 A 
ATOM     20  C   UNL     1      -0.812  10.482  22.894  0.00  0.00    +0.000 A 
ATOM     21  C   UNL     1      -0.302   9.195  22.712  0.00  0.00    +0.000 A 
ATOM     22  C   UNL     1       0.238   8.837  21.481  0.00  0.00    +0.000 A 
ATOM     23  F   UNL     1       0.706   7.594  21.302  0.00  0.00    +0.000 F 
ATOM     24  C   UNL     1       0.285   9.745  20.427  0.00  0.00    +0.000 A 
ATOM     25  C   UNL     1      -0.223  11.034  20.600  0.00  0.00    +0.000 A 
ENDBRANCH  16  19
ENDBRANCH  10  16
TORSDOF 3
ENDMDL
