MODEL 1
REMARK VINA RESULT:      -7.9      0.000      0.000
REMARK  Name = 
REMARK  10 active torsions:
REMARK  status: ('A' for Active; 'I' for Inactive)
REMARK    1  A    between atoms: C_1  and  C_2
REMARK    2  A    between atoms: C_2  and  O_3
REMARK    3  A    between atoms: O_3  and  C_4
REMARK    4  A    between atoms: C_7  and  C_8
REMARK    5  A    between atoms: C_8  and  C_9
REMARK    6  A    between atoms: C_8  and  N_10
REMARK    7  A    between atoms: C_11  and  C_13
REMARK    8  A    between atoms: C_24  and  O_25
REMARK    9  A    between atoms: O_25  and  C_26
REMARK   10  A    between atoms: C_26  and  C_27
REMARK                            x       y       z     vdW  Elec       q    Type
REMARK                         _______ _______ _______ _____ _____    ______ ____
ROOT
ATOM      1  C   UNL     1       3.047   5.901  19.041  0.00  0.00    +0.000 C 
ATOM      2  C   UNL     1       2.008   4.791  18.809  0.00  0.00    +0.000 C 
ENDROOT
BRANCH   1   6
ATOM      3  C   UNL     1       0.945   9.706  19.544  0.00  0.00    +0.000 A 
ATOM      4  C   UNL     1       1.436   9.292  18.311  0.00  0.00    +0.000 A 
ATOM      5  C   UNL     1       2.105   8.069  18.179  0.00  0.00    +0.000 A 
ATOM      6  C   UNL     1       2.348   7.232  19.290  0.00  0.00    +0.000 A 
ATOM      7  C   UNL     1       1.916   7.697  20.536  0.00  0.00    +0.000 A 
ATOM      8  C   UNL     1       1.246   8.930  20.682  0.00  0.00    +0.000 A 
BRANCH   3   9
ATOM      9  O   UNL     1       0.171  10.831  19.690  0.00  0.00    +0.000 OA
BRANCH   9  11
ATOM     10  C   UNL     1      -1.976  11.902  19.655  0.00  0.00    +0.000 C 
ATOM     11  C   UNL     1      -1.091  10.841  19.020  0.00  0.00    +0.000 C 
ENDBRANCH   9  11
ENDBRANCH   3   9
BRANCH   8  12
ATOM     12  O   UNL     1       0.927   9.211  21.988  0.00  0.00    +0.000 OA
BRANCH  12  13
ATOM     13  C   UNL     1      -0.427   9.026  22.405  0.00  0.00    +0.000 C 
ATOM     14  C   UNL     1      -0.897  10.318  23.054  0.00  0.00    +0.000 C 
ENDBRANCH  12  13
ENDBRANCH   8  12
ENDBRANCH   1   6
BRANCH   1  15
ATOM     15  N   UNL     1       4.054   5.877  17.969  0.00  0.00    +0.000 N 
ATOM     16  C   UNL     1       4.975   4.837  17.914  0.00  0.00    +0.000 C 
ATOM     17  O   UNL     1       5.070   4.019  18.831  0.00  0.00    +0.000 OA
ATOM     18  H   UNL     1       3.902   6.429  17.135  0.00  0.00    +0.000 HD
BRANCH  16  19
ATOM     19  C   UNL     1       5.758   4.664  16.590  0.00  0.00    +0.000 C 
ATOM     20  C   UNL     1       6.273   6.022  16.100  0.00  0.00    +0.000 C 
ATOM     21  O   UNL     1       7.397   5.761  15.233  0.00  0.00    +0.000 OA
ATOM     22  C   UNL     1       6.998   4.902  14.236  0.00  0.00    +0.000 A 
ATOM     23  C   UNL     1       7.795   4.860  13.093  0.00  0.00    +0.000 A 
ATOM     24  C   UNL     1       7.338   4.176  11.970  0.00  0.00    +0.000 A 
ATOM     25  C   UNL     1       6.090   3.548  12.000  0.00  0.00    +0.000 A 
ATOM     26  C   UNL     1       5.340   3.511  13.184  0.00  0.00    +0.000 A 
ATOM     27  C   UNL     1       5.815   4.148  14.326  0.00  0.00    +0.000 A 
ATOM     28  O   UNL     1       5.075   4.040  15.493  0.00  0.00    +0.000 OA
ENDBRANCH  16  19
ENDBRANCH   1  15
TORSDOF 7
ENDMDL
MODEL 2
REMARK VINA RESULT:      -7.6      0.939      2.253
REMARK  Name = 
REMARK  10 active torsions:
REMARK  status: ('A' for Active; 'I' for Inactive)
REMARK    1  A    between atoms: C_1  and  C_2
REMARK    2  A    between atoms: C_2  and  O_3
REMARK    3  A    between atoms: O_3  and  C_4
REMARK    4  A    between atoms: C_7  and  C_8
REMARK    5  A    between atoms: C_8  and  C_9
REMARK    6  A    between atoms: C_8  and  N_10
REMARK    7  A    between atoms: C_11  and  C_13
REMARK    8  A    between atoms: C_24  and  O_25
REMARK    9  A    between atoms: O_25  and  C_26
REMARK   10  A    between atoms: C_26  and  C_27
REMARK                            x       y       z     vdW  Elec       q    Type
REMARK                         _______ _______ _______ _____ _____    ______ ____
ROOT
ATOM      1  C   UNL     1       3.021   4.944  19.072  0.00  0.00    +0.000 C 
ATOM      2  C   UNL     1       1.985   3.848  18.770  0.00  0.00    +0.000 C 
ENDROOT
BRANCH   1   6
ATOM      3  C   UNL     1       1.074   8.430  20.862  0.00  0.00    +0.000 A 
ATOM      4  C   UNL     1       0.996   7.166  21.435  0.00  0.00    +0.000 A 
ATOM      5  C   UNL     1       1.628   6.068  20.841  0.00  0.00    +0.000 A 
ATOM      6  C   UNL     1       2.329   6.186  19.620  0.00  0.00    +0.000 A 
ATOM      7  C   UNL     1       2.335   7.447  19.016  0.00  0.00    +0.000 A 
ATOM      8  C   UNL     1       1.696   8.560  19.604  0.00  0.00    +0.000 A 
BRANCH   3   9
ATOM      9  O   UNL     1       0.581   9.553  21.480  0.00  0.00    +0.000 OA
BRANCH   9  11
ATOM     10  C   UNL     1      -0.921  10.368  23.165  0.00  0.00    +0.000 C 
ATOM     11  C   UNL     1       0.240   9.435  22.863  0.00  0.00    +0.000 C 
ENDBRANCH   9  11
ENDBRANCH   3   9
BRANCH   8  12
ATOM     12  O   UNL     1       1.800   9.697  18.840  0.00  0.00    +0.000 OA
BRANCH  12  13
ATOM     13  C   UNL     1       0.970   9.809  17.683  0.00  0.00    +0.000 C 
ATOM     14  C   UNL     1      -0.401  10.285  18.136  0.00  0.00    +0.000 C 
ENDBRANCH  12  13
ENDBRANCH   8  12
ENDBRANCH   1   6
BRANCH   1  15
ATOM     15  N   UNL     1       3.899   5.140  17.908  0.00  0.00    +0.000 N 
ATOM     16  C   UNL     1       5.203   4.660  17.941  0.00  0.00    +0.000 C 
ATOM     17  O   UNL     1       5.693   4.214  18.980  0.00  0.00    +0.000 OA
ATOM     18  H   UNL     1       3.486   5.351  17.008  0.00  0.00    +0.000 HD
BRANCH  16  19
ATOM     19  C   UNL     1       5.949   4.566  16.588  0.00  0.00    +0.000 C 
ATOM     20  C   UNL     1       6.377   5.963  16.124  0.00  0.00    +0.000 C 
ATOM     21  O   UNL     1       7.484   5.787  15.215  0.00  0.00    +0.000 OA
ATOM     22  C   UNL     1       7.098   4.937  14.204  0.00  0.00    +0.000 A 
ATOM     23  C   UNL     1       7.857   4.969  13.037  0.00  0.00    +0.000 A 
ATOM     24  C   UNL     1       7.400   4.295  11.908  0.00  0.00    +0.000 A 
ATOM     25  C   UNL     1       6.187   3.602  11.959  0.00  0.00    +0.000 A 
ATOM     26  C   UNL     1       5.479   3.491  13.163  0.00  0.00    +0.000 A 
ATOM     27  C   UNL     1       5.959   4.120  14.309  0.00  0.00    +0.000 A 
ATOM     28  O   UNL     1       5.264   3.939  15.495  0.00  0.00    +0.000 OA
ENDBRANCH  16  19
ENDBRANCH   1  15
TORSDOF 7
ENDMDL
MODEL 3
REMARK VINA RESULT:      -7.5      1.073      2.201
REMARK  Name = 
REMARK  10 active torsions:
REMARK  status: ('A' for Active; 'I' for Inactive)
REMARK    1  A    between atoms: C_1  and  C_2
REMARK    2  A    between atoms: C_2  and  O_3
REMARK    3  A    between atoms: O_3  and  C_4
REMARK    4  A    between atoms: C_7  and  C_8
REMARK    5  A    between atoms: C_8  and  C_9
REMARK    6  A    between atoms: C_8  and  N_10
REMARK    7  A    between atoms: C_11  and  C_13
REMARK    8  A    between atoms: C_24  and  O_25
REMARK    9  A    between atoms: O_25  and  C_26
REMARK   10  A    between atoms: C_26  and  C_27
REMARK                            x       y       z     vdW  Elec       q    Type
REMARK                         _______ _______ _______ _____ _____    ______ ____
ROOT
ATOM      1  C   UNL     1       3.077   5.720  19.375  0.00  0.00    +0.000 C 
ATOM      2  C   UNL     1       2.139   4.504  19.281  0.00  0.00    +0.000 C 
ENDROOT
BRANCH   1   6
ATOM      3  C   UNL     1       0.828   9.334  20.388  0.00  0.00    +0.000 A 
ATOM      4  C   UNL     1       0.924   8.257  21.261  0.00  0.00    +0.000 A 
ATOM      5  C   UNL     1       1.650   7.112  20.911  0.00  0.00    +0.000 A 
ATOM      6  C   UNL     1       2.273   6.985  19.650  0.00  0.00    +0.000 A 
ATOM      7  C   UNL     1       2.103   8.044  18.753  0.00  0.00    +0.000 A 
ATOM      8  C   UNL     1       1.368   9.201  19.093  0.00  0.00    +0.000 A 
BRANCH   3   9
ATOM      9  O   UNL     1       0.238  10.523  20.744  0.00  0.00    +0.000 OA
BRANCH   9  11
ATOM     10  C   UNL     1      -1.256  11.450  22.376  0.00  0.00    +0.000 C 
ATOM     11  C   UNL     1       0.087  10.778  22.142  0.00  0.00    +0.000 C 
ENDBRANCH   9  11
ENDBRANCH   3   9
BRANCH   8  12
ATOM     12  O   UNL     1       1.303  10.110  18.066  0.00  0.00    +0.000 OA
BRANCH  12  13
ATOM     13  C   UNL     1       2.406  10.999  17.883  0.00  0.00    +0.000 C 
ATOM     14  C   UNL     1       2.011  12.357  18.443  0.00  0.00    +0.000 C 
ENDBRANCH  12  13
ENDBRANCH   8  12
ENDBRANCH   1   6
BRANCH   1  15
ATOM     15  N   UNL     1       3.976   5.752  18.212  0.00  0.00    +0.000 N 
ATOM     16  C   UNL     1       5.152   5.010  18.231  0.00  0.00    +0.000 C 
ATOM     17  O   UNL     1       5.538   4.451  19.259  0.00  0.00    +0.000 OA
ATOM     18  H   UNL     1       3.618   6.062  17.318  0.00  0.00    +0.000 HD
BRANCH  16  19
ATOM     19  C   UNL     1       5.863   4.790  16.874  0.00  0.00    +0.000 C 
ATOM     20  C   UNL     1       6.386   6.124  16.330  0.00  0.00    +0.000 C 
ATOM     21  O   UNL     1       7.459   5.817  15.414  0.00  0.00    +0.000 OA
ATOM     22  C   UNL     1       6.990   4.948  14.457  0.00  0.00    +0.000 A 
ATOM     23  C   UNL     1       7.728   4.862  13.277  0.00  0.00    +0.000 A 
ATOM     24  C   UNL     1       7.200   4.166  12.193  0.00  0.00    +0.000 A 
ATOM     25  C   UNL     1       5.939   3.572  12.299  0.00  0.00    +0.000 A 
ATOM     26  C   UNL     1       5.248   3.578  13.518  0.00  0.00    +0.000 A 
ATOM     27  C   UNL     1       5.796   4.227  14.621  0.00  0.00    +0.000 A 
ATOM     28  O   UNL     1       5.112   4.161  15.826  0.00  0.00    +0.000 OA
ENDBRANCH  16  19
ENDBRANCH   1  15
TORSDOF 7
ENDMDL
MODEL 4
REMARK VINA RESULT:      -7.4      3.722      5.992
REMARK  Name = 
REMARK  10 active torsions:
REMARK  status: ('A' for Active; 'I' for Inactive)
REMARK    1  A    between atoms: C_1  and  C_2
REMARK    2  A    between atoms: C_2  and  O_3
REMARK    3  A    between atoms: O_3  and  C_4
REMARK    4  A    between atoms: C_7  and  C_8
REMARK    5  A    between atoms: C_8  and  C_9
REMARK    6  A    between atoms: C_8  and  N_10
REMARK    7  A    between atoms: C_11  and  C_13
REMARK    8  A    between atoms: C_24  and  O_25
REMARK    9  A    between atoms: O_25  and  C_26
REMARK   10  A    between atoms: C_26  and  C_27
REMARK                            x       y       z     vdW  Elec       q    Type
REMARK                         _______ _______ _______ _____ _____    ______ ____
ROOT
ATOM      1  C   UNL     1       0.803  10.573  19.258  0.00  0.00    +0.000 C 
ATOM      2  C   UNL     1       1.149  11.391  20.514  0.00  0.00    +0.000 C 
ENDROOT
BRANCH   1   6
ATOM      3  C   UNL     1      -3.358  11.448  18.222  0.00  0.00    +0.000 A 
ATOM      4  C   UNL     1      -2.771  11.928  19.387  0.00  0.00    +0.000 A 
ATOM      5  C   UNL     1      -1.438  11.633  19.694  0.00  0.00    +0.000 A 
ATOM      6  C   UNL     1      -0.651  10.804  18.864  0.00  0.00    +0.000 A 
ATOM      7  C   UNL     1      -1.277  10.265  17.736  0.00  0.00    +0.000 A 
ATOM      8  C   UNL     1      -2.623  10.552  17.419  0.00  0.00    +0.000 A 
BRANCH   3   9
ATOM      9  O   UNL     1      -4.617  11.822  17.820  0.00  0.00    +0.000 OA
BRANCH   9  11
ATOM     10  C   UNL     1      -6.437  10.637  18.840  0.00  0.00    +0.000 C 
ATOM     11  C   UNL     1      -5.619  11.918  18.834  0.00  0.00    +0.000 C 
ENDBRANCH   9  11
ENDBRANCH   3   9
BRANCH   8  12
ATOM     12  O   UNL     1      -3.051   9.906  16.285  0.00  0.00    +0.000 OA
BRANCH  12  13
ATOM     13  C   UNL     1      -3.263  10.687  15.107  0.00  0.00    +0.000 C 
ATOM     14  C   UNL     1      -2.940   9.815  13.904  0.00  0.00    +0.000 C 
ENDBRANCH  12  13
ENDBRANCH   8  12
ENDBRANCH   1   6
BRANCH   1  15
ATOM     15  N   UNL     1       1.222   9.175  19.438  0.00  0.00    +0.000 N 
ATOM     16  C   UNL     1       1.984   8.553  18.456  0.00  0.00    +0.000 C 
ATOM     17  O   UNL     1       2.184   9.093  17.366  0.00  0.00    +0.000 OA
ATOM     18  H   UNL     1       1.212   8.771  20.366  0.00  0.00    +0.000 HD
BRANCH  16  19
ATOM     19  C   UNL     1       2.694   7.235  18.849  0.00  0.00    +0.000 C 
ATOM     20  C   UNL     1       3.667   6.811  17.744  0.00  0.00    +0.000 C 
ATOM     21  O   UNL     1       4.653   5.951  18.354  0.00  0.00    +0.000 OA
ATOM     22  C   UNL     1       4.008   4.913  18.984  0.00  0.00    +0.000 A 
ATOM     23  C   UNL     1       4.772   3.782  19.266  0.00  0.00    +0.000 A 
ATOM     24  C   UNL     1       4.138   2.625  19.708  0.00  0.00    +0.000 A 
ATOM     25  C   UNL     1       2.748   2.609  19.856  0.00  0.00    +0.000 A 
ATOM     26  C   UNL     1       1.998   3.778  19.667  0.00  0.00    +0.000 A 
ATOM     27  C   UNL     1       2.634   4.953  19.276  0.00  0.00    +0.000 A 
ATOM     28  O   UNL     1       1.869   6.103  19.155  0.00  0.00    +0.000 OA
ENDBRANCH  16  19
ENDBRANCH   1  15
TORSDOF 7
ENDMDL
MODEL 5
REMARK VINA RESULT:      -7.3      4.502      6.878
REMARK  Name = 
REMARK  10 active torsions:
REMARK  status: ('A' for Active; 'I' for Inactive)
REMARK    1  A    between atoms: C_1  and  C_2
REMARK    2  A    between atoms: C_2  and  O_3
REMARK    3  A    between atoms: O_3  and  C_4
REMARK    4  A    between atoms: C_7  and  C_8
REMARK    5  A    between atoms: C_8  and  C_9
REMARK    6  A    between atoms: C_8  and  N_10
REMARK    7  A    between atoms: C_11  and  C_13
REMARK    8  A    between atoms: C_24  and  O_25
REMARK    9  A    between atoms: O_25  and  C_26
REMARK   10  A    between atoms: C_26  and  C_27
REMARK                            x       y       z     vdW  Elec       q    Type
REMARK                         _______ _______ _______ _____ _____    ______ ____
ROOT
ATOM      1  C   UNL     1       6.658   5.957  16.721  0.00  0.00    +0.000 C 
ATOM      2  C   UNL     1       7.015   5.517  15.291  0.00  0.00    +0.000 C 
ENDROOT
BRANCH   1   6
ATOM      3  C   UNL     1       2.611   4.622  17.716  0.00  0.00    +0.000 A 
ATOM      4  C   UNL     1       3.544   3.774  17.131  0.00  0.00    +0.000 A 
ATOM      5  C   UNL     1       4.832   4.228  16.822  0.00  0.00    +0.000 A 
ATOM      6  C   UNL     1       5.222   5.567  17.049  0.00  0.00    +0.000 A 
ATOM      7  C   UNL     1       4.249   6.428  17.567  0.00  0.00    +0.000 A 
ATOM      8  C   UNL     1       2.946   5.982  17.877  0.00  0.00    +0.000 A 
BRANCH   3   9
ATOM      9  O   UNL     1       1.386   4.182  18.153  0.00  0.00    +0.000 OA
BRANCH   9  11
ATOM     10  C   UNL     1       1.112   3.931  20.524  0.00  0.00    +0.000 C 
ATOM     11  C   UNL     1       1.382   3.218  19.209  0.00  0.00    +0.000 C 
ENDBRANCH   9  11
ENDBRANCH   3   9
BRANCH   8  12
ATOM     12  O   UNL     1       2.140   6.987  18.353  0.00  0.00    +0.000 OA
BRANCH  12  13
ATOM     13  C   UNL     1       2.370   8.315  17.879  0.00  0.00    +0.000 C 
ATOM     14  C   UNL     1       1.534   9.264  18.723  0.00  0.00    +0.000 C 
ENDBRANCH  12  13
ENDBRANCH   8  12
ENDBRANCH   1   6
BRANCH   1  15
ATOM     15  N   UNL     1       7.016   7.370  16.915  0.00  0.00    +0.000 N 
ATOM     16  C   UNL     1       7.826   7.734  17.985  0.00  0.00    +0.000 C 
ATOM     17  O   UNL     1       8.123   6.924  18.865  0.00  0.00    +0.000 OA
ATOM     18  H   UNL     1       6.925   8.015  16.140  0.00  0.00    +0.000 HD
BRANCH  16  19
ATOM     19  C   UNL     1       8.462   9.144  17.935  0.00  0.00    +0.000 C 
ATOM     20  C   UNL     1       9.060   9.502  19.300  0.00  0.00    +0.000 C 
ATOM     21  O   UNL     1      10.067  10.509  19.071  0.00  0.00    +0.000 OA
ATOM     22  C   UNL     1       9.496  11.564  18.398  0.00  0.00    +0.000 A 
ATOM     23  C   UNL     1      10.175  12.779  18.451  0.00  0.00    +0.000 A 
ATOM     24  C   UNL     1       9.552  13.929  17.972  0.00  0.00    +0.000 A 
ATOM     25  C   UNL     1       8.256  13.850  17.455  0.00  0.00    +0.000 A 
ATOM     26  C   UNL     1       7.619  12.610  17.314  0.00  0.00    +0.000 A 
ATOM     27  C   UNL     1       8.259  11.450  17.742  0.00  0.00    +0.000 A 
ATOM     28  O   UNL     1       7.623  10.236  17.533  0.00  0.00    +0.000 OA
ENDBRANCH  16  19
ENDBRANCH   1  15
TORSDOF 7
ENDMDL
MODEL 6
REMARK VINA RESULT:      -7.3      1.831      8.880
REMARK  Name = 
REMARK  10 active torsions:
REMARK  status: ('A' for Active; 'I' for Inactive)
REMARK    1  A    between atoms: C_1  and  C_2
REMARK    2  A    between atoms: C_2  and  O_3
REMARK    3  A    between atoms: O_3  and  C_4
REMARK    4  A    between atoms: C_7  and  C_8
REMARK    5  A    between atoms: C_8  and  C_9
REMARK    6  A    between atoms: C_8  and  N_10
REMARK    7  A    between atoms: C_11  and  C_13
REMARK    8  A    between atoms: C_24  and  O_25
REMARK    9  A    between atoms: O_25  and  C_26
REMARK   10  A    between atoms: C_26  and  C_27
REMARK                            x       y       z     vdW  Elec       q    Type
REMARK                         _______ _______ _______ _____ _____    ______ ____
ROOT
ATOM      1  C   UNL     1       2.198   5.013  20.138  0.00  0.00    +0.000 C 
ATOM      2  C   UNL     1       2.336   4.131  21.390  0.00  0.00    +0.000 C 
ENDROOT
BRANCH   1   6
ATOM      3  C   UNL     1       5.137   4.048  17.043  0.00  0.00    +0.000 A 
ATOM      4  C   UNL     1       3.774   3.859  16.850  0.00  0.00    +0.000 A 
ATOM      5  C   UNL     1       2.855   4.176  17.858  0.00  0.00    +0.000 A 
ATOM      6  C   UNL     1       3.273   4.654  19.119  0.00  0.00    +0.000 A 
ATOM      7  C   UNL     1       4.651   4.767  19.327  0.00  0.00    +0.000 A 
ATOM      8  C   UNL     1       5.587   4.445  18.319  0.00  0.00    +0.000 A 
BRANCH   3   9
ATOM      9  O   UNL     1       6.057   3.874  16.038  0.00  0.00    +0.000 OA
BRANCH   9  11
ATOM     10  C   UNL     1       6.974   4.563  13.931  0.00  0.00    +0.000 C 
ATOM     11  C   UNL     1       5.705   4.371  14.745  0.00  0.00    +0.000 C 
ENDBRANCH   9  11
ENDBRANCH   3   9
BRANCH   8  12
ATOM     12  O   UNL     1       6.888   4.602  18.732  0.00  0.00    +0.000 OA
BRANCH  12  13
ATOM     13  C   UNL     1       7.335   5.920  19.056  0.00  0.00    +0.000 C 
ATOM     14  C   UNL     1       7.491   6.694  17.756  0.00  0.00    +0.000 C 
ENDBRANCH  12  13
ENDBRANCH   8  12
ENDBRANCH   1   6
BRANCH   1  15
ATOM     15  N   UNL     1       2.109   6.428  20.529  0.00  0.00    +0.000 N 
ATOM     16  C   UNL     1       1.968   7.405  19.550  0.00  0.00    +0.000 C 
ATOM     17  O   UNL     1       2.074   7.130  18.353  0.00  0.00    +0.000 OA
ATOM     18  H   UNL     1       1.861   6.663  21.482  0.00  0.00    +0.000 HD
BRANCH  16  19
ATOM     19  C   UNL     1       1.517   8.809  20.021  0.00  0.00    +0.000 C 
ATOM     20  C   UNL     1       0.996   8.740  21.460  0.00  0.00    +0.000 C 
ATOM     21  O   UNL     1       1.111  10.067  22.017  0.00  0.00    +0.000 OA
ATOM     22  C   UNL     1       0.440  10.950  21.203  0.00  0.00    +0.000 A 
ATOM     23  C   UNL     1       0.086  12.174  21.767  0.00  0.00    +0.000 A 
ATOM     24  C   UNL     1      -0.770  13.022  21.070  0.00  0.00    +0.000 A 
ATOM     25  C   UNL     1      -1.267  12.634  19.823  0.00  0.00    +0.000 A 
ATOM     26  C   UNL     1      -0.829  11.447  19.219  0.00  0.00    +0.000 A 
ATOM     27  C   UNL     1       0.069  10.620  19.888  0.00  0.00    +0.000 A 
ATOM     28  O   UNL     1       0.526   9.486  19.235  0.00  0.00    +0.000 OA
ENDBRANCH  16  19
ENDBRANCH   1  15
TORSDOF 7
ENDMDL
MODEL 7
REMARK VINA RESULT:      -7.2      3.500     10.103
REMARK  Name = 
REMARK  10 active torsions:
REMARK  status: ('A' for Active; 'I' for Inactive)
REMARK    1  A    between atoms: C_1  and  C_2
REMARK    2  A    between atoms: C_2  and  O_3
REMARK    3  A    between atoms: O_3  and  C_4
REMARK    4  A    between atoms: C_7  and  C_8
REMARK    5  A    between atoms: C_8  and  C_9
REMARK    6  A    between atoms: C_8  and  N_10
REMARK    7  A    between atoms: C_11  and  C_13
REMARK    8  A    between atoms: C_24  and  O_25
REMARK    9  A    between atoms: O_25  and  C_26
REMARK   10  A    between atoms: C_26  and  C_27
REMARK                            x       y       z     vdW  Elec       q    Type
REMARK                         _______ _______ _______ _____ _____    ______ ____
ROOT
ATOM      1  C   UNL     1       1.685   9.266  18.830  0.00  0.00    +0.000 C 
ATOM      2  C   UNL     1       0.878   9.442  17.533  0.00  0.00    +0.000 C 
ENDROOT
BRANCH   1   6
ATOM      3  C   UNL     1       3.435   5.258  18.994  0.00  0.00    +0.000 A 
ATOM      4  C   UNL     1       3.659   6.118  17.925  0.00  0.00    +0.000 A 
ATOM      5  C   UNL     1       3.087   7.395  17.898  0.00  0.00    +0.000 A 
ATOM      6  C   UNL     1       2.227   7.845  18.925  0.00  0.00    +0.000 A 
ATOM      7  C   UNL     1       1.948   6.941  19.955  0.00  0.00    +0.000 A 
ATOM      8  C   UNL     1       2.516   5.649  19.989  0.00  0.00    +0.000 A 
BRANCH   3   9
ATOM      9  O   UNL     1       4.081   4.053  19.121  0.00  0.00    +0.000 OA
BRANCH   9  11
ATOM     10  C   UNL     1       3.536   1.797  18.512  0.00  0.00    +0.000 C 
ATOM     11  C   UNL     1       4.001   3.155  18.012  0.00  0.00    +0.000 C 
ENDBRANCH   9  11
ENDBRANCH   3   9
BRANCH   8  12
ATOM     12  O   UNL     1       2.097   4.913  21.071  0.00  0.00    +0.000 OA
BRANCH  12  13
ATOM     13  C   UNL     1       1.202   3.824  20.838  0.00  0.00    +0.000 C 
ATOM     14  C   UNL     1       1.709   2.625  21.624  0.00  0.00    +0.000 C 
ENDBRANCH  12  13
ENDBRANCH   8  12
ENDBRANCH   1   6
BRANCH   1  15
ATOM     15  N   UNL     1       0.902   9.749  19.978  0.00  0.00    +0.000 N 
ATOM     16  C   UNL     1       0.890  11.106  20.281  0.00  0.00    +0.000 C 
ATOM     17  O   UNL     1       1.644  11.895  19.708  0.00  0.00    +0.000 OA
ATOM     18  H   UNL     1       0.166   9.166  20.355  0.00  0.00    +0.000 HD
BRANCH  16  19
ATOM     19  C   UNL     1      -0.215  11.599  21.246  0.00  0.00    +0.000 C 
ATOM     20  C   UNL     1      -0.596  10.482  22.225  0.00  0.00    +0.000 C 
ATOM     21  O   UNL     1      -1.176  11.115  23.385  0.00  0.00    +0.000 OA
ATOM     22  C   UNL     1      -2.223  11.909  22.981  0.00  0.00    +0.000 A 
ATOM     23  C   UNL     1      -3.151  12.265  23.958  0.00  0.00    +0.000 A 
ATOM     24  C   UNL     1      -4.336  12.887  23.577  0.00  0.00    +0.000 A 
ATOM     25  C   UNL     1      -4.584  13.138  22.225  0.00  0.00    +0.000 A 
ATOM     26  C   UNL     1      -3.605  12.868  21.259  0.00  0.00    +0.000 A 
ATOM     27  C   UNL     1      -2.395  12.295  21.640  0.00  0.00    +0.000 A 
ATOM     28  O   UNL     1      -1.429  12.097  20.666  0.00  0.00    +0.000 OA
ENDBRANCH  16  19
ENDBRANCH   1  15
TORSDOF 7
ENDMDL
MODEL 8
REMARK VINA RESULT:      -7.2      1.818      9.049
REMARK  Name = 
REMARK  10 active torsions:
REMARK  status: ('A' for Active; 'I' for Inactive)
REMARK    1  A    between atoms: C_1  and  C_2
REMARK    2  A    between atoms: C_2  and  O_3
REMARK    3  A    between atoms: O_3  and  C_4
REMARK    4  A    between atoms: C_7  and  C_8
REMARK    5  A    between atoms: C_8  and  C_9
REMARK    6  A    between atoms: C_8  and  N_10
REMARK    7  A    between atoms: C_11  and  C_13
REMARK    8  A    between atoms: C_24  and  O_25
REMARK    9  A    between atoms: O_25  and  C_26
REMARK   10  A    between atoms: C_26  and  C_27
REMARK                            x       y       z     vdW  Elec       q    Type
REMARK                         _______ _______ _______ _____ _____    ______ ____
ROOT
ATOM      1  C   UNL     1       2.831   5.371  19.339  0.00  0.00    +0.000 C 
ATOM      2  C   UNL     1       2.894   4.324  20.463  0.00  0.00    +0.000 C 
ENDROOT
BRANCH   1   6
ATOM      3  C   UNL     1       6.200   4.976  16.574  0.00  0.00    +0.000 A 
ATOM      4  C   UNL     1       5.059   4.190  16.463  0.00  0.00    +0.000 A 
ATOM      5  C   UNL     1       3.996   4.337  17.362  0.00  0.00    +0.000 A 
ATOM      6  C   UNL     1       4.054   5.251  18.438  0.00  0.00    +0.000 A 
ATOM      7  C   UNL     1       5.239   5.980  18.582  0.00  0.00    +0.000 A 
ATOM      8  C   UNL     1       6.319   5.836  17.685  0.00  0.00    +0.000 A 
BRANCH   3   9
ATOM      9  O   UNL     1       7.205   4.955  15.638  0.00  0.00    +0.000 OA
BRANCH   9  11
ATOM     10  C   UNL     1       7.671   5.164  13.293  0.00  0.00    +0.000 C 
ATOM     11  C   UNL     1       6.885   4.412  14.355  0.00  0.00    +0.000 C 
ENDBRANCH   9  11
ENDBRANCH   3   9
BRANCH   8  12
ATOM     12  O   UNL     1       7.394   6.624  18.016  0.00  0.00    +0.000 OA
BRANCH  12  13
ATOM     13  C   UNL     1       7.511   7.901  17.384  0.00  0.00    +0.000 C 
ATOM     14  C   UNL     1       8.391   8.777  18.262  0.00  0.00    +0.000 C 
ENDBRANCH  12  13
ENDBRANCH   8  12
ENDBRANCH   1   6
BRANCH   1  15
ATOM     15  N   UNL     1       2.561   6.701  19.906  0.00  0.00    +0.000 N 
ATOM     16  C   UNL     1       2.093   7.719  19.082  0.00  0.00    +0.000 C 
ATOM     17  O   UNL     1       2.049   7.580  17.858  0.00  0.00    +0.000 OA
ATOM     18  H   UNL     1       2.436   6.796  20.906  0.00  0.00    +0.000 HD
BRANCH  16  19
ATOM     19  C   UNL     1       1.487   8.961  19.778  0.00  0.00    +0.000 C 
ATOM     20  C   UNL     1       1.111   8.624  21.225  0.00  0.00    +0.000 C 
ATOM     21  O   UNL     1       1.081   9.868  21.956  0.00  0.00    +0.000 OA
ATOM     22  C   UNL     1       0.220  10.734  21.324  0.00  0.00    +0.000 A 
ATOM     23  C   UNL     1      -0.257  11.803  22.080  0.00  0.00    +0.000 A 
ATOM     24  C   UNL     1      -1.286  12.591  21.572  0.00  0.00    +0.000 A 
ATOM     25  C   UNL     1      -1.830  12.297  20.318  0.00  0.00    +0.000 A 
ATOM     26  C   UNL     1      -1.279  11.283  19.523  0.00  0.00    +0.000 A 
ATOM     27  C   UNL     1      -0.215  10.526  20.004  0.00  0.00    +0.000 A 
ATOM     28  O   UNL     1       0.342   9.572  19.166  0.00  0.00    +0.000 OA
ENDBRANCH  16  19
ENDBRANCH   1  15
TORSDOF 7
ENDMDL
MODEL 9
REMARK VINA RESULT:      -7.1      3.465     10.374
REMARK  Name = 
REMARK  10 active torsions:
REMARK  status: ('A' for Active; 'I' for Inactive)
REMARK    1  A    between atoms: C_1  and  C_2
REMARK    2  A    between atoms: C_2  and  O_3
REMARK    3  A    between atoms: O_3  and  C_4
REMARK    4  A    between atoms: C_7  and  C_8
REMARK    5  A    between atoms: C_8  and  C_9
REMARK    6  A    between atoms: C_8  and  N_10
REMARK    7  A    between atoms: C_11  and  C_13
REMARK    8  A    between atoms: C_24  and  O_25
REMARK    9  A    between atoms: O_25  and  C_26
REMARK   10  A    between atoms: C_26  and  C_27
REMARK                            x       y       z     vdW  Elec       q    Type
REMARK                         _______ _______ _______ _____ _____    ______ ____
ROOT
ATOM      1  C   UNL     1       1.713   9.541  19.240  0.00  0.00    +0.000 C 
ATOM      2  C   UNL     1       1.790  10.217  17.861  0.00  0.00    +0.000 C 
ENDROOT
BRANCH   1   6
ATOM      3  C   UNL     1       3.119   5.419  18.817  0.00  0.00    +0.000 A 
ATOM      4  C   UNL     1       3.290   6.363  17.811  0.00  0.00    +0.000 A 
ATOM      5  C   UNL     1       2.829   7.675  17.973  0.00  0.00    +0.000 A 
ATOM      6  C   UNL     1       2.138   8.082  19.136  0.00  0.00    +0.000 A 
ATOM      7  C   UNL     1       1.907   7.102  20.107  0.00  0.00    +0.000 A 
ATOM      8  C   UNL     1       2.361   5.774  19.951  0.00  0.00    +0.000 A 
BRANCH   3   9
ATOM      9  O   UNL     1       3.670   4.163  18.751  0.00  0.00    +0.000 OA
BRANCH   9  11
ATOM     10  C   UNL     1       2.795   2.101  17.889  0.00  0.00    +0.000 C 
ATOM     11  C   UNL     1       3.460   3.425  17.545  0.00  0.00    +0.000 C 
ENDBRANCH   9  11
ENDBRANCH   3   9
BRANCH   8  12
ATOM     12  O   UNL     1       2.012   4.966  21.005  0.00  0.00    +0.000 OA
BRANCH  12  13
ATOM     13  C   UNL     1       1.116   3.881  20.753  0.00  0.00    +0.000 C 
ATOM     14  C   UNL     1       1.622   2.669  21.520  0.00  0.00    +0.000 C 
ENDBRANCH  12  13
ENDBRANCH   8  12
ENDBRANCH   1   6
BRANCH   1  15
ATOM     15  N   UNL     1       0.403   9.802  19.855  0.00  0.00    +0.000 N 
ATOM     16  C   UNL     1       0.272  10.827  20.786  0.00  0.00    +0.000 C 
ATOM     17  O   UNL     1       1.258  11.420  21.227  0.00  0.00    +0.000 OA
ATOM     18  H   UNL     1      -0.433   9.450  19.407  0.00  0.00    +0.000 HD
BRANCH  16  19
ATOM     19  C   UNL     1      -1.167  11.291  21.119  0.00  0.00    +0.000 C 
ATOM     20  C   UNL     1      -1.493  12.582  20.362  0.00  0.00    +0.000 C 
ATOM     21  O   UNL     1      -2.931  12.664  20.262  0.00  0.00    +0.000 OA
ATOM     22  C   UNL     1      -3.468  12.585  21.526  0.00  0.00    +0.000 A 
ATOM     23  C   UNL     1      -4.772  13.052  21.680  0.00  0.00    +0.000 A 
ATOM     24  C   UNL     1      -5.297  13.195  22.961  0.00  0.00    +0.000 A 
ATOM     25  C   UNL     1      -4.512  12.876  24.072  0.00  0.00    +0.000 A 
ATOM     26  C   UNL     1      -3.238  12.314  23.906  0.00  0.00    +0.000 A 
ATOM     27  C   UNL     1      -2.728  12.119  22.626  0.00  0.00    +0.000 A 
ATOM     28  O   UNL     1      -1.491  11.506  22.500  0.00  0.00    +0.000 OA
ENDBRANCH  16  19
ENDBRANCH   1  15
TORSDOF 7
ENDMDL
