MODEL 1
REMARK VINA RESULT:      -8.1      0.000      0.000
REMARK  Name = 
REMARK  3 active torsions:
REMARK  status: ('A' for Active; 'I' for Inactive)
REMARK    1  A    between atoms: C_1  and  C_2
REMARK    2  A    between atoms: C_7  and  C_8
REMARK    3  A    between atoms: C_13  and  O_14
REMARK                            x       y       z     vdW  Elec       q    Type
REMARK                         _______ _______ _______ _____ _____    ______ ____
ROOT
ATOM      1  C   UNL     1       1.918   8.296  19.297  0.00  0.00    +0.000 A 
ATOM      2  C   UNL     1       1.570   8.085  20.577  0.00  0.00    +0.000 A 
ATOM      3  C   UNL     1       0.732   9.053  21.271  0.00  0.00    +0.000 A 
ATOM      4  C   UNL     1       0.319   8.872  22.594  0.00  0.00    +0.000 A 
ATOM      5  C   UNL     1      -0.472   9.844  23.222  0.00  0.00    +0.000 A 
ATOM      6  C   UNL     1      -0.842  10.992  22.523  0.00  0.00    +0.000 A 
ATOM      7  C   UNL     1      -0.439  11.185  21.209  0.00  0.00    +0.000 A 
ATOM      8  C   UNL     1       0.342  10.208  20.599  0.00  0.00    +0.000 A 
ATOM      9  O   UNL     1       0.720  10.427  19.262  0.00  0.00    +0.000 OA
ATOM     10  C   UNL     1       1.477   9.498  18.550  0.00  0.00    +0.000 A 
ATOM     11  O   UNL     1       1.739   9.680  17.366  0.00  0.00    +0.000 OA
ENDROOT
BRANCH   1  18
ATOM     12  C   UNL     1       7.049   4.557  17.448  0.00  0.00    +0.000 C 
ATOM     13  C   UNL     1       5.768   4.139  16.715  0.00  0.00    +0.000 C 
ATOM     14  C   UNL     1       5.451   5.098  15.543  0.00  0.00    +0.000 C 
ATOM     15  C   UNL     1       5.116   6.528  16.003  0.00  0.00    +0.000 C 
ATOM     16  C   UNL     1       4.209   6.510  17.187  0.00  0.00    +0.000 A 
ATOM     17  N   UNL     1       3.568   7.651  17.616  0.00  0.00    +0.000 NA
ATOM     18  C   UNL     1       2.781   7.375  18.640  0.00  0.00    +0.000 A 
ATOM     19  S   UNL     1       2.874   5.729  19.190  0.00  0.00    +0.000 S 
ATOM     20  C   UNL     1       3.977   5.383  17.945  0.00  0.00    +0.000 A 
ATOM     21  C   UNL     1       4.566   4.034  17.689  0.00  0.00    +0.000 C 
ENDBRANCH   1  18
BRANCH   6  22
ATOM     22  O   UNL     1      -1.610  11.959  23.100  0.00  0.00    +0.000 OA
ATOM     23  H   UNL     1      -1.110  12.791  23.120  0.00  0.00    +0.000 HD
ENDBRANCH   6  22
TORSDOF 2
ENDMDL
MODEL 2
REMARK VINA RESULT:      -7.9      2.746      8.011
REMARK  Name = 
REMARK  3 active torsions:
REMARK  status: ('A' for Active; 'I' for Inactive)
REMARK    1  A    between atoms: C_1  and  C_2
REMARK    2  A    between atoms: C_7  and  C_8
REMARK    3  A    between atoms: C_13  and  O_14
REMARK                            x       y       z     vdW  Elec       q    Type
REMARK                         _______ _______ _______ _____ _____    ______ ____
ROOT
ATOM      1  C   UNL     1       2.522   7.166  18.768  0.00  0.00    +0.000 A 
ATOM      2  C   UNL     1       3.332   7.430  17.729  0.00  0.00    +0.000 A 
ATOM      3  C   UNL     1       4.136   6.365  17.146  0.00  0.00    +0.000 A 
ATOM      4  C   UNL     1       4.977   6.577  16.050  0.00  0.00    +0.000 A 
ATOM      5  C   UNL     1       5.744   5.522  15.538  0.00  0.00    +0.000 A 
ATOM      6  C   UNL     1       5.668   4.262  16.128  0.00  0.00    +0.000 A 
ATOM      7  C   UNL     1       4.838   4.036  17.218  0.00  0.00    +0.000 A 
ATOM      8  C   UNL     1       4.079   5.094  17.710  0.00  0.00    +0.000 A 
ATOM      9  O   UNL     1       3.236   4.828  18.805  0.00  0.00    +0.000 OA
ATOM     10  C   UNL     1       2.414   5.809  19.355  0.00  0.00    +0.000 A 
ATOM     11  O   UNL     1       1.640   5.538  20.267  0.00  0.00    +0.000 OA
ENDROOT
BRANCH   1  18
ATOM     12  C   UNL     1       0.594  12.887  21.464  0.00  0.00    +0.000 C 
ATOM     13  C   UNL     1      -0.609  11.983  21.168  0.00  0.00    +0.000 C 
ATOM     14  C   UNL     1      -0.770  10.887  22.249  0.00  0.00    +0.000 C 
ATOM     15  C   UNL     1       0.399   9.884  22.274  0.00  0.00    +0.000 C 
ATOM     16  C   UNL     1       0.790   9.484  20.892  0.00  0.00    +0.000 A 
ATOM     17  N   UNL     1       1.626   8.413  20.666  0.00  0.00    +0.000 NA
ATOM     18  C   UNL     1       1.780   8.220  19.368  0.00  0.00    +0.000 A 
ATOM     19  S   UNL     1       0.995   9.407  18.371  0.00  0.00    +0.000 S 
ATOM     20  C   UNL     1       0.381  10.161  19.764  0.00  0.00    +0.000 A 
ATOM     21  C   UNL     1      -0.514  11.358  19.752  0.00  0.00    +0.000 C 
ENDBRANCH   1  18
BRANCH   6  22
ATOM     22  O   UNL     1       6.399   3.211  15.659  0.00  0.00    +0.000 OA
ATOM     23  H   UNL     1       5.926   2.385  15.850  0.00  0.00    +0.000 HD
ENDBRANCH   6  22
TORSDOF 2
ENDMDL
MODEL 3
REMARK VINA RESULT:      -7.4      3.130      7.546
REMARK  Name = 
REMARK  3 active torsions:
REMARK  status: ('A' for Active; 'I' for Inactive)
REMARK    1  A    between atoms: C_1  and  C_2
REMARK    2  A    between atoms: C_7  and  C_8
REMARK    3  A    between atoms: C_13  and  O_14
REMARK                            x       y       z     vdW  Elec       q    Type
REMARK                         _______ _______ _______ _____ _____    ______ ____
ROOT
ATOM      1  C   UNL     1       2.425   6.707  19.037  0.00  0.00    +0.000 A 
ATOM      2  C   UNL     1       1.901   5.610  19.609  0.00  0.00    +0.000 A 
ATOM      3  C   UNL     1       2.429   4.295  19.278  0.00  0.00    +0.000 A 
ATOM      4  C   UNL     1       1.939   3.123  19.861  0.00  0.00    +0.000 A 
ATOM      5  C   UNL     1       2.470   1.880  19.494  0.00  0.00    +0.000 A 
ATOM      6  C   UNL     1       3.487   1.816  18.542  0.00  0.00    +0.000 A 
ATOM      7  C   UNL     1       3.984   2.970  17.954  0.00  0.00    +0.000 A 
ATOM      8  C   UNL     1       3.448   4.198  18.335  0.00  0.00    +0.000 A 
ATOM      9  O   UNL     1       3.985   5.350  17.731  0.00  0.00    +0.000 OA
ATOM     10  C   UNL     1       3.540   6.629  18.063  0.00  0.00    +0.000 A 
ATOM     11  O   UNL     1       4.067   7.621  17.573  0.00  0.00    +0.000 OA
ENDROOT
BRANCH   1  18
ATOM     12  C   UNL     1       1.513  13.085  20.519  0.00  0.00    +0.000 C 
ATOM     13  C   UNL     1       0.202  12.431  20.067  0.00  0.00    +0.000 C 
ATOM     14  C   UNL     1      -0.434  11.598  21.206  0.00  0.00    +0.000 C 
ATOM     15  C   UNL     1       0.418  10.383  21.617  0.00  0.00    +0.000 C 
ATOM     16  C   UNL     1       0.954   9.676  20.418  0.00  0.00    +0.000 A 
ATOM     17  N   UNL     1       1.522   8.425  20.518  0.00  0.00    +0.000 NA
ATOM     18  C   UNL     1       1.870   7.985  19.322  0.00  0.00    +0.000 A 
ATOM     19  S   UNL     1       1.616   9.127  18.037  0.00  0.00    +0.000 S 
ATOM     20  C   UNL     1       0.954  10.224  19.154  0.00  0.00    +0.000 A 
ATOM     21  C   UNL     1       0.408  11.568  18.796  0.00  0.00    +0.000 C 
ENDBRANCH   1  18
BRANCH   6  22
ATOM     22  O   UNL     1       4.028   0.625  18.159  0.00  0.00    +0.000 OA
ATOM     23  H   UNL     1       4.478   0.740  17.306  0.00  0.00    +0.000 HD
ENDBRANCH   6  22
TORSDOF 2
ENDMDL
MODEL 4
REMARK VINA RESULT:      -7.3      2.537      7.756
REMARK  Name = 
REMARK  3 active torsions:
REMARK  status: ('A' for Active; 'I' for Inactive)
REMARK    1  A    between atoms: C_1  and  C_2
REMARK    2  A    between atoms: C_7  and  C_8
REMARK    3  A    between atoms: C_13  and  O_14
REMARK                            x       y       z     vdW  Elec       q    Type
REMARK                         _______ _______ _______ _____ _____    ______ ____
ROOT
ATOM      1  C   UNL     1       1.751   8.290  19.663  0.00  0.00    +0.000 A 
ATOM      2  C   UNL     1       2.021   7.127  20.278  0.00  0.00    +0.000 A 
ATOM      3  C   UNL     1       2.708   6.066  19.556  0.00  0.00    +0.000 A 
ATOM      4  C   UNL     1       3.037   4.845  20.153  0.00  0.00    +0.000 A 
ATOM      5  C   UNL     1       3.683   3.850  19.408  0.00  0.00    +0.000 A 
ATOM      6  C   UNL     1       3.993   4.080  18.068  0.00  0.00    +0.000 A 
ATOM      7  C   UNL     1       3.673   5.287  17.461  0.00  0.00    +0.000 A 
ATOM      8  C   UNL     1       3.037   6.267  18.218  0.00  0.00    +0.000 A 
ATOM      9  O   UNL     1       2.740   7.484  17.578  0.00  0.00    +0.000 OA
ATOM     10  C   UNL     1       2.130   8.540  18.252  0.00  0.00    +0.000 A 
ATOM     11  O   UNL     1       1.942   9.614  17.691  0.00  0.00    +0.000 OA
ENDROOT
BRANCH   1  18
ATOM     12  C   UNL     1      -2.807  12.623  21.704  0.00  0.00    +0.000 C 
ATOM     13  C   UNL     1      -1.655  12.520  22.709  0.00  0.00    +0.000 C 
ATOM     14  C   UNL     1      -0.423  13.333  22.241  0.00  0.00    +0.000 C 
ATOM     15  C   UNL     1       0.213  12.781  20.952  0.00  0.00    +0.000 C 
ATOM     16  C   UNL     1       0.303  11.293  20.994  0.00  0.00    +0.000 A 
ATOM     17  N   UNL     1       1.062  10.595  20.081  0.00  0.00    +0.000 NA
ATOM     18  C   UNL     1       1.031   9.303  20.355  0.00  0.00    +0.000 A 
ATOM     19  S   UNL     1      -0.015   8.876  21.676  0.00  0.00    +0.000 S 
ATOM     20  C   UNL     1      -0.379  10.520  21.908  0.00  0.00    +0.000 A 
ATOM     21  C   UNL     1      -1.273  11.042  22.985  0.00  0.00    +0.000 C 
ENDBRANCH   1  18
BRANCH   6  22
ATOM     22  O   UNL     1       4.620   3.136  17.311  0.00  0.00    +0.000 OA
ATOM     23  H   UNL     1       4.356   2.254  17.620  0.00  0.00    +0.000 HD
ENDBRANCH   6  22
TORSDOF 2
ENDMDL
MODEL 5
REMARK VINA RESULT:      -7.3      2.352      3.552
REMARK  Name = 
REMARK  3 active torsions:
REMARK  status: ('A' for Active; 'I' for Inactive)
REMARK    1  A    between atoms: C_1  and  C_2
REMARK    2  A    between atoms: C_7  and  C_8
REMARK    3  A    between atoms: C_13  and  O_14
REMARK                            x       y       z     vdW  Elec       q    Type
REMARK                         _______ _______ _______ _____ _____    ______ ____
ROOT
ATOM      1  C   UNL     1       0.650   9.489  20.720  0.00  0.00    +0.000 A 
ATOM      2  C   UNL     1      -0.258  10.142  19.976  0.00  0.00    +0.000 A 
ATOM      3  C   UNL     1      -0.997  11.259  20.547  0.00  0.00    +0.000 A 
ATOM      4  C   UNL     1      -1.935  11.990  19.813  0.00  0.00    +0.000 A 
ATOM      5  C   UNL     1      -2.633  13.045  20.416  0.00  0.00    +0.000 A 
ATOM      6  C   UNL     1      -2.390  13.360  21.752  0.00  0.00    +0.000 A 
ATOM      7  C   UNL     1      -1.462  12.643  22.495  0.00  0.00    +0.000 A 
ATOM      8  C   UNL     1      -0.774  11.602  21.878  0.00  0.00    +0.000 A 
ATOM      9  O   UNL     1       0.171  10.906  22.654  0.00  0.00    +0.000 OA
ATOM     10  C   UNL     1       0.934   9.866  22.125  0.00  0.00    +0.000 A 
ATOM     11  O   UNL     1       1.798   9.318  22.801  0.00  0.00    +0.000 OA
ENDROOT
BRANCH   1  18
ATOM     12  C   UNL     1       2.252   3.937  17.507  0.00  0.00    +0.000 C 
ATOM     13  C   UNL     1       3.503   4.646  18.041  0.00  0.00    +0.000 C 
ATOM     14  C   UNL     1       3.701   4.377  19.552  0.00  0.00    +0.000 C 
ATOM     15  C   UNL     1       2.583   4.975  20.426  0.00  0.00    +0.000 C 
ATOM     16  C   UNL     1       2.234   6.354  19.978  0.00  0.00    +0.000 A 
ATOM     17  N   UNL     1       1.455   7.184  20.753  0.00  0.00    +0.000 NA
ATOM     18  C   UNL     1       1.330   8.365  20.175  0.00  0.00    +0.000 A 
ATOM     19  S   UNL     1       2.071   8.475  18.606  0.00  0.00    +0.000 S 
ATOM     20  C   UNL     1       2.625   6.877  18.764  0.00  0.00    +0.000 A 
ATOM     21  C   UNL     1       3.460   6.168  17.748  0.00  0.00    +0.000 C 
ENDBRANCH   1  18
BRANCH   6  22
ATOM     22  O   UNL     1      -3.050  14.378  22.374  0.00  0.00    +0.000 OA
ATOM     23  H   UNL     1      -2.416  15.081  22.591  0.00  0.00    +0.000 HD
ENDBRANCH   6  22
TORSDOF 2
ENDMDL
MODEL 6
REMARK VINA RESULT:      -7.3      2.546      7.836
REMARK  Name = 
REMARK  3 active torsions:
REMARK  status: ('A' for Active; 'I' for Inactive)
REMARK    1  A    between atoms: C_1  and  C_2
REMARK    2  A    between atoms: C_7  and  C_8
REMARK    3  A    between atoms: C_13  and  O_14
REMARK                            x       y       z     vdW  Elec       q    Type
REMARK                         _______ _______ _______ _____ _____    ______ ____
ROOT
ATOM      1  C   UNL     1       1.825   8.332  19.405  0.00  0.00    +0.000 A 
ATOM      2  C   UNL     1       2.106   7.150  19.977  0.00  0.00    +0.000 A 
ATOM      3  C   UNL     1       2.939   6.183  19.276  0.00  0.00    +0.000 A 
ATOM      4  C   UNL     1       3.284   4.949  19.833  0.00  0.00    +0.000 A 
ATOM      5  C   UNL     1       4.074   4.047  19.108  0.00  0.00    +0.000 A 
ATOM      6  C   UNL     1       4.513   4.384  17.829  0.00  0.00    +0.000 A 
ATOM      7  C   UNL     1       4.178   5.606  17.262  0.00  0.00    +0.000 A 
ATOM      8  C   UNL     1       3.397   6.493  17.998  0.00  0.00    +0.000 A 
ATOM      9  O   UNL     1       3.089   7.729  17.401  0.00  0.00    +0.000 OA
ATOM     10  C   UNL     1       2.338   8.699  18.064  0.00  0.00    +0.000 A 
ATOM     11  O   UNL     1       2.138   9.794  17.550  0.00  0.00    +0.000 OA
ENDROOT
BRANCH   1  18
ATOM     12  C   UNL     1      -0.750  13.595  22.469  0.00  0.00    +0.000 C 
ATOM     13  C   UNL     1      -1.840  12.582  22.103  0.00  0.00    +0.000 C 
ATOM     14  C   UNL     1      -1.874  11.403  23.106  0.00  0.00    +0.000 C 
ATOM     15  C   UNL     1      -0.598  10.542  23.072  0.00  0.00    +0.000 C 
ATOM     16  C   UNL     1      -0.163  10.284  21.669  0.00  0.00    +0.000 A 
ATOM     17  N   UNL     1       0.791   9.335  21.377  0.00  0.00    +0.000 NA
ATOM     18  C   UNL     1       0.966   9.250  20.070  0.00  0.00    +0.000 A 
ATOM     19  S   UNL     1       0.049  10.405  19.149  0.00  0.00    +0.000 S 
ATOM     20  C   UNL     1      -0.647  10.986  20.586  0.00  0.00    +0.000 A 
ATOM     21  C   UNL     1      -1.674  12.070  20.649  0.00  0.00    +0.000 C 
ENDBRANCH   1  18
BRANCH   6  22
ATOM     22  O   UNL     1       5.282   3.533  17.093  0.00  0.00    +0.000 OA
ATOM     23  H   UNL     1       5.887   4.051  16.538  0.00  0.00    +0.000 HD
ENDBRANCH   6  22
TORSDOF 2
ENDMDL
MODEL 7
REMARK VINA RESULT:      -7.3      3.007      7.468
REMARK  Name = 
REMARK  3 active torsions:
REMARK  status: ('A' for Active; 'I' for Inactive)
REMARK    1  A    between atoms: C_1  and  C_2
REMARK    2  A    between atoms: C_7  and  C_8
REMARK    3  A    between atoms: C_13  and  O_14
REMARK                            x       y       z     vdW  Elec       q    Type
REMARK                         _______ _______ _______ _____ _____    ______ ____
ROOT
ATOM      1  C   UNL     1       2.324   6.899  19.307  0.00  0.00    +0.000 A 
ATOM      2  C   UNL     1       2.010   5.820  20.043  0.00  0.00    +0.000 A 
ATOM      3  C   UNL     1       2.555   4.517  19.690  0.00  0.00    +0.000 A 
ATOM      4  C   UNL     1       2.284   3.366  20.434  0.00  0.00    +0.000 A 
ATOM      5  C   UNL     1       2.818   2.132  20.041  0.00  0.00    +0.000 A 
ATOM      6  C   UNL     1       3.619   2.057  18.902  0.00  0.00    +0.000 A 
ATOM      7  C   UNL     1       3.897   3.191  18.152  0.00  0.00    +0.000 A 
ATOM      8  C   UNL     1       3.363   4.409  18.561  0.00  0.00    +0.000 A 
ATOM      9  O   UNL     1       3.676   5.543  17.788  0.00  0.00    +0.000 OA
ATOM     10  C   UNL     1       3.216   6.814  18.127  0.00  0.00    +0.000 A 
ATOM     11  O   UNL     1       3.557   7.796  17.476  0.00  0.00    +0.000 OA
ENDROOT
BRANCH   1  18
ATOM     12  C   UNL     1      -1.818  11.956  20.300  0.00  0.00    +0.000 C 
ATOM     13  C   UNL     1      -0.428  12.261  20.871  0.00  0.00    +0.000 C 
ATOM     14  C   UNL     1       0.559  12.686  19.757  0.00  0.00    +0.000 C 
ATOM     15  C   UNL     1       0.855  11.561  18.748  0.00  0.00    +0.000 C 
ATOM     16  C   UNL     1       1.070  10.260  19.446  0.00  0.00    +0.000 A 
ATOM     17  N   UNL     1       1.599   9.173  18.787  0.00  0.00    +0.000 NA
ATOM     18  C   UNL     1       1.746   8.160  19.623  0.00  0.00    +0.000 A 
ATOM     19  S   UNL     1       1.142   8.461  21.225  0.00  0.00    +0.000 S 
ATOM     20  C   UNL     1       0.729  10.043  20.763  0.00  0.00    +0.000 A 
ATOM     21  C   UNL     1       0.128  11.060  21.679  0.00  0.00    +0.000 C 
ENDBRANCH   1  18
BRANCH   6  22
ATOM     22  O   UNL     1       4.156   0.874  18.488  0.00  0.00    +0.000 OA
ATOM     23  H   UNL     1       3.541   0.154  18.702  0.00  0.00    +0.000 HD
ENDBRANCH   6  22
TORSDOF 2
ENDMDL
MODEL 8
REMARK VINA RESULT:      -7.3      3.861      9.341
REMARK  Name = 
REMARK  3 active torsions:
REMARK  status: ('A' for Active; 'I' for Inactive)
REMARK    1  A    between atoms: C_1  and  C_2
REMARK    2  A    between atoms: C_7  and  C_8
REMARK    3  A    between atoms: C_13  and  O_14
REMARK                            x       y       z     vdW  Elec       q    Type
REMARK                         _______ _______ _______ _____ _____    ______ ____
ROOT
ATOM      1  C   UNL     1      -0.153  10.647  21.653  0.00  0.00    +0.000 A 
ATOM      2  C   UNL     1       0.047  10.642  20.325  0.00  0.00    +0.000 A 
ATOM      3  C   UNL     1       0.827   9.577  19.712  0.00  0.00    +0.000 A 
ATOM      4  C   UNL     1       1.046   9.507  18.333  0.00  0.00    +0.000 A 
ATOM      5  C   UNL     1       1.821   8.471  17.796  0.00  0.00    +0.000 A 
ATOM      6  C   UNL     1       2.375   7.512  18.642  0.00  0.00    +0.000 A 
ATOM      7  C   UNL     1       2.168   7.567  20.013  0.00  0.00    +0.000 A 
ATOM      8  C   UNL     1       1.391   8.601  20.529  0.00  0.00    +0.000 A 
ATOM      9  O   UNL     1       1.186   8.620  21.921  0.00  0.00    +0.000 OA
ATOM     10  C   UNL     1       0.401   9.594  22.536  0.00  0.00    +0.000 A 
ATOM     11  O   UNL     1       0.184   9.552  23.742  0.00  0.00    +0.000 OA
ENDROOT
BRANCH   1  18
ATOM     12  C   UNL     1      -2.389  15.330  25.750  0.00  0.00    +0.000 C 
ATOM     13  C   UNL     1      -3.006  15.478  24.354  0.00  0.00    +0.000 C 
ATOM     14  C   UNL     1      -4.158  14.468  24.137  0.00  0.00    +0.000 C 
ATOM     15  C   UNL     1      -3.687  13.002  24.137  0.00  0.00    +0.000 C 
ATOM     16  C   UNL     1      -2.430  12.844  23.349  0.00  0.00    +0.000 A 
ATOM     17  N   UNL     1      -1.961  11.600  22.990  0.00  0.00    +0.000 NA
ATOM     18  C   UNL     1      -0.870  11.719  22.253  0.00  0.00    +0.000 A 
ATOM     19  S   UNL     1      -0.312  13.354  22.060  0.00  0.00    +0.000 S 
ATOM     20  C   UNL     1      -1.642  13.906  22.961  0.00  0.00    +0.000 A 
ATOM     21  C   UNL     1      -1.933  15.345  23.243  0.00  0.00    +0.000 C 
ENDBRANCH   1  18
BRANCH   6  22
ATOM     22  O   UNL     1       3.135   6.489  18.156  0.00  0.00    +0.000 OA
ATOM     23  H   UNL     1       2.551   5.795  17.812  0.00  0.00    +0.000 HD
ENDBRANCH   6  22
TORSDOF 2
ENDMDL
MODEL 9
REMARK VINA RESULT:      -7.3      2.801      7.969
REMARK  Name = 
REMARK  3 active torsions:
REMARK  status: ('A' for Active; 'I' for Inactive)
REMARK    1  A    between atoms: C_1  and  C_2
REMARK    2  A    between atoms: C_7  and  C_8
REMARK    3  A    between atoms: C_13  and  O_14
REMARK                            x       y       z     vdW  Elec       q    Type
REMARK                         _______ _______ _______ _____ _____    ______ ____
ROOT
ATOM      1  C   UNL     1       2.154   7.960  18.957  0.00  0.00    +0.000 A 
ATOM      2  C   UNL     1       2.928   8.040  17.863  0.00  0.00    +0.000 A 
ATOM      3  C   UNL     1       3.874   6.976  17.562  0.00  0.00    +0.000 A 
ATOM      4  C   UNL     1       4.686   6.995  16.425  0.00  0.00    +0.000 A 
ATOM      5  C   UNL     1       5.594   5.953  16.192  0.00  0.00    +0.000 A 
ATOM      6  C   UNL     1       5.687   4.900  17.100  0.00  0.00    +0.000 A 
ATOM      7  C   UNL     1       4.888   4.867  18.235  0.00  0.00    +0.000 A 
ATOM      8  C   UNL     1       3.987   5.907  18.448  0.00  0.00    +0.000 A 
ATOM      9  O   UNL     1       3.180   5.836  19.598  0.00  0.00    +0.000 OA
ATOM     10  C   UNL     1       2.227   6.810  19.890  0.00  0.00    +0.000 A 
ATOM     11  O   UNL     1       1.491   6.693  20.863  0.00  0.00    +0.000 OA
ENDROOT
BRANCH   1  18
ATOM     12  C   UNL     1      -0.604  13.888  19.944  0.00  0.00    +0.000 C 
ATOM     13  C   UNL     1      -1.646  12.768  20.059  0.00  0.00    +0.000 C 
ATOM     14  C   UNL     1      -1.566  12.063  21.435  0.00  0.00    +0.000 C 
ATOM     15  C   UNL     1      -0.242  11.306  21.652  0.00  0.00    +0.000 C 
ATOM     16  C   UNL     1       0.148  10.549  20.428  0.00  0.00    +0.000 A 
ATOM     17  N   UNL     1       1.145   9.599  20.460  0.00  0.00    +0.000 NA
ATOM     18  C   UNL     1       1.269   9.028  19.275  0.00  0.00    +0.000 A 
ATOM     19  S   UNL     1       0.247   9.704  18.044  0.00  0.00    +0.000 S 
ATOM     20  C   UNL     1      -0.423  10.763  19.192  0.00  0.00    +0.000 A 
ATOM     21  C   UNL     1      -1.510  11.746  18.901  0.00  0.00    +0.000 C 
ENDBRANCH   1  18
BRANCH   6  22
ATOM     22  O   UNL     1       6.559   3.870  16.908  0.00  0.00    +0.000 OA
ATOM     23  H   UNL     1       6.783   3.816  15.965  0.00  0.00    +0.000 HD
ENDBRANCH   6  22
TORSDOF 2
ENDMDL
