MODEL 1
REMARK VINA RESULT:      -8.4      0.000      0.000
REMARK  Name = 
REMARK  4 active torsions:
REMARK  status: ('A' for Active; 'I' for Inactive)
REMARK    1  A    between atoms: C_2  and  C_3
REMARK    2  A    between atoms: N_13  and  C_14
REMARK    3  A    between atoms: C_17  and  N_18
REMARK    4  A    between atoms: C_22  and  N_23
REMARK                            x       y       z     vdW  Elec       q    Type
REMARK                         _______ _______ _______ _____ _____    ______ ____
ROOT
ATOM      1  O   UNL     1       8.033   4.408  16.550  0.00  0.00    +0.000 OA
ATOM      2  C   UNL     1       6.901   4.550  16.085  0.00  0.00    +0.000 C 
ATOM      3  N   UNL     1       5.833   4.946  16.890  0.00  0.00    +0.000 N 
ATOM      4  C   UNL     1       4.538   5.422  16.400  0.00  0.00    +0.000 C 
ATOM      5  C   UNL     1       3.426   5.072  17.406  0.00  0.00    +0.000 C 
ATOM      6  N   UNL     1       3.710   5.815  18.650  0.00  0.00    +0.000 N 
ATOM      7  C   UNL     1       4.981   5.334  19.257  0.00  0.00    +0.000 C 
ATOM      8  C   UNL     1       6.150   5.450  18.242  0.00  0.00    +0.000 C 
ENDROOT
BRANCH   2   9
ATOM      9  C   UNL     1       6.763   4.365  14.616  0.00  0.00    +0.000 A 
ATOM     10  C   UNL     1       5.695   3.567  14.173  0.00  0.00    +0.000 A 
ATOM     11  C   UNL     1       5.487   3.342  12.809  0.00  0.00    +0.000 A 
ATOM     12  C   UNL     1       6.365   3.886  11.874  0.00  0.00    +0.000 A 
ATOM     13  C   UNL     1       7.416   4.696  12.301  0.00  0.00    +0.000 A 
ATOM     14  C   UNL     1       7.576   4.973  13.660  0.00  0.00    +0.000 A 
ATOM     15  F   UNL     1       8.528   5.854  14.005  0.00  0.00    +0.000 F 
ENDBRANCH   2   9
BRANCH   6  16
ATOM     16  C   UNL     1       2.732   6.515  19.347  0.00  0.00    +0.000 A 
ATOM     17  C   UNL     1       2.599   7.908  19.117  0.00  0.00    +0.000 A 
ATOM     18  C   UNL     1       1.660   8.715  19.774  0.00  0.00    +0.000 A 
ATOM     19  C   UNL     1       0.811   8.145  20.717  0.00  0.00    +0.000 A 
ATOM     20  C   UNL     1       0.903   6.786  21.003  0.00  0.00    +0.000 A 
ATOM     21  C   UNL     1       1.834   5.971  20.320  0.00  0.00    +0.000 A 
BRANCH  21  22
ATOM     22  N   UNL     1       1.764   4.589  20.657  0.00  0.00    +0.000 N 
ATOM     23  C   UNL     1       2.411   3.973  21.715  0.00  0.00    +0.000 A 
ATOM     24  C   UNL     1       2.338   2.607  21.534  0.00  0.00    +0.000 A 
ATOM     25  C   UNL     1       1.488   2.379  20.430  0.00  0.00    +0.000 A 
ATOM     26  C   UNL     1       1.030   3.613  20.022  0.00  0.00    +0.000 A 
ENDBRANCH  21  22
BRANCH  19  27
ATOM     27  N   UNL     1      -0.193   8.975  21.399  0.00  0.00    +0.000 N 
ATOM     28  O   UNL     1      -0.392  10.117  20.960  0.00  0.00    +0.000 OA
ATOM     29  O   UNL     1      -0.784   8.474  22.372  0.00  0.00    +0.000 OA
ENDBRANCH  19  27
ENDBRANCH   6  16
TORSDOF 4
ENDMDL
MODEL 2
REMARK VINA RESULT:      -8.2      4.402      7.102
REMARK  Name = 
REMARK  4 active torsions:
REMARK  status: ('A' for Active; 'I' for Inactive)
REMARK    1  A    between atoms: C_2  and  C_3
REMARK    2  A    between atoms: N_13  and  C_14
REMARK    3  A    between atoms: C_17  and  N_18
REMARK    4  A    between atoms: C_22  and  N_23
REMARK                            x       y       z     vdW  Elec       q    Type
REMARK                         _______ _______ _______ _____ _____    ______ ____
ROOT
ATOM      1  O   UNL     1       1.894   5.789  20.910  0.00  0.00    +0.000 OA
ATOM      2  C   UNL     1       2.218   6.336  19.855  0.00  0.00    +0.000 C 
ATOM      3  N   UNL     1       1.830   7.646  19.570  0.00  0.00    +0.000 N 
ATOM      4  C   UNL     1       2.390   8.480  18.507  0.00  0.00    +0.000 C 
ATOM      5  C   UNL     1       1.332   9.475  17.996  0.00  0.00    +0.000 C 
ATOM      6  N   UNL     1       1.003  10.379  19.116  0.00  0.00    +0.000 N 
ATOM      7  C   UNL     1       0.354   9.615  20.217  0.00  0.00    +0.000 C 
ATOM      8  C   UNL     1       1.258   8.441  20.677  0.00  0.00    +0.000 C 
ENDROOT
BRANCH   2   9
ATOM      9  C   UNL     1       3.112   5.560  18.956  0.00  0.00    +0.000 A 
ATOM     10  C   UNL     1       4.466   5.474  19.324  0.00  0.00    +0.000 A 
ATOM     11  C   UNL     1       5.378   4.762  18.540  0.00  0.00    +0.000 A 
ATOM     12  C   UNL     1       4.953   4.156  17.360  0.00  0.00    +0.000 A 
ATOM     13  C   UNL     1       3.609   4.215  16.996  0.00  0.00    +0.000 A 
ATOM     14  C   UNL     1       2.692   4.869  17.820  0.00  0.00    +0.000 A 
ATOM     15  F   UNL     1       1.394   4.794  17.485  0.00  0.00    +0.000 F 
ENDBRANCH   2   9
BRANCH   6  16
ATOM     16  C   UNL     1       0.913  11.758  18.969  0.00  0.00    +0.000 A 
ATOM     17  C   UNL     1       2.082  12.539  19.153  0.00  0.00    +0.000 A 
ATOM     18  C   UNL     1       2.104  13.936  19.044  0.00  0.00    +0.000 A 
ATOM     19  C   UNL     1       0.926  14.618  18.755  0.00  0.00    +0.000 A 
ATOM     20  C   UNL     1      -0.260  13.911  18.581  0.00  0.00    +0.000 A 
ATOM     21  C   UNL     1      -0.273  12.500  18.666  0.00  0.00    +0.000 A 
BRANCH  21  22
ATOM     22  N   UNL     1      -1.538  11.906  18.390  0.00  0.00    +0.000 N 
ATOM     23  C   UNL     1      -1.869  11.182  17.258  0.00  0.00    +0.000 A 
ATOM     24  C   UNL     1      -3.241  11.034  17.222  0.00  0.00    +0.000 A 
ATOM     25  C   UNL     1      -3.746  11.537  18.441  0.00  0.00    +0.000 A 
ATOM     26  C   UNL     1      -2.655  11.913  19.194  0.00  0.00    +0.000 A 
ENDBRANCH  21  22
BRANCH  19  27
ATOM     27  N   UNL     1       0.939  16.081  18.617  0.00  0.00    +0.000 N 
ATOM     28  O   UNL     1       1.985  16.679  18.909  0.00  0.00    +0.000 OA
ATOM     29  O   UNL     1      -0.103  16.626  18.210  0.00  0.00    +0.000 OA
ENDBRANCH  19  27
ENDBRANCH   6  16
TORSDOF 4
ENDMDL
MODEL 3
REMARK VINA RESULT:      -8.0      0.916      1.548
REMARK  Name = 
REMARK  4 active torsions:
REMARK  status: ('A' for Active; 'I' for Inactive)
REMARK    1  A    between atoms: C_2  and  C_3
REMARK    2  A    between atoms: N_13  and  C_14
REMARK    3  A    between atoms: C_17  and  N_18
REMARK    4  A    between atoms: C_22  and  N_23
REMARK                            x       y       z     vdW  Elec       q    Type
REMARK                         _______ _______ _______ _____ _____    ______ ____
ROOT
ATOM      1  O   UNL     1       8.121   4.411  16.746  0.00  0.00    +0.000 OA
ATOM      2  C   UNL     1       7.033   4.637  16.215  0.00  0.00    +0.000 C 
ATOM      3  N   UNL     1       5.931   5.046  16.968  0.00  0.00    +0.000 N 
ATOM      4  C   UNL     1       4.699   5.615  16.421  0.00  0.00    +0.000 C 
ATOM      5  C   UNL     1       3.504   5.271  17.328  0.00  0.00    +0.000 C 
ATOM      6  N   UNL     1       3.736   5.931  18.628  0.00  0.00    +0.000 N 
ATOM      7  C   UNL     1       4.937   5.351  19.291  0.00  0.00    +0.000 C 
ATOM      8  C   UNL     1       6.178   5.459  18.365  0.00  0.00    +0.000 C 
ENDROOT
BRANCH   2   9
ATOM      9  C   UNL     1       6.989   4.539  14.732  0.00  0.00    +0.000 A 
ATOM     10  C   UNL     1       7.863   5.373  14.013  0.00  0.00    +0.000 A 
ATOM     11  C   UNL     1       7.892   5.345  12.616  0.00  0.00    +0.000 A 
ATOM     12  C   UNL     1       7.023   4.507  11.921  0.00  0.00    +0.000 A 
ATOM     13  C   UNL     1       6.167   3.661  12.623  0.00  0.00    +0.000 A 
ATOM     14  C   UNL     1       6.193   3.644  14.019  0.00  0.00    +0.000 A 
ATOM     15  F   UNL     1       5.436   2.727  14.643  0.00  0.00    +0.000 F 
ENDBRANCH   2   9
BRANCH   6  16
ATOM     16  C   UNL     1       2.748   6.644  19.298  0.00  0.00    +0.000 A 
ATOM     17  C   UNL     1       2.617   8.031  19.037  0.00  0.00    +0.000 A 
ATOM     18  C   UNL     1       1.667   8.850  19.665  0.00  0.00    +0.000 A 
ATOM     19  C   UNL     1       0.806   8.299  20.607  0.00  0.00    +0.000 A 
ATOM     20  C   UNL     1       0.895   6.946  20.922  0.00  0.00    +0.000 A 
ATOM     21  C   UNL     1       1.838   6.118  20.269  0.00  0.00    +0.000 A 
BRANCH  21  22
ATOM     22  N   UNL     1       1.765   4.743  20.633  0.00  0.00    +0.000 N 
ATOM     23  C   UNL     1       1.046   3.761  19.973  0.00  0.00    +0.000 A 
ATOM     24  C   UNL     1       0.985   2.647  20.785  0.00  0.00    +0.000 A 
ATOM     25  C   UNL     1       1.822   2.895  21.895  0.00  0.00    +0.000 A 
ATOM     26  C   UNL     1       2.406   4.124  21.683  0.00  0.00    +0.000 A 
ENDBRANCH  21  22
BRANCH  19  27
ATOM     27  N   UNL     1      -0.209   9.140  21.257  0.00  0.00    +0.000 N 
ATOM     28  O   UNL     1      -0.424   8.954  22.464  0.00  0.00    +0.000 OA
ATOM     29  O   UNL     1      -0.785   9.989  20.554  0.00  0.00    +0.000 OA
ENDBRANCH  19  27
ENDBRANCH   6  16
TORSDOF 4
ENDMDL
MODEL 4
REMARK VINA RESULT:      -7.9      4.287      6.968
REMARK  Name = 
REMARK  4 active torsions:
REMARK  status: ('A' for Active; 'I' for Inactive)
REMARK    1  A    between atoms: C_2  and  C_3
REMARK    2  A    between atoms: N_13  and  C_14
REMARK    3  A    between atoms: C_17  and  N_18
REMARK    4  A    between atoms: C_22  and  N_23
REMARK                            x       y       z     vdW  Elec       q    Type
REMARK                         _______ _______ _______ _____ _____    ______ ____
ROOT
ATOM      1  O   UNL     1       1.916   5.676  20.965  0.00  0.00    +0.000 OA
ATOM      2  C   UNL     1       2.139   6.179  19.863  0.00  0.00    +0.000 C 
ATOM      3  N   UNL     1       1.789   7.501  19.587  0.00  0.00    +0.000 N 
ATOM      4  C   UNL     1       2.260   8.277  18.439  0.00  0.00    +0.000 C 
ATOM      5  C   UNL     1       1.202   9.317  18.027  0.00  0.00    +0.000 C 
ATOM      6  N   UNL     1       1.058  10.264  19.151  0.00  0.00    +0.000 N 
ATOM      7  C   UNL     1       0.507   9.565  20.344  0.00  0.00    +0.000 C 
ATOM      8  C   UNL     1       1.397   8.353  20.728  0.00  0.00    +0.000 C 
ENDROOT
BRANCH   2   9
ATOM      9  C   UNL     1       2.877   5.332  18.888  0.00  0.00    +0.000 A 
ATOM     10  C   UNL     1       2.110   4.663  17.919  0.00  0.00    +0.000 A 
ATOM     11  C   UNL     1       2.721   3.849  16.960  0.00  0.00    +0.000 A 
ATOM     12  C   UNL     1       4.102   3.667  16.981  0.00  0.00    +0.000 A 
ATOM     13  C   UNL     1       4.874   4.343  17.925  0.00  0.00    +0.000 A 
ATOM     14  C   UNL     1       4.264   5.209  18.835  0.00  0.00    +0.000 A 
ATOM     15  F   UNL     1       5.064   5.924  19.641  0.00  0.00    +0.000 F 
ENDBRANCH   2   9
BRANCH   6  16
ATOM     16  C   UNL     1       1.023  11.642  18.973  0.00  0.00    +0.000 A 
ATOM     17  C   UNL     1       2.231  12.374  19.095  0.00  0.00    +0.000 A 
ATOM     18  C   UNL     1       2.311  13.766  18.951  0.00  0.00    +0.000 A 
ATOM     19  C   UNL     1       1.155  14.493  18.689  0.00  0.00    +0.000 A 
ATOM     20  C   UNL     1      -0.067  13.837  18.575  0.00  0.00    +0.000 A 
ATOM     21  C   UNL     1      -0.140  12.429  18.696  0.00  0.00    +0.000 A 
BRANCH  21  22
ATOM     22  N   UNL     1      -1.439  11.887  18.480  0.00  0.00    +0.000 N 
ATOM     23  C   UNL     1      -1.844  11.154  17.378  0.00  0.00    +0.000 A 
ATOM     24  C   UNL     1      -3.221  11.067  17.396  0.00  0.00    +0.000 A 
ATOM     25  C   UNL     1      -3.657  11.617  18.621  0.00  0.00    +0.000 A 
ATOM     26  C   UNL     1      -2.523  11.961  19.325  0.00  0.00    +0.000 A 
ENDBRANCH  21  22
BRANCH  19  27
ATOM     27  N   UNL     1       1.226  15.951  18.514  0.00  0.00    +0.000 N 
ATOM     28  O   UNL     1       0.224  16.617  18.814  0.00  0.00    +0.000 OA
ATOM     29  O   UNL     1       2.291  16.423  18.079  0.00  0.00    +0.000 OA
ENDBRANCH  19  27
ENDBRANCH   6  16
TORSDOF 4
ENDMDL
MODEL 5
REMARK VINA RESULT:      -7.8      4.128      6.709
REMARK  Name = 
REMARK  4 active torsions:
REMARK  status: ('A' for Active; 'I' for Inactive)
REMARK    1  A    between atoms: C_2  and  C_3
REMARK    2  A    between atoms: N_13  and  C_14
REMARK    3  A    between atoms: C_17  and  N_18
REMARK    4  A    between atoms: C_22  and  N_23
REMARK                            x       y       z     vdW  Elec       q    Type
REMARK                         _______ _______ _______ _____ _____    ______ ____
ROOT
ATOM      1  O   UNL     1       2.095   5.503  21.050  0.00  0.00    +0.000 OA
ATOM      2  C   UNL     1       2.273   6.012  19.943  0.00  0.00    +0.000 C 
ATOM      3  N   UNL     1       1.843   7.310  19.665  0.00  0.00    +0.000 N 
ATOM      4  C   UNL     1       2.252   8.106  18.508  0.00  0.00    +0.000 C 
ATOM      5  C   UNL     1       1.130   9.081  18.106  0.00  0.00    +0.000 C 
ATOM      6  N   UNL     1       0.946  10.023  19.228  0.00  0.00    +0.000 N 
ATOM      7  C   UNL     1       0.453   9.300  20.431  0.00  0.00    +0.000 C 
ATOM      8  C   UNL     1       1.418   8.144  20.808  0.00  0.00    +0.000 C 
ENDROOT
BRANCH   2   9
ATOM      9  C   UNL     1       3.046   5.205  18.961  0.00  0.00    +0.000 A 
ATOM     10  C   UNL     1       2.308   4.524  17.977  0.00  0.00    +0.000 A 
ATOM     11  C   UNL     1       2.952   3.744  17.012  0.00  0.00    +0.000 A 
ATOM     12  C   UNL     1       4.339   3.609  17.040  0.00  0.00    +0.000 A 
ATOM     13  C   UNL     1       5.081   4.297  17.998  0.00  0.00    +0.000 A 
ATOM     14  C   UNL     1       4.437   5.129  18.915  0.00  0.00    +0.000 A 
ATOM     15  F   UNL     1       5.207   5.860  19.737  0.00  0.00    +0.000 F 
ENDBRANCH   2   9
BRANCH   6  16
ATOM     16  C   UNL     1       0.829  11.396  19.044  0.00  0.00    +0.000 A 
ATOM     17  C   UNL     1       1.931  12.223  19.378  0.00  0.00    +0.000 A 
ATOM     18  C   UNL     1       1.918  13.619  19.249  0.00  0.00    +0.000 A 
ATOM     19  C   UNL     1       0.770  14.252  18.784  0.00  0.00    +0.000 A 
ATOM     20  C   UNL     1      -0.353  13.499  18.455  0.00  0.00    +0.000 A 
ATOM     21  C   UNL     1      -0.328  12.089  18.563  0.00  0.00    +0.000 A 
BRANCH  21  22
ATOM     22  N   UNL     1      -1.519  11.444  18.121  0.00  0.00    +0.000 N 
ATOM     23  C   UNL     1      -2.772  11.561  18.696  0.00  0.00    +0.000 A 
ATOM     24  C   UNL     1      -3.582  10.572  18.178  0.00  0.00    +0.000 A 
ATOM     25  C   UNL     1      -2.858   9.940  17.144  0.00  0.00    +0.000 A 
ATOM     26  C   UNL     1      -1.659  10.610  17.034  0.00  0.00    +0.000 A 
ENDBRANCH  21  22
BRANCH  19  27
ATOM     27  N   UNL     1       0.750  15.713  18.622  0.00  0.00    +0.000 N 
ATOM     28  O   UNL     1       1.836  16.292  18.476  0.00  0.00    +0.000 OA
ATOM     29  O   UNL     1      -0.360  16.274  18.638  0.00  0.00    +0.000 OA
ENDBRANCH  19  27
ENDBRANCH   6  16
TORSDOF 4
ENDMDL
MODEL 6
REMARK VINA RESULT:      -7.7      3.575      8.665
REMARK  Name = 
REMARK  4 active torsions:
REMARK  status: ('A' for Active; 'I' for Inactive)
REMARK    1  A    between atoms: C_2  and  C_3
REMARK    2  A    between atoms: N_13  and  C_14
REMARK    3  A    between atoms: C_17  and  N_18
REMARK    4  A    between atoms: C_22  and  N_23
REMARK                            x       y       z     vdW  Elec       q    Type
REMARK                         _______ _______ _______ _____ _____    ______ ____
ROOT
ATOM      1  O   UNL     1      -0.872  10.941  18.340  0.00  0.00    +0.000 OA
ATOM      2  C   UNL     1      -0.263  10.429  19.280  0.00  0.00    +0.000 C 
ATOM      3  N   UNL     1       0.684   9.426  19.068  0.00  0.00    +0.000 N 
ATOM      4  C   UNL     1       1.659   8.964  20.057  0.00  0.00    +0.000 C 
ATOM      5  C   UNL     1       2.000   7.481  19.817  0.00  0.00    +0.000 C 
ATOM      6  N   UNL     1       2.656   7.391  18.498  0.00  0.00    +0.000 N 
ATOM      7  C   UNL     1       1.701   7.774  17.422  0.00  0.00    +0.000 C 
ATOM      8  C   UNL     1       1.129   9.193  17.679  0.00  0.00    +0.000 C 
ENDROOT
BRANCH   2   9
ATOM      9  C   UNL     1      -0.528  10.999  20.627  0.00  0.00    +0.000 A 
ATOM     10  C   UNL     1      -0.605  12.400  20.721  0.00  0.00    +0.000 A 
ATOM     11  C   UNL     1      -0.854  13.022  21.948  0.00  0.00    +0.000 A 
ATOM     12  C   UNL     1      -0.996  12.253  23.101  0.00  0.00    +0.000 A 
ATOM     13  C   UNL     1      -0.944  10.863  23.016  0.00  0.00    +0.000 A 
ATOM     14  C   UNL     1      -0.764  10.246  21.776  0.00  0.00    +0.000 A 
ATOM     15  F   UNL     1      -0.841   8.906  21.733  0.00  0.00    +0.000 F 
ENDBRANCH   2   9
BRANCH   6  16
ATOM     16  C   UNL     1       3.812   6.650  18.283  0.00  0.00    +0.000 A 
ATOM     17  C   UNL     1       4.930   7.292  17.691  0.00  0.00    +0.000 A 
ATOM     18  C   UNL     1       6.140   6.640  17.414  0.00  0.00    +0.000 A 
ATOM     19  C   UNL     1       6.272   5.288  17.714  0.00  0.00    +0.000 A 
ATOM     20  C   UNL     1       5.205   4.595  18.279  0.00  0.00    +0.000 A 
ATOM     21  C   UNL     1       3.995   5.262  18.580  0.00  0.00    +0.000 A 
BRANCH  21  22
ATOM     22  N   UNL     1       3.020   4.449  19.226  0.00  0.00    +0.000 N 
ATOM     23  C   UNL     1       1.941   3.832  18.618  0.00  0.00    +0.000 A 
ATOM     24  C   UNL     1       1.079   3.394  19.603  0.00  0.00    +0.000 A 
ATOM     25  C   UNL     1       1.723   3.602  20.842  0.00  0.00    +0.000 A 
ATOM     26  C   UNL     1       2.975   4.101  20.557  0.00  0.00    +0.000 A 
ENDBRANCH  21  22
BRANCH  19  27
ATOM     27  N   UNL     1       7.541   4.596  17.449  0.00  0.00    +0.000 N 
ATOM     28  O   UNL     1       8.227   4.257  18.425  0.00  0.00    +0.000 OA
ATOM     29  O   UNL     1       7.844   4.392  16.261  0.00  0.00    +0.000 OA
ENDBRANCH  19  27
ENDBRANCH   6  16
TORSDOF 4
ENDMDL
MODEL 7
REMARK VINA RESULT:      -7.5      3.663      8.659
REMARK  Name = 
REMARK  4 active torsions:
REMARK  status: ('A' for Active; 'I' for Inactive)
REMARK    1  A    between atoms: C_2  and  C_3
REMARK    2  A    between atoms: N_13  and  C_14
REMARK    3  A    between atoms: C_17  and  N_18
REMARK    4  A    between atoms: C_22  and  N_23
REMARK                            x       y       z     vdW  Elec       q    Type
REMARK                         _______ _______ _______ _____ _____    ______ ____
ROOT
ATOM      1  O   UNL     1      -0.806  11.099  18.405  0.00  0.00    +0.000 OA
ATOM      2  C   UNL     1      -0.238  10.539  19.343  0.00  0.00    +0.000 C 
ATOM      3  N   UNL     1       0.694   9.524  19.124  0.00  0.00    +0.000 N 
ATOM      4  C   UNL     1       1.628   9.004  20.124  0.00  0.00    +0.000 C 
ATOM      5  C   UNL     1       1.944   7.524  19.839  0.00  0.00    +0.000 C 
ATOM      6  N   UNL     1       2.640   7.468  18.538  0.00  0.00    +0.000 N 
ATOM      7  C   UNL     1       1.728   7.911  17.448  0.00  0.00    +0.000 C 
ATOM      8  C   UNL     1       1.177   9.332  17.740  0.00  0.00    +0.000 C 
ENDROOT
BRANCH   2   9
ATOM      9  C   UNL     1      -0.533  11.066  20.702  0.00  0.00    +0.000 A 
ATOM     10  C   UNL     1      -0.733  10.119  21.722  0.00  0.00    +0.000 A 
ATOM     11  C   UNL     1      -1.012  10.524  23.030  0.00  0.00    +0.000 A 
ATOM     12  C   UNL     1      -1.127  11.880  23.327  0.00  0.00    +0.000 A 
ATOM     13  C   UNL     1      -0.909  12.828  22.329  0.00  0.00    +0.000 A 
ATOM     14  C   UNL     1      -0.563  12.418  21.041  0.00  0.00    +0.000 A 
ATOM     15  F   UNL     1      -0.247  13.371  20.150  0.00  0.00    +0.000 F 
ENDBRANCH   2   9
BRANCH   6  16
ATOM     16  C   UNL     1       3.786   6.710  18.331  0.00  0.00    +0.000 A 
ATOM     17  C   UNL     1       4.911   7.329  17.729  0.00  0.00    +0.000 A 
ATOM     18  C   UNL     1       6.112   6.659  17.459  0.00  0.00    +0.000 A 
ATOM     19  C   UNL     1       6.227   5.309  17.776  0.00  0.00    +0.000 A 
ATOM     20  C   UNL     1       5.153   4.637  18.352  0.00  0.00    +0.000 A 
ATOM     21  C   UNL     1       3.952   5.324  18.646  0.00  0.00    +0.000 A 
BRANCH  21  22
ATOM     22  N   UNL     1       2.968   4.531  19.304  0.00  0.00    +0.000 N 
ATOM     23  C   UNL     1       1.850   3.965  18.716  0.00  0.00    +0.000 A 
ATOM     24  C   UNL     1       1.003   3.536  19.717  0.00  0.00    +0.000 A 
ATOM     25  C   UNL     1       1.689   3.695  20.940  0.00  0.00    +0.000 A 
ATOM     26  C   UNL     1       2.949   4.157  20.629  0.00  0.00    +0.000 A 
ENDBRANCH  21  22
BRANCH  19  27
ATOM     27  N   UNL     1       7.488   4.598  17.518  0.00  0.00    +0.000 N 
ATOM     28  O   UNL     1       7.759   4.313  16.342  0.00  0.00    +0.000 OA
ATOM     29  O   UNL     1       8.205   4.331  18.499  0.00  0.00    +0.000 OA
ENDBRANCH  19  27
ENDBRANCH   6  16
TORSDOF 4
ENDMDL
MODEL 8
REMARK VINA RESULT:      -7.4      4.172      6.594
REMARK  Name = 
REMARK  4 active torsions:
REMARK  status: ('A' for Active; 'I' for Inactive)
REMARK    1  A    between atoms: C_2  and  C_3
REMARK    2  A    between atoms: N_13  and  C_14
REMARK    3  A    between atoms: C_17  and  N_18
REMARK    4  A    between atoms: C_22  and  N_23
REMARK                            x       y       z     vdW  Elec       q    Type
REMARK                         _______ _______ _______ _____ _____    ______ ____
ROOT
ATOM      1  O   UNL     1       3.609   7.515  16.748  0.00  0.00    +0.000 OA
ATOM      2  C   UNL     1       3.138   7.199  17.842  0.00  0.00    +0.000 C 
ATOM      3  N   UNL     1       2.368   8.096  18.583  0.00  0.00    +0.000 N 
ATOM      4  C   UNL     1       1.530   7.741  19.730  0.00  0.00    +0.000 C 
ATOM      5  C   UNL     1       1.438   8.925  20.710  0.00  0.00    +0.000 C 
ATOM      6  N   UNL     1       0.750  10.025  20.004  0.00  0.00    +0.000 N 
ATOM      7  C   UNL     1       1.578  10.499  18.861  0.00  0.00    +0.000 C 
ATOM      8  C   UNL     1       1.910   9.325  17.903  0.00  0.00    +0.000 C 
ENDROOT
BRANCH   2   9
ATOM      9  C   UNL     1       3.359   5.794  18.275  0.00  0.00    +0.000 A 
ATOM     10  C   UNL     1       4.512   5.538  19.039  0.00  0.00    +0.000 A 
ATOM     11  C   UNL     1       4.797   4.247  19.492  0.00  0.00    +0.000 A 
ATOM     12  C   UNL     1       3.952   3.191  19.159  0.00  0.00    +0.000 A 
ATOM     13  C   UNL     1       2.795   3.437  18.421  0.00  0.00    +0.000 A 
ATOM     14  C   UNL     1       2.481   4.740  18.031  0.00  0.00    +0.000 A 
ATOM     15  F   UNL     1       1.298   4.938  17.427  0.00  0.00    +0.000 F 
ENDBRANCH   2   9
BRANCH   6  16
ATOM     16  C   UNL     1      -0.271  10.769  20.584  0.00  0.00    +0.000 A 
ATOM     17  C   UNL     1      -0.138  11.162  21.940  0.00  0.00    +0.000 A 
ATOM     18  C   UNL     1      -1.111  11.899  22.631  0.00  0.00    +0.000 A 
ATOM     19  C   UNL     1      -2.283  12.264  21.977  0.00  0.00    +0.000 A 
ATOM     20  C   UNL     1      -2.483  11.893  20.651  0.00  0.00    +0.000 A 
ATOM     21  C   UNL     1      -1.489  11.171  19.950  0.00  0.00    +0.000 A 
BRANCH  21  22
ATOM     22  N   UNL     1      -1.795  10.928  18.581  0.00  0.00    +0.000 N 
ATOM     23  C   UNL     1      -1.819  11.873  17.570  0.00  0.00    +0.000 A 
ATOM     24  C   UNL     1      -2.438  11.316  16.469  0.00  0.00    +0.000 A 
ATOM     25  C   UNL     1      -2.650   9.951  16.757  0.00  0.00    +0.000 A 
ATOM     26  C   UNL     1      -2.096   9.718  17.997  0.00  0.00    +0.000 A 
ENDBRANCH  21  22
BRANCH  19  27
ATOM     27  N   UNL     1      -3.302  13.056  22.682  0.00  0.00    +0.000 N 
ATOM     28  O   UNL     1      -4.173  12.441  23.316  0.00  0.00    +0.000 OA
ATOM     29  O   UNL     1      -3.222  14.294  22.600  0.00  0.00    +0.000 OA
ENDBRANCH  19  27
ENDBRANCH   6  16
TORSDOF 4
ENDMDL
MODEL 9
REMARK VINA RESULT:      -7.4      3.317      8.360
REMARK  Name = 
REMARK  4 active torsions:
REMARK  status: ('A' for Active; 'I' for Inactive)
REMARK    1  A    between atoms: C_2  and  C_3
REMARK    2  A    between atoms: N_13  and  C_14
REMARK    3  A    between atoms: C_17  and  N_18
REMARK    4  A    between atoms: C_22  and  N_23
REMARK                            x       y       z     vdW  Elec       q    Type
REMARK                         _______ _______ _______ _____ _____    ______ ____
ROOT
ATOM      1  O   UNL     1      -0.309   8.798  21.600  0.00  0.00    +0.000 OA
ATOM      2  C   UNL     1       0.156   9.292  20.572  0.00  0.00    +0.000 C 
ATOM      3  N   UNL     1       1.152   8.640  19.842  0.00  0.00    +0.000 N 
ATOM      4  C   UNL     1       1.560   8.981  18.479  0.00  0.00    +0.000 C 
ATOM      5  C   UNL     1       3.045   8.636  18.265  0.00  0.00    +0.000 C 
ATOM      6  N   UNL     1       3.178   7.171  18.394  0.00  0.00    +0.000 N 
ATOM      7  C   UNL     1       2.852   6.747  19.784  0.00  0.00    +0.000 C 
ATOM      8  C   UNL     1       1.433   7.230  20.185  0.00  0.00    +0.000 C 
ENDROOT
BRANCH   2   9
ATOM      9  C   UNL     1      -0.463  10.562  20.110  0.00  0.00    +0.000 A 
ATOM     10  C   UNL     1       0.014  11.750  20.691  0.00  0.00    +0.000 A 
ATOM     11  C   UNL     1      -0.509  12.991  20.315  0.00  0.00    +0.000 A 
ATOM     12  C   UNL     1      -1.537  13.056  19.378  0.00  0.00    +0.000 A 
ATOM     13  C   UNL     1      -2.003  11.886  18.779  0.00  0.00    +0.000 A 
ATOM     14  C   UNL     1      -1.428  10.657  19.109  0.00  0.00    +0.000 A 
ATOM     15  F   UNL     1      -1.830   9.579  18.417  0.00  0.00    +0.000 F 
ENDBRANCH   2   9
BRANCH   6  16
ATOM     16  C   UNL     1       3.909   6.400  17.498  0.00  0.00    +0.000 A 
ATOM     17  C   UNL     1       4.882   7.039  16.689  0.00  0.00    +0.000 A 
ATOM     18  C   UNL     1       5.665   6.363  15.742  0.00  0.00    +0.000 A 
ATOM     19  C   UNL     1       5.486   4.997  15.557  0.00  0.00    +0.000 A 
ATOM     20  C   UNL     1       4.534   4.313  16.307  0.00  0.00    +0.000 A 
ATOM     21  C   UNL     1       3.764   4.993  17.279  0.00  0.00    +0.000 A 
BRANCH  21  22
ATOM     22  N   UNL     1       2.884   4.155  18.024  0.00  0.00    +0.000 N 
ATOM     23  C   UNL     1       3.245   3.308  19.057  0.00  0.00    +0.000 A 
ATOM     24  C   UNL     1       2.186   2.463  19.316  0.00  0.00    +0.000 A 
ATOM     25  C   UNL     1       1.097   2.909  18.537  0.00  0.00    +0.000 A 
ATOM     26  C   UNL     1       1.520   4.045  17.882  0.00  0.00    +0.000 A 
ENDBRANCH  21  22
BRANCH  19  27
ATOM     27  N   UNL     1       6.315   4.271  14.583  0.00  0.00    +0.000 N 
ATOM     28  O   UNL     1       7.537   4.480  14.597  0.00  0.00    +0.000 OA
ATOM     29  O   UNL     1       5.735   3.489  13.809  0.00  0.00    +0.000 OA
ENDBRANCH  19  27
ENDBRANCH   6  16
TORSDOF 4
ENDMDL
