MODEL 1
REMARK VINA RESULT:      -7.8      0.000      0.000
REMARK  Name = 
REMARK  10 active torsions:
REMARK  status: ('A' for Active; 'I' for Inactive)
REMARK    1  A    between atoms: C_1  and  O_2
REMARK    2  A    between atoms: O_2  and  C_3
REMARK    3  A    between atoms: C_6  and  S_7
REMARK    4  A    between atoms: S_7  and  N_10
REMARK    5  A    between atoms: C_18  and  N_19
REMARK    6  A    between atoms: C_20  and  C_22
REMARK    7  A    between atoms: C_22  and  C_23
REMARK    8  A    between atoms: C_23  and  C_24
REMARK    9  A    between atoms: C_24  and  O_25
REMARK   10  A    between atoms: O_25  and  C_26
REMARK                            x       y       z     vdW  Elec       q    Type
REMARK                         _______ _______ _______ _____ _____    ______ ____
ROOT
ATOM      1  C   UNL     1       6.176   5.661  16.036  0.00  0.00    +0.000 A 
ATOM      2  C   UNL     1       5.250   4.607  15.958  0.00  0.00    +0.000 A 
ATOM      3  C   UNL     1       4.184   4.527  16.848  0.00  0.00    +0.000 A 
ATOM      4  C   UNL     1       4.025   5.518  17.809  0.00  0.00    +0.000 A 
ATOM      5  C   UNL     1       4.864   6.634  17.820  0.00  0.00    +0.000 A 
ATOM      6  C   UNL     1       5.966   6.714  16.955  0.00  0.00    +0.000 A 
ENDROOT
BRANCH   6   7
ATOM      7  N   UNL     1       6.855   7.828  16.985  0.00  0.00    +0.000 N 
ATOM      8  C   UNL     1       7.901   7.989  17.884  0.00  0.00    +0.000 C 
ATOM      9  O   UNL     1       8.236   7.167  18.735  0.00  0.00    +0.000 OA
ATOM     10  H   UNL     1       6.760   8.477  16.213  0.00  0.00    +0.000 HD
BRANCH   8  11
ATOM     11  C   UNL     1       8.675   9.292  17.749  0.00  0.00    +0.000 C 
BRANCH  11  12
ATOM     12  C   UNL     1       9.106   9.829  19.122  0.00  0.00    +0.000 C 
BRANCH  12  13
ATOM     13  C   UNL     1       9.879  11.146  18.992  0.00  0.00    +0.000 C 
BRANCH  13  14
ATOM     14  O   UNL     1       9.130  12.067  18.198  0.00  0.00    +0.000 OA
BRANCH  14  15
ATOM     15  C   UNL     1       9.820  13.190  17.814  0.00  0.00    +0.000 A 
ATOM     16  C   UNL     1       9.233  14.404  18.177  0.00  0.00    +0.000 A 
ATOM     17  C   UNL     1       9.837  15.614  17.826  0.00  0.00    +0.000 A 
ATOM     18  C   UNL     1      11.039  15.611  17.121  0.00  0.00    +0.000 A 
ATOM     19  C   UNL     1      11.645  14.406  16.783  0.00  0.00    +0.000 A 
ATOM     20  C   UNL     1      11.038  13.196  17.131  0.00  0.00    +0.000 A 
ENDBRANCH  14  15
ENDBRANCH  13  14
ENDBRANCH  12  13
ENDBRANCH  11  12
ENDBRANCH   8  11
ENDBRANCH   6   7
BRANCH   4  21
ATOM     21  S   UNL     1       2.702   5.373  18.997  0.00  0.00    +0.000 S 
ATOM     22  O   UNL     1       1.621   4.633  18.373  0.00  0.00    +0.000 OA
ATOM     23  O   UNL     1       3.294   4.924  20.231  0.00  0.00    +0.000 OA
BRANCH  21  24
ATOM     24  N   UNL     1       2.202   7.007  19.199  0.00  0.00    +0.000 NA
ATOM     25  C   UNL     1       1.592   7.653  18.015  0.00  0.00    +0.000 C 
ATOM     26  C   UNL     1       2.011   9.116  17.888  0.00  0.00    +0.000 C 
ATOM     27  C   UNL     1       1.177  10.078  18.725  0.00  0.00    +0.000 C 
ATOM     28  C   UNL     1       1.298   9.847  20.223  0.00  0.00    +0.000 C 
ATOM     29  C   UNL     1       0.721   8.504  20.656  0.00  0.00    +0.000 C 
ATOM     30  C   UNL     1       1.701   7.346  20.555  0.00  0.00    +0.000 C 
ENDBRANCH  21  24
ENDBRANCH   4  21
BRANCH   1  32
ATOM     31  C   UNL     1       7.279   4.803  14.132  0.00  0.00    +0.000 C 
ATOM     32  O   UNL     1       7.320   5.682  15.266  0.00  0.00    +0.000 OA
ENDBRANCH   1  32
TORSDOF 9
ENDMDL
MODEL 2
REMARK VINA RESULT:      -7.6      4.759      7.642
REMARK  Name = 
REMARK  10 active torsions:
REMARK  status: ('A' for Active; 'I' for Inactive)
REMARK    1  A    between atoms: C_1  and  O_2
REMARK    2  A    between atoms: O_2  and  C_3
REMARK    3  A    between atoms: C_6  and  S_7
REMARK    4  A    between atoms: S_7  and  N_10
REMARK    5  A    between atoms: C_18  and  N_19
REMARK    6  A    between atoms: C_20  and  C_22
REMARK    7  A    between atoms: C_22  and  C_23
REMARK    8  A    between atoms: C_23  and  C_24
REMARK    9  A    between atoms: C_24  and  O_25
REMARK   10  A    between atoms: O_25  and  C_26
REMARK                            x       y       z     vdW  Elec       q    Type
REMARK                         _______ _______ _______ _____ _____    ______ ____
ROOT
ATOM      1  C   UNL     1       1.734   8.813  19.046  0.00  0.00    +0.000 A 
ATOM      2  C   UNL     1       2.013   8.141  17.843  0.00  0.00    +0.000 A 
ATOM      3  C   UNL     1       2.363   6.795  17.843  0.00  0.00    +0.000 A 
ATOM      4  C   UNL     1       2.414   6.106  19.049  0.00  0.00    +0.000 A 
ATOM      5  C   UNL     1       2.023   6.727  20.236  0.00  0.00    +0.000 A 
ATOM      6  C   UNL     1       1.702   8.093  20.262  0.00  0.00    +0.000 A 
ENDROOT
BRANCH   6   7
ATOM      7  N   UNL     1       1.342   8.748  21.475  0.00  0.00    +0.000 N 
ATOM      8  C   UNL     1       0.079   8.718  22.053  0.00  0.00    +0.000 C 
ATOM      9  O   UNL     1      -0.878   8.074  21.628  0.00  0.00    +0.000 OA
ATOM     10  H   UNL     1       2.111   9.166  21.985  0.00  0.00    +0.000 HD
BRANCH   8  11
ATOM     11  C   UNL     1      -0.071   9.544  23.322  0.00  0.00    +0.000 C 
BRANCH  11  12
ATOM     12  C   UNL     1      -1.058  10.702  23.119  0.00  0.00    +0.000 C 
BRANCH  12  13
ATOM     13  C   UNL     1      -0.752  11.482  21.835  0.00  0.00    +0.000 C 
BRANCH  13  14
ATOM     14  O   UNL     1       0.173  12.533  22.119  0.00  0.00    +0.000 OA
BRANCH  14  15
ATOM     15  C   UNL     1       0.673  13.175  21.014  0.00  0.00    +0.000 A 
ATOM     16  C   UNL     1      -0.266  13.490  20.031  0.00  0.00    +0.000 A 
ATOM     17  C   UNL     1       0.130  14.130  18.854  0.00  0.00    +0.000 A 
ATOM     18  C   UNL     1       1.468  14.469  18.664  0.00  0.00    +0.000 A 
ATOM     19  C   UNL     1       2.404  14.186  19.652  0.00  0.00    +0.000 A 
ATOM     20  C   UNL     1       2.008  13.542  20.828  0.00  0.00    +0.000 A 
ENDBRANCH  14  15
ENDBRANCH  13  14
ENDBRANCH  12  13
ENDBRANCH  11  12
ENDBRANCH   8  11
ENDBRANCH   6   7
BRANCH   4  21
ATOM     21  S   UNL     1       2.938   4.401  19.053  0.00  0.00    +0.000 S 
ATOM     22  O   UNL     1       3.084   3.982  20.436  0.00  0.00    +0.000 OA
ATOM     23  O   UNL     1       2.068   3.692  18.152  0.00  0.00    +0.000 OA
BRANCH  21  24
ATOM     24  N   UNL     1       4.501   4.489  18.341  0.00  0.00    +0.000 NA
ATOM     25  C   UNL     1       4.540   4.614  16.866  0.00  0.00    +0.000 C 
ATOM     26  C   UNL     1       5.686   3.808  16.258  0.00  0.00    +0.000 C 
ATOM     27  C   UNL     1       7.027   4.532  16.261  0.00  0.00    +0.000 C 
ATOM     28  C   UNL     1       7.558   4.830  17.654  0.00  0.00    +0.000 C 
ATOM     29  C   UNL     1       6.686   5.823  18.413  0.00  0.00    +0.000 C 
ATOM     30  C   UNL     1       5.525   5.185  19.160  0.00  0.00    +0.000 C 
ENDBRANCH  21  24
ENDBRANCH   4  21
BRANCH   1  32
ATOM     31  C   UNL     1       2.146  10.892  18.005  0.00  0.00    +0.000 C 
ATOM     32  O   UNL     1       1.532  10.177  19.088  0.00  0.00    +0.000 OA
ENDBRANCH   1  32
TORSDOF 9
ENDMDL
MODEL 3
REMARK VINA RESULT:      -7.6      0.910      1.448
REMARK  Name = 
REMARK  10 active torsions:
REMARK  status: ('A' for Active; 'I' for Inactive)
REMARK    1  A    between atoms: C_1  and  O_2
REMARK    2  A    between atoms: O_2  and  C_3
REMARK    3  A    between atoms: C_6  and  S_7
REMARK    4  A    between atoms: S_7  and  N_10
REMARK    5  A    between atoms: C_18  and  N_19
REMARK    6  A    between atoms: C_20  and  C_22
REMARK    7  A    between atoms: C_22  and  C_23
REMARK    8  A    between atoms: C_23  and  C_24
REMARK    9  A    between atoms: C_24  and  O_25
REMARK   10  A    between atoms: O_25  and  C_26
REMARK                            x       y       z     vdW  Elec       q    Type
REMARK                         _______ _______ _______ _____ _____    ______ ____
ROOT
ATOM      1  C   UNL     1       6.157   5.057  16.308  0.00  0.00    +0.000 A 
ATOM      2  C   UNL     1       5.276   3.962  16.335  0.00  0.00    +0.000 A 
ATOM      3  C   UNL     1       4.167   3.959  17.174  0.00  0.00    +0.000 A 
ATOM      4  C   UNL     1       3.918   5.066  17.976  0.00  0.00    +0.000 A 
ATOM      5  C   UNL     1       4.713   6.209  17.870  0.00  0.00    +0.000 A 
ATOM      6  C   UNL     1       5.857   6.218  17.058  0.00  0.00    +0.000 A 
ENDROOT
BRANCH   6   7
ATOM      7  N   UNL     1       6.700   7.363  16.974  0.00  0.00    +0.000 N 
ATOM      8  C   UNL     1       7.762   7.635  17.827  0.00  0.00    +0.000 C 
ATOM      9  O   UNL     1       8.152   6.897  18.729  0.00  0.00    +0.000 OA
ATOM     10  H   UNL     1       6.559   7.945  16.156  0.00  0.00    +0.000 HD
BRANCH   8  11
ATOM     11  C   UNL     1       8.479   8.952  17.567  0.00  0.00    +0.000 C 
BRANCH  11  12
ATOM     12  C   UNL     1       8.587   9.790  18.849  0.00  0.00    +0.000 C 
BRANCH  12  13
ATOM     13  C   UNL     1       9.894  10.591  18.889  0.00  0.00    +0.000 C 
BRANCH  13  14
ATOM     14  O   UNL     1       9.965  11.451  17.750  0.00  0.00    +0.000 OA
BRANCH  14  15
ATOM     15  C   UNL     1      10.764  12.555  17.912  0.00  0.00    +0.000 A 
ATOM     16  C   UNL     1      10.916  12.993  19.229  0.00  0.00    +0.000 A 
ATOM     17  C   UNL     1      11.693  14.119  19.515  0.00  0.00    +0.000 A 
ATOM     18  C   UNL     1      12.333  14.801  18.482  0.00  0.00    +0.000 A 
ATOM     19  C   UNL     1      12.212  14.351  17.172  0.00  0.00    +0.000 A 
ATOM     20  C   UNL     1      11.431  13.228  16.886  0.00  0.00    +0.000 A 
ENDBRANCH  14  15
ENDBRANCH  13  14
ENDBRANCH  12  13
ENDBRANCH  11  12
ENDBRANCH   8  11
ENDBRANCH   6   7
BRANCH   4  21
ATOM     21  S   UNL     1       2.538   5.029  19.106  0.00  0.00    +0.000 S 
ATOM     22  O   UNL     1       1.509   4.185  18.525  0.00  0.00    +0.000 OA
ATOM     23  O   UNL     1       3.074   4.751  20.413  0.00  0.00    +0.000 OA
BRANCH  21  24
ATOM     24  N   UNL     1       1.989   6.658  19.079  0.00  0.00    +0.000 NA
ATOM     25  C   UNL     1       2.200   7.439  20.319  0.00  0.00    +0.000 C 
ATOM     26  C   UNL     1       1.025   8.369  20.612  0.00  0.00    +0.000 C 
ATOM     27  C   UNL     1       1.087   9.701  19.875  0.00  0.00    +0.000 C 
ATOM     28  C   UNL     1       1.012   9.568  18.362  0.00  0.00    +0.000 C 
ATOM     29  C   UNL     1       2.223   8.852  17.777  0.00  0.00    +0.000 C 
ATOM     30  C   UNL     1       2.100   7.335  17.763  0.00  0.00    +0.000 C 
ENDBRANCH  21  24
ENDBRANCH   4  21
BRANCH   1  32
ATOM     31  C   UNL     1       7.171   4.863  14.185  0.00  0.00    +0.000 C 
ATOM     32  O   UNL     1       7.340   5.022  15.601  0.00  0.00    +0.000 OA
ENDBRANCH   1  32
TORSDOF 9
ENDMDL
MODEL 4
REMARK VINA RESULT:      -7.5      5.053      9.164
REMARK  Name = 
REMARK  10 active torsions:
REMARK  status: ('A' for Active; 'I' for Inactive)
REMARK    1  A    between atoms: C_1  and  O_2
REMARK    2  A    between atoms: O_2  and  C_3
REMARK    3  A    between atoms: C_6  and  S_7
REMARK    4  A    between atoms: S_7  and  N_10
REMARK    5  A    between atoms: C_18  and  N_19
REMARK    6  A    between atoms: C_20  and  C_22
REMARK    7  A    between atoms: C_22  and  C_23
REMARK    8  A    between atoms: C_23  and  C_24
REMARK    9  A    between atoms: C_24  and  O_25
REMARK   10  A    between atoms: O_25  and  C_26
REMARK                            x       y       z     vdW  Elec       q    Type
REMARK                         _______ _______ _______ _____ _____    ______ ____
ROOT
ATOM      1  C   UNL     1       1.714   8.934  19.059  0.00  0.00    +0.000 A 
ATOM      2  C   UNL     1       1.987   8.303  17.833  0.00  0.00    +0.000 A 
ATOM      3  C   UNL     1       2.333   6.957  17.784  0.00  0.00    +0.000 A 
ATOM      4  C   UNL     1       2.386   6.226  18.965  0.00  0.00    +0.000 A 
ATOM      5  C   UNL     1       2.000   6.806  20.175  0.00  0.00    +0.000 A 
ATOM      6  C   UNL     1       1.683   8.171  20.249  0.00  0.00    +0.000 A 
ENDROOT
BRANCH   6   7
ATOM      7  N   UNL     1       1.328   8.785  21.485  0.00  0.00    +0.000 N 
ATOM      8  C   UNL     1       0.067   8.740  22.065  0.00  0.00    +0.000 C 
ATOM      9  O   UNL     1      -0.894   8.116  21.619  0.00  0.00    +0.000 OA
ATOM     10  H   UNL     1       2.101   9.181  22.008  0.00  0.00    +0.000 HD
BRANCH   8  11
ATOM     11  C   UNL     1      -0.077   9.521  23.363  0.00  0.00    +0.000 C 
BRANCH  11  12
ATOM     12  C   UNL     1      -1.124  10.636  23.228  0.00  0.00    +0.000 C 
BRANCH  12  13
ATOM     13  C   UNL     1      -0.701  11.681  22.189  0.00  0.00    +0.000 C 
BRANCH  13  14
ATOM     14  O   UNL     1      -1.781  12.585  21.949  0.00  0.00    +0.000 OA
BRANCH  14  15
ATOM     15  C   UNL     1      -2.129  13.365  23.023  0.00  0.00    +0.000 A 
ATOM     16  C   UNL     1      -1.124  14.210  23.496  0.00  0.00    +0.000 A 
ATOM     17  C   UNL     1      -1.358  15.039  24.596  0.00  0.00    +0.000 A 
ATOM     18  C   UNL     1      -2.605  15.034  25.218  0.00  0.00    +0.000 A 
ATOM     19  C   UNL     1      -3.620  14.217  24.732  0.00  0.00    +0.000 A 
ATOM     20  C   UNL     1      -3.385  13.385  23.635  0.00  0.00    +0.000 A 
ENDBRANCH  14  15
ENDBRANCH  13  14
ENDBRANCH  12  13
ENDBRANCH  11  12
ENDBRANCH   8  11
ENDBRANCH   6   7
BRANCH   4  21
ATOM     21  S   UNL     1       2.906   4.520  18.908  0.00  0.00    +0.000 S 
ATOM     22  O   UNL     1       3.128   4.076  20.272  0.00  0.00    +0.000 OA
ATOM     23  O   UNL     1       1.984   3.829  18.045  0.00  0.00    +0.000 OA
BRANCH  21  24
ATOM     24  N   UNL     1       4.426   4.619  18.111  0.00  0.00    +0.000 NA
ATOM     25  C   UNL     1       5.618   4.321  18.938  0.00  0.00    +0.000 C 
ATOM     26  C   UNL     1       6.792   5.233  18.591  0.00  0.00    +0.000 C 
ATOM     27  C   UNL     1       7.617   4.761  17.400  0.00  0.00    +0.000 C 
ATOM     28  C   UNL     1       6.843   4.736  16.091  0.00  0.00    +0.000 C 
ATOM     29  C   UNL     1       5.719   3.708  16.096  0.00  0.00    +0.000 C 
ATOM     30  C   UNL     1       4.412   4.221  16.681  0.00  0.00    +0.000 C 
ENDBRANCH  21  24
ENDBRANCH   4  21
BRANCH   1  32
ATOM     31  C   UNL     1       2.138  11.048  18.096  0.00  0.00    +0.000 C 
ATOM     32  O   UNL     1       1.516  10.295  19.149  0.00  0.00    +0.000 OA
ENDBRANCH   1  32
TORSDOF 9
ENDMDL
MODEL 5
REMARK VINA RESULT:      -7.5      5.095      8.362
REMARK  Name = 
REMARK  10 active torsions:
REMARK  status: ('A' for Active; 'I' for Inactive)
REMARK    1  A    between atoms: C_1  and  O_2
REMARK    2  A    between atoms: O_2  and  C_3
REMARK    3  A    between atoms: C_6  and  S_7
REMARK    4  A    between atoms: S_7  and  N_10
REMARK    5  A    between atoms: C_18  and  N_19
REMARK    6  A    between atoms: C_20  and  C_22
REMARK    7  A    between atoms: C_22  and  C_23
REMARK    8  A    between atoms: C_23  and  C_24
REMARK    9  A    between atoms: C_24  and  O_25
REMARK   10  A    between atoms: O_25  and  C_26
REMARK                            x       y       z     vdW  Elec       q    Type
REMARK                         _______ _______ _______ _____ _____    ______ ____
ROOT
ATOM      1  C   UNL     1       2.310   7.010  19.745  0.00  0.00    +0.000 A 
ATOM      2  C   UNL     1       1.572   7.610  20.781  0.00  0.00    +0.000 A 
ATOM      3  C   UNL     1       1.077   8.903  20.648  0.00  0.00    +0.000 A 
ATOM      4  C   UNL     1       1.299   9.597  19.465  0.00  0.00    +0.000 A 
ATOM      5  C   UNL     1       1.924   8.972  18.384  0.00  0.00    +0.000 A 
ATOM      6  C   UNL     1       2.462   7.682  18.511  0.00  0.00    +0.000 A 
ENDROOT
BRANCH   6   7
ATOM      7  N   UNL     1       3.139   7.050  17.428  0.00  0.00    +0.000 N 
ATOM      8  C   UNL     1       4.515   7.044  17.243  0.00  0.00    +0.000 C 
ATOM      9  O   UNL     1       5.336   7.533  18.018  0.00  0.00    +0.000 OA
ATOM     10  H   UNL     1       2.555   6.478  16.829  0.00  0.00    +0.000 HD
BRANCH   8  11
ATOM     11  C   UNL     1       4.995   6.346  15.979  0.00  0.00    +0.000 C 
BRANCH  11  12
ATOM     12  C   UNL     1       5.880   5.136  16.312  0.00  0.00    +0.000 C 
BRANCH  12  13
ATOM     13  C   UNL     1       5.070   3.834  16.323  0.00  0.00    +0.000 C 
BRANCH  13  14
ATOM     14  O   UNL     1       4.926   3.369  17.665  0.00  0.00    +0.000 OA
BRANCH  14  15
ATOM     15  C   UNL     1       3.644   3.031  18.023  0.00  0.00    +0.000 A 
ATOM     16  C   UNL     1       2.638   3.783  17.416  0.00  0.00    +0.000 A 
ATOM     17  C   UNL     1       1.295   3.540  17.716  0.00  0.00    +0.000 A 
ATOM     18  C   UNL     1       0.956   2.531  18.615  0.00  0.00    +0.000 A 
ATOM     19  C   UNL     1       1.952   1.756  19.199  0.00  0.00    +0.000 A 
ATOM     20  C   UNL     1       3.295   2.003  18.902  0.00  0.00    +0.000 A 
ENDBRANCH  14  15
ENDBRANCH  13  14
ENDBRANCH  12  13
ENDBRANCH  11  12
ENDBRANCH   8  11
ENDBRANCH   6   7
BRANCH   4  21
ATOM     21  S   UNL     1       0.731  11.282  19.326  0.00  0.00    +0.000 S 
ATOM     22  O   UNL     1       0.719  11.860  20.658  0.00  0.00    +0.000 OA
ATOM     23  O   UNL     1       1.482  11.892  18.260  0.00  0.00    +0.000 OA
BRANCH  21  24
ATOM     24  N   UNL     1      -0.895  11.085  18.800  0.00  0.00    +0.000 NA
ATOM     25  C   UNL     1      -1.716  12.316  18.744  0.00  0.00    +0.000 C 
ATOM     26  C   UNL     1      -3.154  12.060  19.191  0.00  0.00    +0.000 C 
ATOM     27  C   UNL     1      -4.060  11.518  18.092  0.00  0.00    +0.000 C 
ATOM     28  C   UNL     1      -3.644  10.149  17.576  0.00  0.00    +0.000 C 
ATOM     29  C   UNL     1      -2.299  10.178  16.860  0.00  0.00    +0.000 C 
ATOM     30  C   UNL     1      -1.101  10.023  17.784  0.00  0.00    +0.000 C 
ENDBRANCH  21  24
ENDBRANCH   4  21
BRANCH   1  32
ATOM     31  C   UNL     1       2.379   4.984  20.955  0.00  0.00    +0.000 C 
ATOM     32  O   UNL     1       2.937   5.793  19.909  0.00  0.00    +0.000 OA
ENDBRANCH   1  32
TORSDOF 9
ENDMDL
MODEL 6
REMARK VINA RESULT:      -7.4      5.157      8.915
REMARK  Name = 
REMARK  10 active torsions:
REMARK  status: ('A' for Active; 'I' for Inactive)
REMARK    1  A    between atoms: C_1  and  O_2
REMARK    2  A    between atoms: O_2  and  C_3
REMARK    3  A    between atoms: C_6  and  S_7
REMARK    4  A    between atoms: S_7  and  N_10
REMARK    5  A    between atoms: C_18  and  N_19
REMARK    6  A    between atoms: C_20  and  C_22
REMARK    7  A    between atoms: C_22  and  C_23
REMARK    8  A    between atoms: C_23  and  C_24
REMARK    9  A    between atoms: C_24  and  O_25
REMARK   10  A    between atoms: O_25  and  C_26
REMARK                            x       y       z     vdW  Elec       q    Type
REMARK                         _______ _______ _______ _____ _____    ______ ____
ROOT
ATOM      1  C   UNL     1       3.022   5.063  18.365  0.00  0.00    +0.000 A 
ATOM      2  C   UNL     1       3.943   4.019  18.564  0.00  0.00    +0.000 A 
ATOM      3  C   UNL     1       5.226   4.089  18.032  0.00  0.00    +0.000 A 
ATOM      4  C   UNL     1       5.604   5.218  17.315  0.00  0.00    +0.000 A 
ATOM      5  C   UNL     1       4.743   6.313  17.214  0.00  0.00    +0.000 A 
ATOM      6  C   UNL     1       3.433   6.247  17.712  0.00  0.00    +0.000 A 
ENDROOT
BRANCH   6   7
ATOM      7  N   UNL     1       2.531   7.342  17.577  0.00  0.00    +0.000 N 
ATOM      8  C   UNL     1       2.021   8.088  18.631  0.00  0.00    +0.000 C 
ATOM      9  O   UNL     1       2.324   7.942  19.814  0.00  0.00    +0.000 OA
ATOM     10  H   UNL     1       2.355   7.642  16.625  0.00  0.00    +0.000 HD
BRANCH   8  11
ATOM     11  C   UNL     1       1.030   9.173  18.235  0.00  0.00    +0.000 C 
BRANCH  11  12
ATOM     12  C   UNL     1       1.104  10.371  19.194  0.00  0.00    +0.000 C 
BRANCH  12  13
ATOM     13  C   UNL     1      -0.170  11.223  19.126  0.00  0.00    +0.000 C 
BRANCH  13  14
ATOM     14  O   UNL     1      -1.318  10.374  19.145  0.00  0.00    +0.000 OA
BRANCH  14  15
ATOM     15  C   UNL     1      -2.155  10.513  18.066  0.00  0.00    +0.000 A 
ATOM     16  C   UNL     1      -3.241  11.368  18.261  0.00  0.00    +0.000 A 
ATOM     17  C   UNL     1      -4.170  11.575  17.239  0.00  0.00    +0.000 A 
ATOM     18  C   UNL     1      -4.005  10.938  16.011  0.00  0.00    +0.000 A 
ATOM     19  C   UNL     1      -2.908  10.110  15.799  0.00  0.00    +0.000 A 
ATOM     20  C   UNL     1      -1.982   9.899  16.824  0.00  0.00    +0.000 A 
ENDBRANCH  14  15
ENDBRANCH  13  14
ENDBRANCH  12  13
ENDBRANCH  11  12
ENDBRANCH   8  11
ENDBRANCH   6   7
BRANCH   4  21
ATOM     21  S   UNL     1       7.223   5.272  16.569  0.00  0.00    +0.000 S 
ATOM     22  O   UNL     1       7.630   6.663  16.486  0.00  0.00    +0.000 OA
ATOM     23  O   UNL     1       8.034   4.301  17.256  0.00  0.00    +0.000 OA
BRANCH  21  24
ATOM     24  N   UNL     1       6.919   4.696  14.977  0.00  0.00    +0.000 NA
ATOM     25  C   UNL     1       5.499   4.649  14.560  0.00  0.00    +0.000 C 
ATOM     26  C   UNL     1       5.198   3.415  13.711  0.00  0.00    +0.000 C 
ATOM     27  C   UNL     1       5.528   3.581  12.233  0.00  0.00    +0.000 C 
ATOM     28  C   UNL     1       7.009   3.795  11.958  0.00  0.00    +0.000 C 
ATOM     29  C   UNL     1       7.523   5.114  12.523  0.00  0.00    +0.000 C 
ATOM     30  C   UNL     1       7.963   5.036  13.978  0.00  0.00    +0.000 C 
ENDBRANCH  21  24
ENDBRANCH   4  21
BRANCH   1  32
ATOM     31  C   UNL     1       1.519   4.335  20.035  0.00  0.00    +0.000 C 
ATOM     32  O   UNL     1       1.703   4.952  18.752  0.00  0.00    +0.000 OA
ENDBRANCH   1  32
TORSDOF 9
ENDMDL
MODEL 7
REMARK VINA RESULT:      -7.4      5.771      9.803
REMARK  Name = 
REMARK  10 active torsions:
REMARK  status: ('A' for Active; 'I' for Inactive)
REMARK    1  A    between atoms: C_1  and  O_2
REMARK    2  A    between atoms: O_2  and  C_3
REMARK    3  A    between atoms: C_6  and  S_7
REMARK    4  A    between atoms: S_7  and  N_10
REMARK    5  A    between atoms: C_18  and  N_19
REMARK    6  A    between atoms: C_20  and  C_22
REMARK    7  A    between atoms: C_22  and  C_23
REMARK    8  A    between atoms: C_23  and  C_24
REMARK    9  A    between atoms: C_24  and  O_25
REMARK   10  A    between atoms: O_25  and  C_26
REMARK                            x       y       z     vdW  Elec       q    Type
REMARK                         _______ _______ _______ _____ _____    ______ ____
ROOT
ATOM      1  C   UNL     1      -0.964  10.872  18.296  0.00  0.00    +0.000 A 
ATOM      2  C   UNL     1      -1.581  12.136  18.274  0.00  0.00    +0.000 A 
ATOM      3  C   UNL     1      -1.226  13.118  19.192  0.00  0.00    +0.000 A 
ATOM      4  C   UNL     1      -0.233  12.849  20.126  0.00  0.00    +0.000 A 
ATOM      5  C   UNL     1       0.473  11.645  20.083  0.00  0.00    +0.000 A 
ATOM      6  C   UNL     1       0.105  10.628  19.188  0.00  0.00    +0.000 A 
ENDROOT
BRANCH   6   7
ATOM      7  N   UNL     1       0.789   9.378  19.163  0.00  0.00    +0.000 N 
ATOM      8  C   UNL     1       1.783   9.032  18.256  0.00  0.00    +0.000 C 
ATOM      9  O   UNL     1       2.246   9.777  17.395  0.00  0.00    +0.000 OA
ATOM     10  H   UNL     1       0.592   8.761  19.942  0.00  0.00    +0.000 HD
BRANCH   8  11
ATOM     11  C   UNL     1       2.324   7.617  18.399  0.00  0.00    +0.000 C 
BRANCH  11  12
ATOM     12  C   UNL     1       3.630   7.438  17.612  0.00  0.00    +0.000 C 
BRANCH  12  13
ATOM     13  C   UNL     1       4.180   6.014  17.752  0.00  0.00    +0.000 C 
BRANCH  13  14
ATOM     14  O   UNL     1       3.955   5.541  19.081  0.00  0.00    +0.000 OA
BRANCH  14  15
ATOM     15  C   UNL     1       2.921   4.646  19.207  0.00  0.00    +0.000 A 
ATOM     16  C   UNL     1       2.349   4.571  20.477  0.00  0.00    +0.000 A 
ATOM     17  C   UNL     1       1.300   3.683  20.729  0.00  0.00    +0.000 A 
ATOM     18  C   UNL     1       0.811   2.877  19.702  0.00  0.00    +0.000 A 
ATOM     19  C   UNL     1       1.355   2.969  18.426  0.00  0.00    +0.000 A 
ATOM     20  C   UNL     1       2.408   3.854  18.176  0.00  0.00    +0.000 A 
ENDBRANCH  14  15
ENDBRANCH  13  14
ENDBRANCH  12  13
ENDBRANCH  11  12
ENDBRANCH   8  11
ENDBRANCH   6   7
BRANCH   4  21
ATOM     21  S   UNL     1       0.166  14.084  21.351  0.00  0.00    +0.000 S 
ATOM     22  O   UNL     1       1.367  13.653  22.043  0.00  0.00    +0.000 OA
ATOM     23  O   UNL     1       0.109  15.363  20.692  0.00  0.00    +0.000 OA
BRANCH  21  24
ATOM     24  N   UNL     1      -1.162  13.973  22.438  0.00  0.00    +0.000 NA
ATOM     25  C   UNL     1      -1.493  12.615  22.928  0.00  0.00    +0.000 C 
ATOM     26  C   UNL     1      -3.001  12.406  23.045  0.00  0.00    +0.000 C 
ATOM     27  C   UNL     1      -3.602  12.920  24.347  0.00  0.00    +0.000 C 
ATOM     28  C   UNL     1      -3.480  14.425  24.525  0.00  0.00    +0.000 C 
ATOM     29  C   UNL     1      -2.033  14.882  24.669  0.00  0.00    +0.000 C 
ATOM     30  C   UNL     1      -1.329  15.136  23.344  0.00  0.00    +0.000 C 
ENDBRANCH  21  24
ENDBRANCH   4  21
BRANCH   1  32
ATOM     31  C   UNL     1      -2.372  10.223  16.515  0.00  0.00    +0.000 C 
ATOM     32  O   UNL     1      -1.401   9.836  17.498  0.00  0.00    +0.000 OA
ENDBRANCH   1  32
TORSDOF 9
ENDMDL
MODEL 8
REMARK VINA RESULT:      -7.4      4.682      9.432
REMARK  Name = 
REMARK  10 active torsions:
REMARK  status: ('A' for Active; 'I' for Inactive)
REMARK    1  A    between atoms: C_1  and  O_2
REMARK    2  A    between atoms: O_2  and  C_3
REMARK    3  A    between atoms: C_6  and  S_7
REMARK    4  A    between atoms: S_7  and  N_10
REMARK    5  A    between atoms: C_18  and  N_19
REMARK    6  A    between atoms: C_20  and  C_22
REMARK    7  A    between atoms: C_22  and  C_23
REMARK    8  A    between atoms: C_23  and  C_24
REMARK    9  A    between atoms: C_24  and  O_25
REMARK   10  A    between atoms: O_25  and  C_26
REMARK                            x       y       z     vdW  Elec       q    Type
REMARK                         _______ _______ _______ _____ _____    ______ ____
ROOT
ATOM      1  C   UNL     1       1.596   9.435  18.960  0.00  0.00    +0.000 A 
ATOM      2  C   UNL     1       1.898   8.821  17.731  0.00  0.00    +0.000 A 
ATOM      3  C   UNL     1       2.306   7.493  17.679  0.00  0.00    +0.000 A 
ATOM      4  C   UNL     1       2.394   6.762  18.857  0.00  0.00    +0.000 A 
ATOM      5  C   UNL     1       1.982   7.320  20.069  0.00  0.00    +0.000 A 
ATOM      6  C   UNL     1       1.602   8.668  20.148  0.00  0.00    +0.000 A 
ENDROOT
BRANCH   6   7
ATOM      7  N   UNL     1       1.219   9.261  21.386  0.00  0.00    +0.000 N 
ATOM      8  C   UNL     1       0.046   8.982  22.074  0.00  0.00    +0.000 C 
ATOM      9  O   UNL     1      -0.790   8.145  21.738  0.00  0.00    +0.000 OA
ATOM     10  H   UNL     1       1.926   9.840  21.824  0.00  0.00    +0.000 HD
BRANCH   8  11
ATOM     11  C   UNL     1      -0.162   9.786  23.349  0.00  0.00    +0.000 C 
BRANCH  11  12
ATOM     12  C   UNL     1      -1.337  10.765  23.204  0.00  0.00    +0.000 C 
BRANCH  12  13
ATOM     13  C   UNL     1      -0.934  12.013  22.411  0.00  0.00    +0.000 C 
BRANCH  13  14
ATOM     14  O   UNL     1      -1.905  13.042  22.607  0.00  0.00    +0.000 OA
BRANCH  14  15
ATOM     15  C   UNL     1      -3.070  12.877  21.900  0.00  0.00    +0.000 A 
ATOM     16  C   UNL     1      -2.911  12.671  20.529  0.00  0.00    +0.000 A 
ATOM     17  C   UNL     1      -4.026  12.506  19.705  0.00  0.00    +0.000 A 
ATOM     18  C   UNL     1      -5.306  12.532  20.255  0.00  0.00    +0.000 A 
ATOM     19  C   UNL     1      -5.471  12.705  21.625  0.00  0.00    +0.000 A 
ATOM     20  C   UNL     1      -4.355  12.874  22.448  0.00  0.00    +0.000 A 
ENDBRANCH  14  15
ENDBRANCH  13  14
ENDBRANCH  12  13
ENDBRANCH  11  12
ENDBRANCH   8  11
ENDBRANCH   6   7
BRANCH   4  21
ATOM     21  S   UNL     1       2.992   5.082  18.795  0.00  0.00    +0.000 S 
ATOM     22  O   UNL     1       3.465   4.728  20.121  0.00  0.00    +0.000 OA
ATOM     23  O   UNL     1       1.979   4.300  18.135  0.00  0.00    +0.000 OA
BRANCH  21  24
ATOM     24  N   UNL     1       4.349   5.208  17.746  0.00  0.00    +0.000 NA
ATOM     25  C   UNL     1       5.625   5.619  18.375  0.00  0.00    +0.000 C 
ATOM     26  C   UNL     1       6.428   6.554  17.474  0.00  0.00    +0.000 C 
ATOM     27  C   UNL     1       7.280   5.837  16.435  0.00  0.00    +0.000 C 
ATOM     28  C   UNL     1       6.471   5.043  15.421  0.00  0.00    +0.000 C 
ATOM     29  C   UNL     1       5.730   3.871  16.053  0.00  0.00    +0.000 C 
ATOM     30  C   UNL     1       4.368   4.234  16.626  0.00  0.00    +0.000 C 
ENDBRANCH  21  24
ENDBRANCH   4  21
BRANCH   1  32
ATOM     31  C   UNL     1       2.237  11.610  18.300  0.00  0.00    +0.000 C 
ATOM     32  O   UNL     1       1.335  10.786  19.054  0.00  0.00    +0.000 OA
ENDBRANCH   1  32
TORSDOF 9
ENDMDL
MODEL 9
REMARK VINA RESULT:      -7.4      5.307      7.659
REMARK  Name = 
REMARK  10 active torsions:
REMARK  status: ('A' for Active; 'I' for Inactive)
REMARK    1  A    between atoms: C_1  and  O_2
REMARK    2  A    between atoms: O_2  and  C_3
REMARK    3  A    between atoms: C_6  and  S_7
REMARK    4  A    between atoms: S_7  and  N_10
REMARK    5  A    between atoms: C_18  and  N_19
REMARK    6  A    between atoms: C_20  and  C_22
REMARK    7  A    between atoms: C_22  and  C_23
REMARK    8  A    between atoms: C_23  and  C_24
REMARK    9  A    between atoms: C_24  and  O_25
REMARK   10  A    between atoms: O_25  and  C_26
REMARK                            x       y       z     vdW  Elec       q    Type
REMARK                         _______ _______ _______ _____ _____    ______ ____
ROOT
ATOM      1  C   UNL     1       2.603   7.704  18.462  0.00  0.00    +0.000 A 
ATOM      2  C   UNL     1       2.318   8.932  17.840  0.00  0.00    +0.000 A 
ATOM      3  C   UNL     1       1.495   9.869  18.456  0.00  0.00    +0.000 A 
ATOM      4  C   UNL     1       0.969   9.591  19.711  0.00  0.00    +0.000 A 
ATOM      5  C   UNL     1       1.340   8.431  20.393  0.00  0.00    +0.000 A 
ATOM      6  C   UNL     1       2.139   7.457  19.775  0.00  0.00    +0.000 A 
ENDROOT
BRANCH   6   7
ATOM      7  N   UNL     1       2.491   6.249  20.444  0.00  0.00    +0.000 N 
ATOM      8  C   UNL     1       1.892   5.015  20.228  0.00  0.00    +0.000 C 
ATOM      9  O   UNL     1       1.021   4.788  19.391  0.00  0.00    +0.000 OA
ATOM     10  H   UNL     1       3.314   6.305  21.033  0.00  0.00    +0.000 HD
BRANCH   8  11
ATOM     11  C   UNL     1       2.406   3.885  21.108  0.00  0.00    +0.000 C 
BRANCH  11  12
ATOM     12  C   UNL     1       3.177   2.844  20.282  0.00  0.00    +0.000 C 
BRANCH  12  13
ATOM     13  C   UNL     1       4.298   3.496  19.465  0.00  0.00    +0.000 C 
BRANCH  13  14
ATOM     14  O   UNL     1       4.152   3.149  18.087  0.00  0.00    +0.000 OA
BRANCH  14  15
ATOM     15  C   UNL     1       5.092   3.700  17.251  0.00  0.00    +0.000 A 
ATOM     16  C   UNL     1       6.251   4.160  17.879  0.00  0.00    +0.000 A 
ATOM     17  C   UNL     1       7.271   4.755  17.132  0.00  0.00    +0.000 A 
ATOM     18  C   UNL     1       7.138   4.879  15.751  0.00  0.00    +0.000 A 
ATOM     19  C   UNL     1       6.000   4.395  15.115  0.00  0.00    +0.000 A 
ATOM     20  C   UNL     1       4.979   3.803  15.863  0.00  0.00    +0.000 A 
ENDBRANCH  14  15
ENDBRANCH  13  14
ENDBRANCH  12  13
ENDBRANCH  11  12
ENDBRANCH   8  11
ENDBRANCH   6   7
BRANCH   4  21
ATOM     21  S   UNL     1      -0.148  10.761  20.464  0.00  0.00    +0.000 S 
ATOM     22  O   UNL     1      -0.597  10.201  21.726  0.00  0.00    +0.000 OA
ATOM     23  O   UNL     1       0.495  12.049  20.412  0.00  0.00    +0.000 OA
BRANCH  21  24
ATOM     24  N   UNL     1      -1.473  10.771  19.368  0.00  0.00    +0.000 NA
ATOM     25  C   UNL     1      -2.111  12.086  19.128  0.00  0.00    +0.000 C 
ATOM     26  C   UNL     1      -3.627  11.965  18.996  0.00  0.00    +0.000 C 
ATOM     27  C   UNL     1      -4.102  11.584  17.599  0.00  0.00    +0.000 C 
ATOM     28  C   UNL     1      -3.638  10.207  17.149  0.00  0.00    +0.000 C 
ATOM     29  C   UNL     1      -2.126  10.128  16.977  0.00  0.00    +0.000 C 
ATOM     30  C   UNL     1      -1.373   9.794  18.256  0.00  0.00    +0.000 C 
ENDBRANCH  21  24
ENDBRANCH   4  21
BRANCH   1  32
ATOM     31  C   UNL     1       4.416   7.162  17.049  0.00  0.00    +0.000 C 
ATOM     32  O   UNL     1       3.290   6.701  17.811  0.00  0.00    +0.000 OA
ENDBRANCH   1  32
TORSDOF 9
ENDMDL
