MODEL 1
REMARK VINA RESULT:      -7.6      0.000      0.000
REMARK  Name = 
REMARK  4 active torsions:
REMARK  status: ('A' for Active; 'I' for Inactive)
REMARK    1  A    between atoms: C_1  and  C_2
REMARK    2  A    between atoms: C_5  and  C_6
REMARK    3  A    between atoms: C_12  and  C_13
REMARK    4  A    between atoms: N_21  and  C_22
REMARK                            x       y       z     vdW  Elec       q    Type
REMARK                         _______ _______ _______ _____ _____    ______ ____
ROOT
ATOM      1  C   UNL     1      -0.243  16.067  19.347  0.00  0.00    +0.000 C 
ATOM      2  C   UNL     1      -0.177  14.577  19.308  0.00  0.00    +0.000 A 
ATOM      3  N   UNL     1      -1.086  13.829  18.709  0.00  0.00    +0.000 NA
ATOM      4  C   UNL     1      -0.593  12.547  18.734  0.00  0.00    +0.000 A 
ATOM      5  C   UNL     1      -1.120  11.371  18.168  0.00  0.00    +0.000 A 
ATOM      6  C   UNL     1      -0.390  10.176  18.296  0.00  0.00    +0.000 A 
ATOM      7  C   UNL     1       0.815  10.097  19.014  0.00  0.00    +0.000 A 
ATOM      8  C   UNL     1       1.271  11.268  19.664  0.00  0.00    +0.000 A 
ATOM      9  C   UNL     1       0.609  12.491  19.435  0.00  0.00    +0.000 A 
ATOM     10  N   UNL     1       0.905  13.811  19.756  0.00  0.00    +0.000 N 
ENDROOT
BRANCH  10  11
ATOM     11  C   UNL     1       2.084  14.323  20.381  0.00  0.00    +0.000 A 
ATOM     12  C   UNL     1       1.981  14.643  21.737  0.00  0.00    +0.000 A 
ATOM     13  C   UNL     1       3.063  15.232  22.360  0.00  0.00    +0.000 A 
ATOM     14  N   UNL     1       4.199  15.534  21.716  0.00  0.00    +0.000 NA
ATOM     15  C   UNL     1       4.325  15.231  20.409  0.00  0.00    +0.000 A 
ATOM     16  C   UNL     1       5.504  15.617  19.762  0.00  0.00    +0.000 A 
ATOM     17  F   UNL     1       6.434  16.318  20.435  0.00  0.00    +0.000 F 
ATOM     18  C   UNL     1       5.772  15.330  18.430  0.00  0.00    +0.000 A 
ATOM     19  C   UNL     1       4.822  14.651  17.695  0.00  0.00    +0.000 A 
ATOM     20  C   UNL     1       3.601  14.341  18.291  0.00  0.00    +0.000 A 
ATOM     21  F   UNL     1       2.679  13.840  17.463  0.00  0.00    +0.000 F 
ATOM     22  C   UNL     1       3.305  14.587  19.664  0.00  0.00    +0.000 A 
ENDBRANCH  10  11
BRANCH   5  23
ATOM     23  C   UNL     1      -2.377  11.405  17.440  0.00  0.00    +0.000 A 
ATOM     24  N   UNL     1      -2.595  10.986  16.205  0.00  0.00    +0.000 NA
ATOM     25  N   UNL     1      -3.927  11.170  15.910  0.00  0.00    +0.000 NA
ATOM     26  C   UNL     1      -4.495  11.700  16.966  0.00  0.00    +0.000 A 
ATOM     27  N   UNL     1      -3.566  11.875  17.942  0.00  0.00    +0.000 N 
ATOM     28  H   UNL     1      -3.692  12.262  18.869  0.00  0.00    +0.000 HD
ENDBRANCH   5  23
BRANCH   7  29
ATOM     29  C   UNL     1       1.595   8.831  19.052  0.00  0.00    +0.000 A 
ATOM     30  C   UNL     1       2.379   8.414  17.959  0.00  0.00    +0.000 A 
ATOM     31  C   UNL     1       3.065   7.210  18.021  0.00  0.00    +0.000 A 
ATOM     32  N   UNL     1       3.060   6.400  19.095  0.00  0.00    +0.000 NA
ATOM     33  C   UNL     1       2.333   6.815  20.150  0.00  0.00    +0.000 A 
ATOM     34  C   UNL     1       1.603   7.994  20.174  0.00  0.00    +0.000 A 
ENDBRANCH   7  29
TORSDOF 3
ENDMDL
MODEL 2
REMARK VINA RESULT:      -7.6      2.672      6.642
REMARK  Name = 
REMARK  4 active torsions:
REMARK  status: ('A' for Active; 'I' for Inactive)
REMARK    1  A    between atoms: C_1  and  C_2
REMARK    2  A    between atoms: C_5  and  C_6
REMARK    3  A    between atoms: C_12  and  C_13
REMARK    4  A    between atoms: N_21  and  C_22
REMARK                            x       y       z     vdW  Elec       q    Type
REMARK                         _______ _______ _______ _____ _____    ______ ____
ROOT
ATOM      1  C   UNL     1      -1.709  12.177  18.405  0.00  0.00    +0.000 C 
ATOM      2  C   UNL     1      -0.429  12.861  18.748  0.00  0.00    +0.000 A 
ATOM      3  N   UNL     1      -0.147  14.096  18.372  0.00  0.00    +0.000 NA
ATOM      4  C   UNL     1       1.019  14.428  19.019  0.00  0.00    +0.000 A 
ATOM      5  C   UNL     1       1.720  15.648  19.036  0.00  0.00    +0.000 A 
ATOM      6  C   UNL     1       2.879  15.747  19.824  0.00  0.00    +0.000 A 
ATOM      7  C   UNL     1       3.398  14.662  20.550  0.00  0.00    +0.000 A 
ATOM      8  C   UNL     1       2.737  13.417  20.433  0.00  0.00    +0.000 A 
ATOM      9  C   UNL     1       1.509  13.346  19.745  0.00  0.00    +0.000 A 
ATOM     10  N   UNL     1       0.544  12.353  19.616  0.00  0.00    +0.000 N 
ENDROOT
BRANCH  10  11
ATOM     11  C   UNL     1       0.502  11.076  20.256  0.00  0.00    +0.000 A 
ATOM     12  C   UNL     1      -0.095  11.031  21.518  0.00  0.00    +0.000 A 
ATOM     13  C   UNL     1      -0.072   9.840  22.217  0.00  0.00    +0.000 A 
ATOM     14  N   UNL     1       0.522   8.733  21.749  0.00  0.00    +0.000 NA
ATOM     15  C   UNL     1       1.100   8.749  20.532  0.00  0.00    +0.000 A 
ATOM     16  C   UNL     1       1.758   7.590  20.108  0.00  0.00    +0.000 A 
ATOM     17  F   UNL     1       1.844   6.532  20.936  0.00  0.00    +0.000 F 
ATOM     18  C   UNL     1       2.359   7.466  18.863  0.00  0.00    +0.000 A 
ATOM     19  C   UNL     1       2.331   8.545  18.004  0.00  0.00    +0.000 A 
ATOM     20  C   UNL     1       1.766   9.742  18.441  0.00  0.00    +0.000 A 
ATOM     21  F   UNL     1       1.932  10.780  17.616  0.00  0.00    +0.000 F 
ATOM     22  C   UNL     1       1.108   9.895  19.697  0.00  0.00    +0.000 A 
ENDBRANCH  10  11
BRANCH   5  23
ATOM     23  C   UNL     1       1.231  16.787  18.278  0.00  0.00    +0.000 A 
ATOM     24  N   UNL     1       1.956  17.724  17.690  0.00  0.00    +0.000 NA
ATOM     25  N   UNL     1       1.105  18.599  17.055  0.00  0.00    +0.000 NA
ATOM     26  C   UNL     1      -0.120  18.185  17.269  0.00  0.00    +0.000 A 
ATOM     27  N   UNL     1      -0.092  17.064  18.036  0.00  0.00    +0.000 N 
ATOM     28  H   UNL     1      -0.872  16.511  18.372  0.00  0.00    +0.000 HD
ENDBRANCH   5  23
BRANCH   7  29
ATOM     29  C   UNL     1       4.580  14.836  21.437  0.00  0.00    +0.000 A 
ATOM     30  C   UNL     1       5.884  14.932  20.917  0.00  0.00    +0.000 A 
ATOM     31  C   UNL     1       6.964  15.060  21.779  0.00  0.00    +0.000 A 
ATOM     32  N   UNL     1       6.848  15.129  23.118  0.00  0.00    +0.000 NA
ATOM     33  C   UNL     1       5.597  15.066  23.611  0.00  0.00    +0.000 A 
ATOM     34  C   UNL     1       4.460  14.923  22.829  0.00  0.00    +0.000 A 
ENDBRANCH   7  29
TORSDOF 3
ENDMDL
MODEL 3
REMARK VINA RESULT:      -7.4      0.352      1.030
REMARK  Name = 
REMARK  4 active torsions:
REMARK  status: ('A' for Active; 'I' for Inactive)
REMARK    1  A    between atoms: C_1  and  C_2
REMARK    2  A    between atoms: C_5  and  C_6
REMARK    3  A    between atoms: C_12  and  C_13
REMARK    4  A    between atoms: N_21  and  C_22
REMARK                            x       y       z     vdW  Elec       q    Type
REMARK                         _______ _______ _______ _____ _____    ______ ____
ROOT
ATOM      1  C   UNL     1      -0.269  16.011  19.193  0.00  0.00    +0.000 C 
ATOM      2  C   UNL     1      -0.202  14.520  19.184  0.00  0.00    +0.000 A 
ATOM      3  N   UNL     1      -1.099  13.761  18.581  0.00  0.00    +0.000 NA
ATOM      4  C   UNL     1      -0.607  12.480  18.641  0.00  0.00    +0.000 A 
ATOM      5  C   UNL     1      -1.123  11.293  18.086  0.00  0.00    +0.000 A 
ATOM      6  C   UNL     1      -0.396  10.101  18.252  0.00  0.00    +0.000 A 
ATOM      7  C   UNL     1       0.794  10.036  18.996  0.00  0.00    +0.000 A 
ATOM      8  C   UNL     1       1.237  11.219  19.633  0.00  0.00    +0.000 A 
ATOM      9  C   UNL     1       0.580  12.437  19.367  0.00  0.00    +0.000 A 
ATOM     10  N   UNL     1       0.870  13.763  19.669  0.00  0.00    +0.000 N 
ENDROOT
BRANCH  10  11
ATOM     11  C   UNL     1       2.036  14.287  20.309  0.00  0.00    +0.000 A 
ATOM     12  C   UNL     1       1.915  14.596  21.666  0.00  0.00    +0.000 A 
ATOM     13  C   UNL     1       2.984  15.195  22.303  0.00  0.00    +0.000 A 
ATOM     14  N   UNL     1       4.121  15.518  21.671  0.00  0.00    +0.000 NA
ATOM     15  C   UNL     1       4.264  15.226  20.363  0.00  0.00    +0.000 A 
ATOM     16  C   UNL     1       5.443  15.633  19.730  0.00  0.00    +0.000 A 
ATOM     17  F   UNL     1       6.357  16.342  20.417  0.00  0.00    +0.000 F 
ATOM     18  C   UNL     1       5.727  15.359  18.398  0.00  0.00    +0.000 A 
ATOM     19  C   UNL     1       4.793  14.672  17.650  0.00  0.00    +0.000 A 
ATOM     20  C   UNL     1       3.571  14.341  18.233  0.00  0.00    +0.000 A 
ATOM     21  F   UNL     1       2.663  13.833  17.393  0.00  0.00    +0.000 F 
ATOM     22  C   UNL     1       3.259  14.573  19.604  0.00  0.00    +0.000 A 
ENDBRANCH  10  11
BRANCH   5  23
ATOM     23  C   UNL     1      -2.364  11.313  17.332  0.00  0.00    +0.000 A 
ATOM     24  N   UNL     1      -3.585  11.484  17.809  0.00  0.00    +0.000 NA
ATOM     25  N   UNL     1      -4.472  11.467  16.757  0.00  0.00    +0.000 NA
ATOM     26  C   UNL     1      -3.779  11.282  15.660  0.00  0.00    +0.000 A 
ATOM     27  N   UNL     1      -2.461  11.170  15.969  0.00  0.00    +0.000 N 
ATOM     28  H   UNL     1      -1.678  11.021  15.344  0.00  0.00    +0.000 HD
ENDBRANCH   5  23
BRANCH   7  29
ATOM     29  C   UNL     1       1.573   8.771  19.075  0.00  0.00    +0.000 A 
ATOM     30  C   UNL     1       1.591   7.987  20.243  0.00  0.00    +0.000 A 
ATOM     31  C   UNL     1       2.357   6.831  20.288  0.00  0.00    +0.000 A 
ATOM     32  N   UNL     1       3.084   6.375  19.252  0.00  0.00    +0.000 NA
ATOM     33  C   UNL     1       3.042   7.111  18.125  0.00  0.00    +0.000 A 
ATOM     34  C   UNL     1       2.318   8.287  17.993  0.00  0.00    +0.000 A 
ENDBRANCH   7  29
TORSDOF 3
ENDMDL
MODEL 4
REMARK VINA RESULT:      -7.3      1.327      2.158
REMARK  Name = 
REMARK  4 active torsions:
REMARK  status: ('A' for Active; 'I' for Inactive)
REMARK    1  A    between atoms: C_1  and  C_2
REMARK    2  A    between atoms: C_5  and  C_6
REMARK    3  A    between atoms: C_12  and  C_13
REMARK    4  A    between atoms: N_21  and  C_22
REMARK                            x       y       z     vdW  Elec       q    Type
REMARK                         _______ _______ _______ _____ _____    ______ ____
ROOT
ATOM      1  C   UNL     1       0.227  16.342  18.741  0.00  0.00    +0.000 C 
ATOM      2  C   UNL     1       0.243  14.862  18.927  0.00  0.00    +0.000 A 
ATOM      3  N   UNL     1      -0.847  14.118  18.882  0.00  0.00    +0.000 NA
ATOM      4  C   UNL     1      -0.412  12.814  18.917  0.00  0.00    +0.000 A 
ATOM      5  C   UNL     1      -1.149  11.619  18.817  0.00  0.00    +0.000 A 
ATOM      6  C   UNL     1      -0.455  10.397  18.833  0.00  0.00    +0.000 A 
ATOM      7  C   UNL     1       0.938  10.318  19.002  0.00  0.00    +0.000 A 
ATOM      8  C   UNL     1       1.645  11.526  19.206  0.00  0.00    +0.000 A 
ATOM      9  C   UNL     1       0.971  12.756  19.067  0.00  0.00    +0.000 A 
ATOM     10  N   UNL     1       1.398  14.078  19.016  0.00  0.00    +0.000 N 
ENDROOT
BRANCH  10  11
ATOM     11  C   UNL     1       2.740  14.571  19.014  0.00  0.00    +0.000 A 
ATOM     12  C   UNL     1       3.367  14.665  17.769  0.00  0.00    +0.000 A 
ATOM     13  C   UNL     1       4.695  15.042  17.726  0.00  0.00    +0.000 A 
ATOM     14  N   UNL     1       5.416  15.296  18.827  0.00  0.00    +0.000 NA
ATOM     15  C   UNL     1       4.833  15.217  20.039  0.00  0.00    +0.000 A 
ATOM     16  C   UNL     1       5.636  15.434  21.164  0.00  0.00    +0.000 A 
ATOM     17  F   UNL     1       6.955  15.651  21.008  0.00  0.00    +0.000 F 
ATOM     18  C   UNL     1       5.149  15.419  22.464  0.00  0.00    +0.000 A 
ATOM     19  C   UNL     1       3.810  15.155  22.665  0.00  0.00    +0.000 A 
ATOM     20  C   UNL     1       3.010  14.842  21.568  0.00  0.00    +0.000 A 
ATOM     21  F   UNL     1       1.773  14.434  21.868  0.00  0.00    +0.000 F 
ATOM     22  C   UNL     1       3.466  14.882  20.218  0.00  0.00    +0.000 A 
ENDBRANCH  10  11
BRANCH   5  23
ATOM     23  C   UNL     1      -2.594  11.656  18.668  0.00  0.00    +0.000 A 
ATOM     24  N   UNL     1      -3.331  10.922  17.853  0.00  0.00    +0.000 NA
ATOM     25  N   UNL     1      -4.653  11.247  18.047  0.00  0.00    +0.000 NA
ATOM     26  C   UNL     1      -4.700  12.175  18.972  0.00  0.00    +0.000 A 
ATOM     27  N   UNL     1      -3.439  12.470  19.383  0.00  0.00    +0.000 N 
ATOM     28  H   UNL     1      -3.145  13.142  20.081  0.00  0.00    +0.000 HD
ENDBRANCH   5  23
BRANCH   7  29
ATOM     29  C   UNL     1       1.640   9.008  18.929  0.00  0.00    +0.000 A 
ATOM     30  C   UNL     1       2.352   8.616  17.780  0.00  0.00    +0.000 A 
ATOM     31  C   UNL     1       2.965   7.372  17.739  0.00  0.00    +0.000 A 
ATOM     32  N   UNL     1       2.952   6.496  18.761  0.00  0.00    +0.000 NA
ATOM     33  C   UNL     1       2.294   6.886  19.870  0.00  0.00    +0.000 A 
ATOM     34  C   UNL     1       1.639   8.102  19.997  0.00  0.00    +0.000 A 
ENDBRANCH   7  29
TORSDOF 3
ENDMDL
MODEL 5
REMARK VINA RESULT:      -7.1      3.992      8.250
REMARK  Name = 
REMARK  4 active torsions:
REMARK  status: ('A' for Active; 'I' for Inactive)
REMARK    1  A    between atoms: C_1  and  C_2
REMARK    2  A    between atoms: C_5  and  C_6
REMARK    3  A    between atoms: C_12  and  C_13
REMARK    4  A    between atoms: N_21  and  C_22
REMARK                            x       y       z     vdW  Elec       q    Type
REMARK                         _______ _______ _______ _____ _____    ______ ____
ROOT
ATOM      1  C   UNL     1      -0.412   9.978  22.706  0.00  0.00    +0.000 C 
ATOM      2  C   UNL     1      -0.701  11.374  22.265  0.00  0.00    +0.000 A 
ATOM      3  N   UNL     1      -0.780  12.393  23.102  0.00  0.00    +0.000 NA
ATOM      4  C   UNL     1      -0.879  13.516  22.316  0.00  0.00    +0.000 A 
ATOM      5  C   UNL     1      -0.913  14.873  22.689  0.00  0.00    +0.000 A 
ATOM      6  C   UNL     1      -0.971  15.848  21.678  0.00  0.00    +0.000 A 
ATOM      7  C   UNL     1      -1.054  15.522  20.314  0.00  0.00    +0.000 A 
ATOM      8  C   UNL     1      -1.125  14.152  19.969  0.00  0.00    +0.000 A 
ATOM      9  C   UNL     1      -0.943  13.175  20.968  0.00  0.00    +0.000 A 
ATOM     10  N   UNL     1      -0.770  11.795  20.933  0.00  0.00    +0.000 N 
ENDROOT
BRANCH  10  11
ATOM     11  C   UNL     1      -0.646  10.951  19.786  0.00  0.00    +0.000 A 
ATOM     12  C   UNL     1       0.607  10.371  19.573  0.00  0.00    +0.000 A 
ATOM     13  C   UNL     1       0.803   9.628  18.426  0.00  0.00    +0.000 A 
ATOM     14  N   UNL     1      -0.147   9.461  17.495  0.00  0.00    +0.000 NA
ATOM     15  C   UNL     1      -1.365  10.006  17.679  0.00  0.00    +0.000 A 
ATOM     16  C   UNL     1      -2.308   9.855  16.657  0.00  0.00    +0.000 A 
ATOM     17  F   UNL     1      -1.958   9.234  15.516  0.00  0.00    +0.000 F 
ATOM     18  C   UNL     1      -3.608  10.336  16.741  0.00  0.00    +0.000 A 
ATOM     19  C   UNL     1      -3.989  11.018  17.878  0.00  0.00    +0.000 A 
ATOM     20  C   UNL     1      -3.040  11.264  18.869  0.00  0.00    +0.000 A 
ATOM     21  F   UNL     1      -3.445  12.074  19.852  0.00  0.00    +0.000 F 
ATOM     22  C   UNL     1      -1.708  10.755  18.834  0.00  0.00    +0.000 A 
ENDBRANCH  10  11
BRANCH   5  23
ATOM     23  C   UNL     1      -0.856  15.251  24.091  0.00  0.00    +0.000 A 
ATOM     24  N   UNL     1       0.086  15.961  24.688  0.00  0.00    +0.000 NA
ATOM     25  N   UNL     1      -0.258  16.118  26.011  0.00  0.00    +0.000 NA
ATOM     26  C   UNL     1      -1.399  15.500  26.198  0.00  0.00    +0.000 A 
ATOM     27  N   UNL     1      -1.806  14.935  25.032  0.00  0.00    +0.000 N 
ATOM     28  H   UNL     1      -2.642  14.392  24.853  0.00  0.00    +0.000 HD
ENDBRANCH   5  23
BRANCH   7  29
ATOM     29  C   UNL     1      -1.028  16.587  19.275  0.00  0.00    +0.000 A 
ATOM     30  C   UNL     1      -0.091  16.571  18.225  0.00  0.00    +0.000 A 
ATOM     31  C   UNL     1      -0.078  17.600  17.295  0.00  0.00    +0.000 A 
ATOM     32  N   UNL     1      -0.944  18.631  17.307  0.00  0.00    +0.000 NA
ATOM     33  C   UNL     1      -1.859  18.628  18.296  0.00  0.00    +0.000 A 
ATOM     34  C   UNL     1      -1.938  17.651  19.278  0.00  0.00    +0.000 A 
ENDBRANCH   7  29
TORSDOF 3
ENDMDL
MODEL 6
REMARK VINA RESULT:      -7.0      2.564      6.685
REMARK  Name = 
REMARK  4 active torsions:
REMARK  status: ('A' for Active; 'I' for Inactive)
REMARK    1  A    between atoms: C_1  and  C_2
REMARK    2  A    between atoms: C_5  and  C_6
REMARK    3  A    between atoms: C_12  and  C_13
REMARK    4  A    between atoms: N_21  and  C_22
REMARK                            x       y       z     vdW  Elec       q    Type
REMARK                         _______ _______ _______ _____ _____    ______ ____
ROOT
ATOM      1  C   UNL     1      -1.815  11.849  18.230  0.00  0.00    +0.000 C 
ATOM      2  C   UNL     1      -0.614  12.631  18.646  0.00  0.00    +0.000 A 
ATOM      3  N   UNL     1      -0.419  13.891  18.304  0.00  0.00    +0.000 NA
ATOM      4  C   UNL     1       0.683  14.306  19.012  0.00  0.00    +0.000 A 
ATOM      5  C   UNL     1       1.278  15.580  19.083  0.00  0.00    +0.000 A 
ATOM      6  C   UNL     1       2.386  15.760  19.928  0.00  0.00    +0.000 A 
ATOM      7  C   UNL     1       2.959  14.707  20.662  0.00  0.00    +0.000 A 
ATOM      8  C   UNL     1       2.411  13.413  20.493  0.00  0.00    +0.000 A 
ATOM      9  C   UNL     1       1.227  13.255  19.745  0.00  0.00    +0.000 A 
ATOM     10  N   UNL     1       0.356  12.188  19.553  0.00  0.00    +0.000 N 
ENDROOT
BRANCH  10  11
ATOM     11  C   UNL     1       0.390  10.899  20.170  0.00  0.00    +0.000 A 
ATOM     12  C   UNL     1      -0.213  10.794  21.425  0.00  0.00    +0.000 A 
ATOM     13  C   UNL     1      -0.118   9.595  22.103  0.00  0.00    +0.000 A 
ATOM     14  N   UNL     1       0.549   8.536  21.622  0.00  0.00    +0.000 NA
ATOM     15  C   UNL     1       1.135   8.611  20.411  0.00  0.00    +0.000 A 
ATOM     16  C   UNL     1       1.869   7.504  19.973  0.00  0.00    +0.000 A 
ATOM     17  F   UNL     1       2.016   6.440  20.783  0.00  0.00    +0.000 F 
ATOM     18  C   UNL     1       2.487   7.441  18.731  0.00  0.00    +0.000 A 
ATOM     19  C   UNL     1       2.396   8.532  17.891  0.00  0.00    +0.000 A 
ATOM     20  C   UNL     1       1.752   9.682  18.343  0.00  0.00    +0.000 A 
ATOM     21  F   UNL     1       1.858  10.744  17.538  0.00  0.00    +0.000 F 
ATOM     22  C   UNL     1       1.076   9.770  19.596  0.00  0.00    +0.000 A 
ENDBRANCH  10  11
BRANCH   5  23
ATOM     23  C   UNL     1       0.732  16.690  18.319  0.00  0.00    +0.000 A 
ATOM     24  N   UNL     1      -0.534  17.061  18.246  0.00  0.00    +0.000 NA
ATOM     25  N   UNL     1      -0.617  18.174  17.443  0.00  0.00    +0.000 NA
ATOM     26  C   UNL     1       0.596  18.460  17.037  0.00  0.00    +0.000 A 
ATOM     27  N   UNL     1       1.470  17.556  17.550  0.00  0.00    +0.000 N 
ATOM     28  H   UNL     1       2.474  17.506  17.420  0.00  0.00    +0.000 HD
ENDBRANCH   5  23
BRANCH   7  29
ATOM     29  C   UNL     1       4.079  14.960  21.608  0.00  0.00    +0.000 A 
ATOM     30  C   UNL     1       3.864  15.563  22.861  0.00  0.00    +0.000 A 
ATOM     31  C   UNL     1       4.939  15.814  23.701  0.00  0.00    +0.000 A 
ATOM     32  N   UNL     1       6.210  15.485  23.408  0.00  0.00    +0.000 NA
ATOM     33  C   UNL     1       6.410  14.881  22.221  0.00  0.00    +0.000 A 
ATOM     34  C   UNL     1       5.400  14.605  21.310  0.00  0.00    +0.000 A 
ENDBRANCH   7  29
TORSDOF 3
ENDMDL
MODEL 7
REMARK VINA RESULT:      -7.0      2.579      6.809
REMARK  Name = 
REMARK  4 active torsions:
REMARK  status: ('A' for Active; 'I' for Inactive)
REMARK    1  A    between atoms: C_1  and  C_2
REMARK    2  A    between atoms: C_5  and  C_6
REMARK    3  A    between atoms: C_12  and  C_13
REMARK    4  A    between atoms: N_21  and  C_22
REMARK                            x       y       z     vdW  Elec       q    Type
REMARK                         _______ _______ _______ _____ _____    ______ ____
ROOT
ATOM      1  C   UNL     1      -1.790  11.499  18.401  0.00  0.00    +0.000 C 
ATOM      2  C   UNL     1      -0.642  12.451  18.424  0.00  0.00    +0.000 A 
ATOM      3  N   UNL     1      -0.789  13.761  18.343  0.00  0.00    +0.000 NA
ATOM      4  C   UNL     1       0.456  14.293  18.575  0.00  0.00    +0.000 A 
ATOM      5  C   UNL     1       0.852  15.640  18.680  0.00  0.00    +0.000 A 
ATOM      6  C   UNL     1       2.197  15.926  18.973  0.00  0.00    +0.000 A 
ATOM      7  C   UNL     1       3.173  14.924  19.107  0.00  0.00    +0.000 A 
ATOM      8  C   UNL     1       2.774  13.584  18.891  0.00  0.00    +0.000 A 
ATOM      9  C   UNL     1       1.407  13.287  18.722  0.00  0.00    +0.000 A 
ATOM     10  N   UNL     1       0.687  12.098  18.681  0.00  0.00    +0.000 N 
ENDROOT
BRANCH  10  11
ATOM     11  C   UNL     1       1.168  10.769  18.893  0.00  0.00    +0.000 A 
ATOM     12  C   UNL     1       1.814  10.161  17.814  0.00  0.00    +0.000 A 
ATOM     13  C   UNL     1       2.208   8.843  17.939  0.00  0.00    +0.000 A 
ATOM     14  N   UNL     1       1.975   8.114  19.039  0.00  0.00    +0.000 NA
ATOM     15  C   UNL     1       1.358   8.678  20.095  0.00  0.00    +0.000 A 
ATOM     16  C   UNL     1       1.082   7.866  21.200  0.00  0.00    +0.000 A 
ATOM     17  F   UNL     1       1.382   6.555  21.153  0.00  0.00    +0.000 F 
ATOM     18  C   UNL     1       0.487   8.336  22.363  0.00  0.00    +0.000 A 
ATOM     19  C   UNL     1       0.125   9.665  22.430  0.00  0.00    +0.000 A 
ATOM     20  C   UNL     1       0.301  10.472  21.308  0.00  0.00    +0.000 A 
ATOM     21  F   UNL     1      -0.231  11.694  21.401  0.00  0.00    +0.000 F 
ATOM     22  C   UNL     1       0.941  10.034  20.111  0.00  0.00    +0.000 A 
ENDBRANCH  10  11
BRANCH   5  23
ATOM     23  C   UNL     1      -0.121  16.707  18.522  0.00  0.00    +0.000 A 
ATOM     24  N   UNL     1      -0.032  17.757  17.723  0.00  0.00    +0.000 NA
ATOM     25  N   UNL     1      -1.179  18.504  17.854  0.00  0.00    +0.000 NA
ATOM     26  C   UNL     1      -1.945  17.902  18.730  0.00  0.00    +0.000 A 
ATOM     27  N   UNL     1      -1.324  16.782  19.183  0.00  0.00    +0.000 N 
ATOM     28  H   UNL     1      -1.655  16.108  19.862  0.00  0.00    +0.000 HD
ENDBRANCH   5  23
BRANCH   7  29
ATOM     29  C   UNL     1       4.567  15.268  19.499  0.00  0.00    +0.000 A 
ATOM     30  C   UNL     1       5.415  15.996  18.644  0.00  0.00    +0.000 A 
ATOM     31  C   UNL     1       6.719  16.268  19.032  0.00  0.00    +0.000 A 
ATOM     32  N   UNL     1       7.239  15.899  20.217  0.00  0.00    +0.000 NA
ATOM     33  C   UNL     1       6.416  15.228  21.045  0.00  0.00    +0.000 A 
ATOM     34  C   UNL     1       5.105  14.898  20.737  0.00  0.00    +0.000 A 
ENDBRANCH   7  29
TORSDOF 3
ENDMDL
MODEL 8
REMARK VINA RESULT:      -6.9      3.340      4.859
REMARK  Name = 
REMARK  4 active torsions:
REMARK  status: ('A' for Active; 'I' for Inactive)
REMARK    1  A    between atoms: C_1  and  C_2
REMARK    2  A    between atoms: C_5  and  C_6
REMARK    3  A    between atoms: C_12  and  C_13
REMARK    4  A    between atoms: N_21  and  C_22
REMARK                            x       y       z     vdW  Elec       q    Type
REMARK                         _______ _______ _______ _____ _____    ______ ____
ROOT
ATOM      1  C   UNL     1      -0.451  15.378  23.008  0.00  0.00    +0.000 C 
ATOM      2  C   UNL     1      -1.123  14.393  22.112  0.00  0.00    +0.000 A 
ATOM      3  N   UNL     1      -2.355  13.960  22.310  0.00  0.00    +0.000 NA
ATOM      4  C   UNL     1      -2.676  13.219  21.198  0.00  0.00    +0.000 A 
ATOM      5  C   UNL     1      -3.890  12.595  20.854  0.00  0.00    +0.000 A 
ATOM      6  C   UNL     1      -3.978  11.926  19.621  0.00  0.00    +0.000 A 
ATOM      7  C   UNL     1      -2.887  11.808  18.744  0.00  0.00    +0.000 A 
ATOM      8  C   UNL     1      -1.648  12.351  19.158  0.00  0.00    +0.000 A 
ATOM      9  C   UNL     1      -1.589  13.126  20.333  0.00  0.00    +0.000 A 
ATOM     10  N   UNL     1      -0.605  13.932  20.897  0.00  0.00    +0.000 N 
ENDROOT
BRANCH  10  11
ATOM     11  C   UNL     1       0.672  14.273  20.354  0.00  0.00    +0.000 A 
ATOM     12  C   UNL     1       1.759  13.516  20.799  0.00  0.00    +0.000 A 
ATOM     13  C   UNL     1       3.026  13.872  20.379  0.00  0.00    +0.000 A 
ATOM     14  N   UNL     1       3.261  14.926  19.585  0.00  0.00    +0.000 NA
ATOM     15  C   UNL     1       2.229  15.668  19.138  0.00  0.00    +0.000 A 
ATOM     16  C   UNL     1       2.523  16.793  18.360  0.00  0.00    +0.000 A 
ATOM     17  F   UNL     1       3.807  17.128  18.134  0.00  0.00    +0.000 F 
ATOM     18  C   UNL     1       1.550  17.615  17.808  0.00  0.00    +0.000 A 
ATOM     19  C   UNL     1       0.223  17.328  18.056  0.00  0.00    +0.000 A 
ATOM     20  C   UNL     1      -0.092  16.271  18.907  0.00  0.00    +0.000 A 
ATOM     21  F   UNL     1      -1.386  16.169  19.228  0.00  0.00    +0.000 F 
ATOM     22  C   UNL     1       0.877  15.384  19.461  0.00  0.00    +0.000 A 
ENDBRANCH  10  11
BRANCH   5  23
ATOM     23  C   UNL     1      -5.034  12.672  21.746  0.00  0.00    +0.000 A 
ATOM     24  N   UNL     1      -6.203  12.072  21.598  0.00  0.00    +0.000 NA
ATOM     25  N   UNL     1      -6.994  12.383  22.680  0.00  0.00    +0.000 NA
ATOM     26  C   UNL     1      -6.298  13.168  23.465  0.00  0.00    +0.000 A 
ATOM     27  N   UNL     1      -5.073  13.385  22.920  0.00  0.00    +0.000 N 
ATOM     28  H   UNL     1      -4.312  13.946  23.283  0.00  0.00    +0.000 HD
ENDBRANCH   5  23
BRANCH   7  29
ATOM     29  C   UNL     1      -3.048  11.164  17.412  0.00  0.00    +0.000 A 
ATOM     30  C   UNL     1      -4.097  11.519  16.543  0.00  0.00    +0.000 A 
ATOM     31  C   UNL     1      -4.234  10.871  15.324  0.00  0.00    +0.000 A 
ATOM     32  N   UNL     1      -3.392   9.918  14.885  0.00  0.00    +0.000 NA
ATOM     33  C   UNL     1      -2.372   9.601  15.705  0.00  0.00    +0.000 A 
ATOM     34  C   UNL     1      -2.165  10.182  16.947  0.00  0.00    +0.000 A 
ENDBRANCH   7  29
TORSDOF 3
ENDMDL
MODEL 9
REMARK VINA RESULT:      -6.9      3.936      6.799
REMARK  Name = 
REMARK  4 active torsions:
REMARK  status: ('A' for Active; 'I' for Inactive)
REMARK    1  A    between atoms: C_1  and  C_2
REMARK    2  A    between atoms: C_5  and  C_6
REMARK    3  A    between atoms: C_12  and  C_13
REMARK    4  A    between atoms: N_21  and  C_22
REMARK                            x       y       z     vdW  Elec       q    Type
REMARK                         _______ _______ _______ _____ _____    ______ ____
ROOT
ATOM      1  C   UNL     1      -2.660  16.244  20.603  0.00  0.00    +0.000 C 
ATOM      2  C   UNL     1      -1.760  15.158  20.117  0.00  0.00    +0.000 A 
ATOM      3  N   UNL     1      -0.551  15.385  19.635  0.00  0.00    +0.000 NA
ATOM      4  C   UNL     1       0.022  14.148  19.464  0.00  0.00    +0.000 A 
ATOM      5  C   UNL     1       1.325  13.810  19.052  0.00  0.00    +0.000 A 
ATOM      6  C   UNL     1       1.685  12.453  19.002  0.00  0.00    +0.000 A 
ATOM      7  C   UNL     1       0.781  11.417  19.291  0.00  0.00    +0.000 A 
ATOM      8  C   UNL     1      -0.552  11.775  19.600  0.00  0.00    +0.000 A 
ATOM      9  C   UNL     1      -0.883  13.135  19.772  0.00  0.00    +0.000 A 
ATOM     10  N   UNL     1      -2.014  13.789  20.247  0.00  0.00    +0.000 N 
ENDROOT
BRANCH  10  11
ATOM     11  C   UNL     1      -3.198  13.212  20.801  0.00  0.00    +0.000 A 
ATOM     12  C   UNL     1      -4.160  12.769  19.889  0.00  0.00    +0.000 A 
ATOM     13  C   UNL     1      -5.362  12.295  20.376  0.00  0.00    +0.000 A 
ATOM     14  N   UNL     1      -5.657  12.265  21.683  0.00  0.00    +0.000 NA
ATOM     15  C   UNL     1      -4.745  12.682  22.583  0.00  0.00    +0.000 A 
ATOM     16  C   UNL     1      -5.116  12.689  23.932  0.00  0.00    +0.000 A 
ATOM     17  F   UNL     1      -6.368  12.342  24.280  0.00  0.00    +0.000 F 
ATOM     18  C   UNL     1      -4.255  13.058  24.958  0.00  0.00    +0.000 A 
ATOM     19  C   UNL     1      -2.977  13.463  24.636  0.00  0.00    +0.000 A 
ATOM     20  C   UNL     1      -2.615  13.556  23.293  0.00  0.00    +0.000 A 
ATOM     21  F   UNL     1      -1.423  14.117  23.066  0.00  0.00    +0.000 F 
ATOM     22  C   UNL     1      -3.458  13.152  22.216  0.00  0.00    +0.000 A 
ENDBRANCH  10  11
BRANCH   5  23
ATOM     23  C   UNL     1       2.282  14.851  18.718  0.00  0.00    +0.000 A 
ATOM     24  N   UNL     1       3.181  14.827  17.748  0.00  0.00    +0.000 NA
ATOM     25  N   UNL     1       3.863  16.021  17.756  0.00  0.00    +0.000 NA
ATOM     26  C   UNL     1       3.374  16.750  18.729  0.00  0.00    +0.000 A 
ATOM     27  N   UNL     1       2.393  16.058  19.365  0.00  0.00    +0.000 N 
ATOM     28  H   UNL     1       1.828  16.347  20.154  0.00  0.00    +0.000 HD
ENDBRANCH   5  23
BRANCH   7  29
ATOM     29  C   UNL     1       1.229   9.998  19.306  0.00  0.00    +0.000 A 
ATOM     30  C   UNL     1       1.104   9.197  20.457  0.00  0.00    +0.000 A 
ATOM     31  C   UNL     1       1.565   7.889  20.441  0.00  0.00    +0.000 A 
ATOM     32  N   UNL     1       2.115   7.302  19.362  0.00  0.00    +0.000 NA
ATOM     33  C   UNL     1       2.207   8.062  18.254  0.00  0.00    +0.000 A 
ATOM     34  C   UNL     1       1.788   9.382  18.180  0.00  0.00    +0.000 A 
ENDBRANCH   7  29
TORSDOF 3
ENDMDL
