MODEL 1
REMARK VINA RESULT:      -7.5      0.000      0.000
REMARK  Name = 
REMARK  2 active torsions:
REMARK  status: ('A' for Active; 'I' for Inactive)
REMARK    1  A    between atoms: C_1  and  C_2
REMARK    2  A    between atoms: C_7  and  C_8
REMARK                            x       y       z     vdW  Elec       q    Type
REMARK                         _______ _______ _______ _____ _____    ______ ____
ROOT
ATOM      1  C   UNL     1       3.875   1.825  18.507  0.00  0.00    +0.000 C 
ATOM      2  C   UNL     1       3.199   2.770  19.428  0.00  0.00    +0.000 A 
ATOM      3  N   UNL     1       2.685   2.337  20.594  0.00  0.00    +0.000 NA
ATOM      4  N   UNL     1       2.174   3.446  21.170  0.00  0.00    +0.000 N 
ATOM      5  C   UNL     1       2.334   4.555  20.403  0.00  0.00    +0.000 A 
ATOM      6  C   UNL     1       3.016   4.165  19.268  0.00  0.00    +0.000 A 
ATOM      7  C   UNL     1       3.411   5.168  18.200  0.00  0.00    +0.000 C 
ATOM      8  C   UNL     1       2.859   6.514  18.575  0.00  0.00    +0.000 C 
ATOM      9  C   UNL     1       2.208   6.788  19.712  0.00  0.00    +0.000 C 
ATOM     10  C   UNL     1       1.888   8.227  19.788  0.00  0.00    +0.000 C 
ATOM     11  O   UNL     1       2.387   8.754  18.551  0.00  0.00    +0.000 OA
ATOM     12  C   UNL     1       2.955   7.750  17.818  0.00  0.00    +0.000 C 
ATOM     13  O   UNL     1       3.447   7.871  16.714  0.00  0.00    +0.000 OA
ATOM     14  N   UNL     1       1.938   5.824  20.671  0.00  0.00    +0.000 N 
ATOM     15  H   UNL     1       1.743   3.359  22.081  0.00  0.00    +0.000 HD
ATOM     16  H   UNL     1       1.446   6.111  21.515  0.00  0.00    +0.000 HD
ENDROOT
BRANCH   7  17
ATOM     17  C   UNL     1       4.936   5.153  18.191  0.00  0.00    +0.000 A 
ATOM     18  C   UNL     1       5.643   5.494  19.370  0.00  0.00    +0.000 A 
ATOM     19  C   UNL     1       7.034   5.486  19.419  0.00  0.00    +0.000 A 
ATOM     20  C   UNL     1       7.760   5.147  18.286  0.00  0.00    +0.000 A 
ATOM     21  C   UNL     1       7.094   4.821  17.106  0.00  0.00    +0.000 A 
ATOM     22  C   UNL     1       5.692   4.825  17.054  0.00  0.00    +0.000 A 
ATOM     23 BR   UNL     1       4.909   4.356  15.387  0.00  0.00    +0.000 Br
ENDBRANCH   7  17
TORSDOF 1
ENDMDL
MODEL 2
REMARK VINA RESULT:      -6.8      1.156      1.258
REMARK  Name = 
REMARK  2 active torsions:
REMARK  status: ('A' for Active; 'I' for Inactive)
REMARK    1  A    between atoms: C_1  and  C_2
REMARK    2  A    between atoms: C_7  and  C_8
REMARK                            x       y       z     vdW  Elec       q    Type
REMARK                         _______ _______ _______ _____ _____    ______ ____
ROOT
ATOM      1  C   UNL     1       4.454   2.393  16.932  0.00  0.00    +0.000 C 
ATOM      2  C   UNL     1       3.633   2.721  18.123  0.00  0.00    +0.000 A 
ATOM      3  N   UNL     1       3.209   1.748  18.949  0.00  0.00    +0.000 NA
ATOM      4  N   UNL     1       2.520   2.398  19.911  0.00  0.00    +0.000 N 
ATOM      5  C   UNL     1       2.482   3.740  19.711  0.00  0.00    +0.000 A 
ATOM      6  C   UNL     1       3.212   3.997  18.568  0.00  0.00    +0.000 A 
ATOM      7  C   UNL     1       3.422   5.415  18.068  0.00  0.00    +0.000 C 
ATOM      8  C   UNL     1       2.651   6.356  18.948  0.00  0.00    +0.000 C 
ATOM      9  C   UNL     1       1.971   6.000  20.045  0.00  0.00    +0.000 C 
ATOM     10  C   UNL     1       1.409   7.190  20.712  0.00  0.00    +0.000 C 
ATOM     11  O   UNL     1       1.802   8.276  19.861  0.00  0.00    +0.000 OA
ATOM     12  C   UNL     1       2.528   7.797  18.808  0.00  0.00    +0.000 C 
ATOM     13  O   UNL     1       2.984   8.464  17.901  0.00  0.00    +0.000 OA
ATOM     14  N   UNL     1       1.877   4.685  20.473  0.00  0.00    +0.000 N 
ATOM     15  H   UNL     1       2.116   1.854  20.664  0.00  0.00    +0.000 HD
ATOM     16  H   UNL     1       1.349   4.493  21.322  0.00  0.00    +0.000 HD
ENDROOT
BRANCH   7  17
ATOM     17  C   UNL     1       4.927   5.645  18.158  0.00  0.00    +0.000 A 
ATOM     18  C   UNL     1       5.607   5.345  19.363  0.00  0.00    +0.000 A 
ATOM     19  C   UNL     1       6.981   5.527  19.496  0.00  0.00    +0.000 A 
ATOM     20  C   UNL     1       7.714   6.024  18.428  0.00  0.00    +0.000 A 
ATOM     21  C   UNL     1       7.072   6.343  17.233  0.00  0.00    +0.000 A 
ATOM     22  C   UNL     1       5.688   6.159  17.095  0.00  0.00    +0.000 A 
ATOM     23 BR   UNL     1       4.939   6.626  15.412  0.00  0.00    +0.000 Br
ENDBRANCH   7  17
TORSDOF 1
ENDMDL
MODEL 3
REMARK VINA RESULT:      -6.5      4.387      7.692
REMARK  Name = 
REMARK  2 active torsions:
REMARK  status: ('A' for Active; 'I' for Inactive)
REMARK    1  A    between atoms: C_1  and  C_2
REMARK    2  A    between atoms: C_7  and  C_8
REMARK                            x       y       z     vdW  Elec       q    Type
REMARK                         _______ _______ _______ _____ _____    ______ ____
ROOT
ATOM      1  C   UNL     1      -0.901  12.513  22.027  0.00  0.00    +0.000 C 
ATOM      2  C   UNL     1      -0.485  11.103  22.220  0.00  0.00    +0.000 A 
ATOM      3  N   UNL     1      -0.786  10.451  23.358  0.00  0.00    +0.000 NA
ATOM      4  N   UNL     1      -0.279   9.212  23.182  0.00  0.00    +0.000 N 
ATOM      5  C   UNL     1       0.342   9.066  21.983  0.00  0.00    +0.000 A 
ATOM      6  C   UNL     1       0.214  10.267  21.315  0.00  0.00    +0.000 A 
ATOM      7  C   UNL     1       0.757  10.450  19.909  0.00  0.00    +0.000 C 
ATOM      8  C   UNL     1       1.475   9.195  19.503  0.00  0.00    +0.000 C 
ATOM      9  C   UNL     1       1.538   8.075  20.232  0.00  0.00    +0.000 C 
ATOM     10  C   UNL     1       2.247   7.015  19.489  0.00  0.00    +0.000 C 
ATOM     11  O   UNL     1       2.627   7.654  18.262  0.00  0.00    +0.000 OA
ATOM     12  C   UNL     1       2.186   8.947  18.261  0.00  0.00    +0.000 C 
ATOM     13  O   UNL     1       2.369   9.756  17.373  0.00  0.00    +0.000 OA
ATOM     14  N   UNL     1       0.961   7.965  21.488  0.00  0.00    +0.000 N 
ATOM     15  H   UNL     1      -0.406   8.532  23.921  0.00  0.00    +0.000 HD
ATOM     16  H   UNL     1       1.043   7.078  21.979  0.00  0.00    +0.000 HD
ENDROOT
BRANCH   7  17
ATOM     17  C   UNL     1      -0.471  10.717  19.046  0.00  0.00    +0.000 A 
ATOM     18  C   UNL     1      -1.403   9.676  18.818  0.00  0.00    +0.000 A 
ATOM     19  C   UNL     1      -2.545   9.868  18.046  0.00  0.00    +0.000 A 
ATOM     20  C   UNL     1      -2.784  11.108  17.469  0.00  0.00    +0.000 A 
ATOM     21  C   UNL     1      -1.877  12.149  17.661  0.00  0.00    +0.000 A 
ATOM     22  C   UNL     1      -0.727  11.959  18.441  0.00  0.00    +0.000 A 
ATOM     23 BR   UNL     1       0.422  13.461  18.629  0.00  0.00    +0.000 Br
ENDBRANCH   7  17
TORSDOF 1
ENDMDL
MODEL 4
REMARK VINA RESULT:      -6.1      8.768     11.086
REMARK  Name = 
REMARK  2 active torsions:
REMARK  status: ('A' for Active; 'I' for Inactive)
REMARK    1  A    between atoms: C_1  and  C_2
REMARK    2  A    between atoms: C_7  and  C_8
REMARK                            x       y       z     vdW  Elec       q    Type
REMARK                         _______ _______ _______ _____ _____    ______ ____
ROOT
ATOM      1  C   UNL     1      -4.175  12.205  19.756  0.00  0.00    +0.000 C 
ATOM      2  C   UNL     1      -4.623  12.538  21.130  0.00  0.00    +0.000 A 
ATOM      3  N   UNL     1      -5.864  12.220  21.540  0.00  0.00    +0.000 NA
ATOM      4  N   UNL     1      -5.918  12.648  22.819  0.00  0.00    +0.000 N 
ATOM      5  C   UNL     1      -4.763  13.238  23.223  0.00  0.00    +0.000 A 
ATOM      6  C   UNL     1      -3.884  13.169  22.160  0.00  0.00    +0.000 A 
ATOM      7  C   UNL     1      -2.465  13.697  22.275  0.00  0.00    +0.000 C 
ATOM      8  C   UNL     1      -2.294  14.330  23.625  0.00  0.00    +0.000 C 
ATOM      9  C   UNL     1      -3.218  14.339  24.594  0.00  0.00    +0.000 C 
ATOM     10  C   UNL     1      -2.680  14.970  25.814  0.00  0.00    +0.000 C 
ATOM     11  O   UNL     1      -1.353  15.364  25.438  0.00  0.00    +0.000 OA
ATOM     12  C   UNL     1      -1.114  15.002  24.143  0.00  0.00    +0.000 C 
ATOM     13  O   UNL     1      -0.091  15.217  23.525  0.00  0.00    +0.000 OA
ATOM     14  N   UNL     1      -4.477  13.779  24.433  0.00  0.00    +0.000 N 
ATOM     15  H   UNL     1      -6.771  12.494  23.342  0.00  0.00    +0.000 HD
ATOM     16  H   UNL     1      -5.122  13.817  25.218  0.00  0.00    +0.000 HD
ENDROOT
BRANCH   7  17
ATOM     17  C   UNL     1      -1.575  12.471  22.096  0.00  0.00    +0.000 A 
ATOM     18  C   UNL     1      -1.591  11.450  23.076  0.00  0.00    +0.000 A 
ATOM     19  C   UNL     1      -0.805  10.306  22.958  0.00  0.00    +0.000 A 
ATOM     20  C   UNL     1       0.027  10.156  21.857  0.00  0.00    +0.000 A 
ATOM     21  C   UNL     1       0.076  11.150  20.882  0.00  0.00    +0.000 A 
ATOM     22  C   UNL     1      -0.716  12.303  20.998  0.00  0.00    +0.000 A 
ATOM     23 BR   UNL     1      -0.559  13.578  19.597  0.00  0.00    +0.000 Br
ENDBRANCH   7  17
TORSDOF 1
ENDMDL
MODEL 5
REMARK VINA RESULT:      -6.1      6.434      8.524
REMARK  Name = 
REMARK  2 active torsions:
REMARK  status: ('A' for Active; 'I' for Inactive)
REMARK    1  A    between atoms: C_1  and  C_2
REMARK    2  A    between atoms: C_7  and  C_8
REMARK                            x       y       z     vdW  Elec       q    Type
REMARK                         _______ _______ _______ _____ _____    ______ ____
ROOT
ATOM      1  C   UNL     1      -1.920  10.212  17.598  0.00  0.00    +0.000 C 
ATOM      2  C   UNL     1      -2.363  11.286  18.520  0.00  0.00    +0.000 A 
ATOM      3  N   UNL     1      -3.661  11.631  18.594  0.00  0.00    +0.000 NA
ATOM      4  N   UNL     1      -3.698  12.607  19.527  0.00  0.00    +0.000 N 
ATOM      5  C   UNL     1      -2.470  12.899  20.028  0.00  0.00    +0.000 A 
ATOM      6  C   UNL     1      -1.573  12.047  19.416  0.00  0.00    +0.000 A 
ATOM      7  C   UNL     1      -0.098  12.063  19.775  0.00  0.00    +0.000 C 
ATOM      8  C   UNL     1       0.145  13.166  20.765  0.00  0.00    +0.000 C 
ATOM      9  C   UNL     1      -0.806  13.939  21.304  0.00  0.00    +0.000 C 
ATOM     10  C   UNL     1      -0.220  14.857  22.300  0.00  0.00    +0.000 C 
ATOM     11  O   UNL     1       1.183  14.562  22.254  0.00  0.00    +0.000 OA
ATOM     12  C   UNL     1       1.415  13.571  21.343  0.00  0.00    +0.000 C 
ATOM     13  O   UNL     1       2.504  13.114  21.056  0.00  0.00    +0.000 OA
ATOM     14  N   UNL     1      -2.146  13.822  20.967  0.00  0.00    +0.000 N 
ATOM     15  H   UNL     1      -4.595  13.013  19.763  0.00  0.00    +0.000 HD
ATOM     16  H   UNL     1      -2.811  14.440  21.426  0.00  0.00    +0.000 HD
ENDROOT
BRANCH   7  17
ATOM     17  C   UNL     1       0.176  10.685  20.369  0.00  0.00    +0.000 A 
ATOM     18  C   UNL     1      -0.404  10.334  21.612  0.00  0.00    +0.000 A 
ATOM     19  C   UNL     1      -0.194   9.087  22.194  0.00  0.00    +0.000 A 
ATOM     20  C   UNL     1       0.612   8.156  21.553  0.00  0.00    +0.000 A 
ATOM     21  C   UNL     1       1.210   8.477  20.335  0.00  0.00    +0.000 A 
ATOM     22  C   UNL     1       0.998   9.732  19.746  0.00  0.00    +0.000 A 
ATOM     23 BR   UNL     1       1.866  10.039  18.082  0.00  0.00    +0.000 Br
ENDBRANCH   7  17
TORSDOF 1
ENDMDL
MODEL 6
REMARK VINA RESULT:      -5.8      2.937      4.970
REMARK  Name = 
REMARK  2 active torsions:
REMARK  status: ('A' for Active; 'I' for Inactive)
REMARK    1  A    between atoms: C_1  and  C_2
REMARK    2  A    between atoms: C_7  and  C_8
REMARK                            x       y       z     vdW  Elec       q    Type
REMARK                         _______ _______ _______ _____ _____    ______ ____
ROOT
ATOM      1  C   UNL     1       6.149   7.564  17.134  0.00  0.00    +0.000 C 
ATOM      2  C   UNL     1       6.149   6.292  17.897  0.00  0.00    +0.000 A 
ATOM      3  N   UNL     1       7.248   5.896  18.565  0.00  0.00    +0.000 NA
ATOM      4  N   UNL     1       6.889   4.731  19.145  0.00  0.00    +0.000 N 
ATOM      5  C   UNL     1       5.612   4.373  18.854  0.00  0.00    +0.000 A 
ATOM      6  C   UNL     1       5.085   5.372  18.060  0.00  0.00    +0.000 A 
ATOM      7  C   UNL     1       3.646   5.322  17.581  0.00  0.00    +0.000 C 
ATOM      8  C   UNL     1       3.031   4.030  18.035  0.00  0.00    +0.000 C 
ATOM      9  C   UNL     1       3.634   3.122  18.812  0.00  0.00    +0.000 C 
ATOM     10  C   UNL     1       2.707   2.020  19.132  0.00  0.00    +0.000 C 
ATOM     11  O   UNL     1       1.509   2.364  18.422  0.00  0.00    +0.000 OA
ATOM     12  C   UNL     1       1.689   3.545  17.760  0.00  0.00    +0.000 C 
ATOM     13  O   UNL     1       0.868   4.092  17.051  0.00  0.00    +0.000 OA
ATOM     14  N   UNL     1       4.937   3.269  19.262  0.00  0.00    +0.000 N 
ATOM     15  H   UNL     1       7.569   4.253  19.724  0.00  0.00    +0.000 HD
ATOM     16  H   UNL     1       5.325   2.541  19.857  0.00  0.00    +0.000 HD
ENDROOT
BRANCH   7  17
ATOM     17  C   UNL     1       2.977   6.535  18.220  0.00  0.00    +0.000 A 
ATOM     18  C   UNL     1       2.813   7.720  17.463  0.00  0.00    +0.000 A 
ATOM     19  C   UNL     1       2.201   8.852  17.995  0.00  0.00    +0.000 A 
ATOM     20  C   UNL     1       1.744   8.834  19.306  0.00  0.00    +0.000 A 
ATOM     21  C   UNL     1       1.905   7.688  20.082  0.00  0.00    +0.000 A 
ATOM     22  C   UNL     1       2.519   6.545  19.548  0.00  0.00    +0.000 A 
ATOM     23 BR   UNL     1       2.670   5.048  20.710  0.00  0.00    +0.000 Br
ENDBRANCH   7  17
TORSDOF 1
ENDMDL
MODEL 7
REMARK VINA RESULT:      -5.8      2.832      4.360
REMARK  Name = 
REMARK  2 active torsions:
REMARK  status: ('A' for Active; 'I' for Inactive)
REMARK    1  A    between atoms: C_1  and  C_2
REMARK    2  A    between atoms: C_7  and  C_8
REMARK                            x       y       z     vdW  Elec       q    Type
REMARK                         _______ _______ _______ _____ _____    ______ ____
ROOT
ATOM      1  C   UNL     1       5.145   8.183  17.642  0.00  0.00    +0.000 C 
ATOM      2  C   UNL     1       3.839   7.512  17.847  0.00  0.00    +0.000 A 
ATOM      3  N   UNL     1       2.691   8.142  17.539  0.00  0.00    +0.000 NA
ATOM      4  N   UNL     1       1.725   7.245  17.831  0.00  0.00    +0.000 N 
ATOM      5  C   UNL     1       2.222   6.083  18.327  0.00  0.00    +0.000 A 
ATOM      6  C   UNL     1       3.596   6.205  18.335  0.00  0.00    +0.000 A 
ATOM      7  C   UNL     1       4.487   5.062  18.789  0.00  0.00    +0.000 C 
ATOM      8  C   UNL     1       3.619   3.935  19.268  0.00  0.00    +0.000 C 
ATOM      9  C   UNL     1       2.281   3.917  19.213  0.00  0.00    +0.000 C 
ATOM     10  C   UNL     1       1.763   2.620  19.689  0.00  0.00    +0.000 C 
ATOM     11  O   UNL     1       2.943   1.898  20.066  0.00  0.00    +0.000 OA
ATOM     12  C   UNL     1       4.048   2.667  19.833  0.00  0.00    +0.000 C 
ATOM     13  O   UNL     1       5.196   2.347  20.070  0.00  0.00    +0.000 OA
ATOM     14  N   UNL     1       1.538   4.982  18.726  0.00  0.00    +0.000 N 
ATOM     15  H   UNL     1       0.761   7.504  17.658  0.00  0.00    +0.000 HD
ATOM     16  H   UNL     1       0.525   4.891  18.707  0.00  0.00    +0.000 HD
ENDROOT
BRANCH   7  17
ATOM     17  C   UNL     1       5.296   4.681  17.553  0.00  0.00    +0.000 A 
ATOM     18  C   UNL     1       4.640   4.092  16.445  0.00  0.00    +0.000 A 
ATOM     19  C   UNL     1       5.329   3.734  15.290  0.00  0.00    +0.000 A 
ATOM     20  C   UNL     1       6.698   3.945  15.213  0.00  0.00    +0.000 A 
ATOM     21  C   UNL     1       7.376   4.508  16.293  0.00  0.00    +0.000 A 
ATOM     22  C   UNL     1       6.684   4.872  17.458  0.00  0.00    +0.000 A 
ATOM     23 BR   UNL     1       7.725   5.635  18.853  0.00  0.00    +0.000 Br
ENDBRANCH   7  17
TORSDOF 1
ENDMDL
MODEL 8
REMARK VINA RESULT:      -5.8      8.090      9.476
REMARK  Name = 
REMARK  2 active torsions:
REMARK  status: ('A' for Active; 'I' for Inactive)
REMARK    1  A    between atoms: C_1  and  C_2
REMARK    2  A    between atoms: C_7  and  C_8
REMARK                            x       y       z     vdW  Elec       q    Type
REMARK                         _______ _______ _______ _____ _____    ______ ____
ROOT
ATOM      1  C   UNL     1      -1.060  12.382  22.656  0.00  0.00    +0.000 C 
ATOM      2  C   UNL     1      -2.274  12.685  21.860  0.00  0.00    +0.000 A 
ATOM      3  N   UNL     1      -3.234  13.485  22.357  0.00  0.00    +0.000 NA
ATOM      4  N   UNL     1      -4.159  13.552  21.376  0.00  0.00    +0.000 N 
ATOM      5  C   UNL     1      -3.824  12.812  20.288  0.00  0.00    +0.000 A 
ATOM      6  C   UNL     1      -2.592  12.246  20.552  0.00  0.00    +0.000 A 
ATOM      7  C   UNL     1      -1.884  11.383  19.524  0.00  0.00    +0.000 C 
ATOM      8  C   UNL     1      -2.780  11.223  18.329  0.00  0.00    +0.000 C 
ATOM      9  C   UNL     1      -3.966  11.823  18.172  0.00  0.00    +0.000 C 
ATOM     10  C   UNL     1      -4.530  11.509  16.845  0.00  0.00    +0.000 C 
ATOM     11  O   UNL     1      -3.561  10.627  16.261  0.00  0.00    +0.000 OA
ATOM     12  C   UNL     1      -2.526  10.439  17.132  0.00  0.00    +0.000 C 
ATOM     13  O   UNL     1      -1.560   9.727  16.942  0.00  0.00    +0.000 OA
ATOM     14  N   UNL     1      -4.521  12.650  19.136  0.00  0.00    +0.000 N 
ATOM     15  H   UNL     1      -4.980  14.126  21.527  0.00  0.00    +0.000 HD
ATOM     16  H   UNL     1      -5.422  13.078  18.940  0.00  0.00    +0.000 HD
ENDROOT
BRANCH   7  17
ATOM     17  C   UNL     1      -0.605  12.143  19.187  0.00  0.00    +0.000 A 
ATOM     18  C   UNL     1      -0.680  13.514  18.841  0.00  0.00    +0.000 A 
ATOM     19  C   UNL     1       0.456  14.257  18.534  0.00  0.00    +0.000 A 
ATOM     20  C   UNL     1       1.703  13.646  18.554  0.00  0.00    +0.000 A 
ATOM     21  C   UNL     1       1.808  12.294  18.875  0.00  0.00    +0.000 A 
ATOM     22  C   UNL     1       0.665  11.543  19.187  0.00  0.00    +0.000 A 
ATOM     23 BR   UNL     1       0.948   9.712  19.613  0.00  0.00    +0.000 Br
ENDBRANCH   7  17
TORSDOF 1
ENDMDL
MODEL 9
REMARK VINA RESULT:      -5.7      3.064      4.570
REMARK  Name = 
REMARK  2 active torsions:
REMARK  status: ('A' for Active; 'I' for Inactive)
REMARK    1  A    between atoms: C_1  and  C_2
REMARK    2  A    between atoms: C_7  and  C_8
REMARK                            x       y       z     vdW  Elec       q    Type
REMARK                         _______ _______ _______ _____ _____    ______ ____
ROOT
ATOM      1  C   UNL     1       5.576   3.841  18.431  0.00  0.00    +0.000 C 
ATOM      2  C   UNL     1       5.185   5.116  17.782  0.00  0.00    +0.000 A 
ATOM      3  N   UNL     1       5.791   5.520  16.651  0.00  0.00    +0.000 NA
ATOM      4  N   UNL     1       5.184   6.686  16.341  0.00  0.00    +0.000 N 
ATOM      5  C   UNL     1       4.232   7.036  17.244  0.00  0.00    +0.000 A 
ATOM      6  C   UNL     1       4.184   6.031  18.189  0.00  0.00    +0.000 A 
ATOM      7  C   UNL     1       3.188   6.071  19.334  0.00  0.00    +0.000 C 
ATOM      8  C   UNL     1       2.424   7.362  19.264  0.00  0.00    +0.000 C 
ATOM      9  C   UNL     1       2.547   8.276  18.293  0.00  0.00    +0.000 C 
ATOM     10  C   UNL     1       1.583   9.376  18.497  0.00  0.00    +0.000 C 
ATOM     11  O   UNL     1       0.913   9.022  19.715  0.00  0.00    +0.000 OA
ATOM     12  C   UNL     1       1.408   7.839  20.185  0.00  0.00    +0.000 C 
ATOM     13  O   UNL     1       1.063   7.285  21.210  0.00  0.00    +0.000 OA
ATOM     14  N   UNL     1       3.441   8.138  17.243  0.00  0.00    +0.000 N 
ATOM     15  H   UNL     1       5.474   7.170  15.501  0.00  0.00    +0.000 HD
ATOM     16  H   UNL     1       3.470   8.871  16.538  0.00  0.00    +0.000 HD
ENDROOT
BRANCH   7  17
ATOM     17  C   UNL     1       2.290   4.858  19.115  0.00  0.00    +0.000 A 
ATOM     18  C   UNL     1       1.731   4.626  17.834  0.00  0.00    +0.000 A 
ATOM     19  C   UNL     1       0.913   3.530  17.578  0.00  0.00    +0.000 A 
ATOM     20  C   UNL     1       0.621   2.637  18.600  0.00  0.00    +0.000 A 
ATOM     21  C   UNL     1       1.143   2.846  19.875  0.00  0.00    +0.000 A 
ATOM     22  C   UNL     1       1.969   3.948  20.136  0.00  0.00    +0.000 A 
ATOM     23 BR   UNL     1       2.620   4.113  21.914  0.00  0.00    +0.000 Br
ENDBRANCH   7  17
TORSDOF 1
ENDMDL
