MODEL 1
REMARK VINA RESULT:      -7.2      0.000      0.000
REMARK  Name = 
REMARK  6 active torsions:
REMARK  status: ('A' for Active; 'I' for Inactive)
REMARK    1  A    between atoms: C_1  and  C_2
REMARK    2  A    between atoms: C_2  and  O_3
REMARK    3  A    between atoms: O_3  and  C_4
REMARK    4  A    between atoms: C_4  and  C_6
REMARK    5  A    between atoms: C_11  and  C_13
REMARK    6  A    between atoms: C_21  and  C_22
REMARK                            x       y       z     vdW  Elec       q    Type
REMARK                         _______ _______ _______ _____ _____    ______ ____
ROOT
ATOM      1  C   UNL     1      -1.609  10.206  18.588  0.00  0.00    +0.000 C 
ATOM      2  C   UNL     1      -1.494  11.369  19.586  0.00  0.00    +0.000 C 
ATOM      3  C   UNL     1      -0.437  11.197  20.675  0.00  0.00    +0.000 C 
ATOM      4  C   UNL     1       0.965  10.898  20.151  0.00  0.00    +0.000 C 
ATOM      5  N   UNL     1       1.084   9.517  19.687  0.00  0.00    +0.000 N 
ATOM      6  C   UNL     1       1.504   8.540  20.619  0.00  0.00    +0.000 C 
ATOM      7  O   UNL     1       1.635   8.838  21.808  0.00  0.00    +0.000 OA
ATOM      8  C   UNL     1       0.702   9.204  18.310  0.00  0.00    +0.000 C 
ATOM      9  C   UNL     1      -0.375  10.088  17.689  0.00  0.00    +0.000 C 
ENDROOT
BRANCH   6  10
ATOM     10  C   UNL     1       1.725   7.179  20.158  0.00  0.00    +0.000 A 
ATOM     11  O   UNL     1       1.091   6.140  20.783  0.00  0.00    +0.000 OA
ATOM     12  C   UNL     1       1.518   4.988  20.212  0.00  0.00    +0.000 A 
ATOM     13  C   UNL     1       1.172   3.709  20.635  0.00  0.00    +0.000 A 
ATOM     14  C   UNL     1       1.717   2.647  19.908  0.00  0.00    +0.000 A 
ATOM     15  C   UNL     1       2.552   2.879  18.813  0.00  0.00    +0.000 A 
ATOM     16  C   UNL     1       2.887   4.183  18.419  0.00  0.00    +0.000 A 
ATOM     17  C   UNL     1       2.366   5.265  19.149  0.00  0.00    +0.000 A 
ATOM     18  C   UNL     1       2.498   6.688  19.109  0.00  0.00    +0.000 A 
ATOM     19  C   UNL     1       3.337   7.490  18.184  0.00  0.00    +0.000 C 
ENDBRANCH   6  10
BRANCH   1  20
ATOM     20  C   UNL     1      -2.834  10.471  17.739  0.00  0.00    +0.000 C 
ATOM     21  O   UNL     1      -3.960  10.067  17.996  0.00  0.00    +0.000 OA
BRANCH  20  22
ATOM     22  O   UNL     1      -2.461  11.100  16.589  0.00  0.00    +0.000 OA
BRANCH  22  24
ATOM     23  C   UNL     1      -2.951  10.017  14.521  0.00  0.00    +0.000 C 
ATOM     24  C   UNL     1      -3.425  11.048  15.530  0.00  0.00    +0.000 C 
ENDBRANCH  22  24
ENDBRANCH  20  22
ENDBRANCH   1  20
TORSDOF 4
ENDMDL
MODEL 2
REMARK VINA RESULT:      -7.0      1.443      2.413
REMARK  Name = 
REMARK  6 active torsions:
REMARK  status: ('A' for Active; 'I' for Inactive)
REMARK    1  A    between atoms: C_1  and  C_2
REMARK    2  A    between atoms: C_2  and  O_3
REMARK    3  A    between atoms: O_3  and  C_4
REMARK    4  A    between atoms: C_4  and  C_6
REMARK    5  A    between atoms: C_11  and  C_13
REMARK    6  A    between atoms: C_21  and  C_22
REMARK                            x       y       z     vdW  Elec       q    Type
REMARK                         _______ _______ _______ _____ _____    ______ ____
ROOT
ATOM      1  C   UNL     1      -1.150   9.927  18.200  0.00  0.00    +0.000 C 
ATOM      2  C   UNL     1      -1.496  10.665  19.503  0.00  0.00    +0.000 C 
ATOM      3  C   UNL     1      -0.675  10.258  20.726  0.00  0.00    +0.000 C 
ATOM      4  C   UNL     1       0.835  10.350  20.530  0.00  0.00    +0.000 C 
ATOM      5  N   UNL     1       1.341   9.251  19.709  0.00  0.00    +0.000 N 
ATOM      6  C   UNL     1       1.757   8.071  20.367  0.00  0.00    +0.000 C 
ATOM      7  O   UNL     1       1.572   7.942  21.579  0.00  0.00    +0.000 OA
ATOM      8  C   UNL     1       1.328   9.400  18.253  0.00  0.00    +0.000 C 
ATOM      9  C   UNL     1       0.239  10.297  17.674  0.00  0.00    +0.000 C 
ENDROOT
BRANCH   6  10
ATOM     10  C   UNL     1       2.355   7.003  19.582  0.00  0.00    +0.000 A 
ATOM     11  O   UNL     1       3.305   7.301  18.644  0.00  0.00    +0.000 OA
ATOM     12  C   UNL     1       3.642   6.150  18.014  0.00  0.00    +0.000 A 
ATOM     13  C   UNL     1       4.512   6.056  16.932  0.00  0.00    +0.000 A 
ATOM     14  C   UNL     1       4.733   4.773  16.424  0.00  0.00    +0.000 A 
ATOM     15  C   UNL     1       4.115   3.658  16.994  0.00  0.00    +0.000 A 
ATOM     16  C   UNL     1       3.237   3.790  18.080  0.00  0.00    +0.000 A 
ATOM     17  C   UNL     1       2.985   5.075  18.593  0.00  0.00    +0.000 A 
ATOM     18  C   UNL     1       2.151   5.626  19.615  0.00  0.00    +0.000 A 
ATOM     19  C   UNL     1       1.205   4.897  20.498  0.00  0.00    +0.000 C 
ENDBRANCH   6  10
BRANCH   1  20
ATOM     20  C   UNL     1      -2.201  10.313  17.181  0.00  0.00    +0.000 C 
ATOM     21  O   UNL     1      -2.241   9.898  16.031  0.00  0.00    +0.000 OA
BRANCH  20  22
ATOM     22  O   UNL     1      -2.996  11.291  17.699  0.00  0.00    +0.000 OA
BRANCH  22  24
ATOM     23  C   UNL     1      -5.364  11.184  17.961  0.00  0.00    +0.000 C 
ATOM     24  C   UNL     1      -4.230  11.502  17.002  0.00  0.00    +0.000 C 
ENDBRANCH  22  24
ENDBRANCH  20  22
ENDBRANCH   1  20
TORSDOF 4
ENDMDL
MODEL 3
REMARK VINA RESULT:      -6.9      1.891      7.293
REMARK  Name = 
REMARK  6 active torsions:
REMARK  status: ('A' for Active; 'I' for Inactive)
REMARK    1  A    between atoms: C_1  and  C_2
REMARK    2  A    between atoms: C_2  and  O_3
REMARK    3  A    between atoms: O_3  and  C_4
REMARK    4  A    between atoms: C_4  and  C_6
REMARK    5  A    between atoms: C_11  and  C_13
REMARK    6  A    between atoms: C_21  and  C_22
REMARK                            x       y       z     vdW  Elec       q    Type
REMARK                         _______ _______ _______ _____ _____    ______ ____
ROOT
ATOM      1  C   UNL     1       1.580   5.052  19.161  0.00  0.00    +0.000 C 
ATOM      2  C   UNL     1       2.899   4.844  18.401  0.00  0.00    +0.000 C 
ATOM      3  C   UNL     1       3.463   6.086  17.712  0.00  0.00    +0.000 C 
ATOM      4  C   UNL     1       3.645   7.289  18.634  0.00  0.00    +0.000 C 
ATOM      5  N   UNL     1       2.367   7.928  18.946  0.00  0.00    +0.000 N 
ATOM      6  C   UNL     1       1.923   8.969  18.098  0.00  0.00    +0.000 C 
ATOM      7  O   UNL     1       2.541   9.228  17.064  0.00  0.00    +0.000 OA
ATOM      8  C   UNL     1       1.584   7.416  20.071  0.00  0.00    +0.000 C 
ATOM      9  C   UNL     1       1.755   5.937  20.398  0.00  0.00    +0.000 C 
ENDROOT
BRANCH   6  10
ATOM     10  C   UNL     1       0.706   9.685  18.444  0.00  0.00    +0.000 A 
ATOM     11  O   UNL     1      -0.438   9.463  17.728  0.00  0.00    +0.000 OA
ATOM     12  C   UNL     1      -1.395  10.296  18.203  0.00  0.00    +0.000 A 
ATOM     13  C   UNL     1      -2.672  10.433  17.670  0.00  0.00    +0.000 A 
ATOM     14  C   UNL     1      -3.515  11.347  18.308  0.00  0.00    +0.000 A 
ATOM     15  C   UNL     1      -3.084  12.064  19.426  0.00  0.00    +0.000 A 
ATOM     16  C   UNL     1      -1.785  11.906  19.933  0.00  0.00    +0.000 A 
ATOM     17  C   UNL     1      -0.914  11.007  19.293  0.00  0.00    +0.000 A 
ATOM     18  C   UNL     1       0.449  10.608  19.454  0.00  0.00    +0.000 A 
ATOM     19  C   UNL     1       1.425  11.116  20.452  0.00  0.00    +0.000 C 
ENDBRANCH   6  10
BRANCH   1  20
ATOM     20  C   UNL     1       1.091   3.681  19.579  0.00  0.00    +0.000 C 
ATOM     21  O   UNL     1       0.769   2.791  18.804  0.00  0.00    +0.000 OA
BRANCH  20  22
ATOM     22  O   UNL     1       0.932   3.651  20.932  0.00  0.00    +0.000 OA
BRANCH  22  24
ATOM     23  C   UNL     1       3.005   2.566  21.398  0.00  0.00    +0.000 C 
ATOM     24  C   UNL     1       1.499   2.507  21.583  0.00  0.00    +0.000 C 
ENDBRANCH  22  24
ENDBRANCH  20  22
ENDBRANCH   1  20
TORSDOF 4
ENDMDL
MODEL 4
REMARK VINA RESULT:      -6.9      1.201      2.104
REMARK  Name = 
REMARK  6 active torsions:
REMARK  status: ('A' for Active; 'I' for Inactive)
REMARK    1  A    between atoms: C_1  and  C_2
REMARK    2  A    between atoms: C_2  and  O_3
REMARK    3  A    between atoms: O_3  and  C_4
REMARK    4  A    between atoms: C_4  and  C_6
REMARK    5  A    between atoms: C_11  and  C_13
REMARK    6  A    between atoms: C_21  and  C_22
REMARK                            x       y       z     vdW  Elec       q    Type
REMARK                         _______ _______ _______ _____ _____    ______ ____
ROOT
ATOM      1  C   UNL     1      -1.346  10.008  18.605  0.00  0.00    +0.000 C 
ATOM      2  C   UNL     1      -1.564  10.772  19.920  0.00  0.00    +0.000 C 
ATOM      3  C   UNL     1      -0.616  10.403  21.060  0.00  0.00    +0.000 C 
ATOM      4  C   UNL     1       0.865  10.506  20.705  0.00  0.00    +0.000 C 
ATOM      5  N   UNL     1       1.296   9.393  19.861  0.00  0.00    +0.000 N 
ATOM      6  C   UNL     1       1.794   8.233  20.499  0.00  0.00    +0.000 C 
ATOM      7  O   UNL     1       1.737   8.131  21.725  0.00  0.00    +0.000 OA
ATOM      8  C   UNL     1       1.130   9.507  18.412  0.00  0.00    +0.000 C 
ATOM      9  C   UNL     1      -0.023  10.379  17.929  0.00  0.00    +0.000 C 
ENDROOT
BRANCH   6  10
ATOM     10  C   UNL     1       2.320   7.153  19.680  0.00  0.00    +0.000 A 
ATOM     11  O   UNL     1       3.261   7.423  18.724  0.00  0.00    +0.000 OA
ATOM     12  C   UNL     1       3.527   6.270  18.065  0.00  0.00    +0.000 A 
ATOM     13  C   UNL     1       4.366   6.155  16.961  0.00  0.00    +0.000 A 
ATOM     14  C   UNL     1       4.512   4.873  16.425  0.00  0.00    +0.000 A 
ATOM     15  C   UNL     1       3.854   3.778  16.988  0.00  0.00    +0.000 A 
ATOM     16  C   UNL     1       3.009   3.931  18.098  0.00  0.00    +0.000 A 
ATOM     17  C   UNL     1       2.832   5.217  18.641  0.00  0.00    +0.000 A 
ATOM     18  C   UNL     1       2.050   5.787  19.693  0.00  0.00    +0.000 A 
ATOM     19  C   UNL     1       1.091   5.087  20.585  0.00  0.00    +0.000 C 
ENDBRANCH   6  10
BRANCH   1  20
ATOM     20  C   UNL     1      -2.502  10.359  17.692  0.00  0.00    +0.000 C 
ATOM     21  O   UNL     1      -3.607  10.717  18.075  0.00  0.00    +0.000 OA
BRANCH  20  22
ATOM     22  O   UNL     1      -2.162  10.078  16.403  0.00  0.00    +0.000 OA
BRANCH  22  24
ATOM     23  C   UNL     1      -3.391   9.979  14.361  0.00  0.00    +0.000 C 
ATOM     24  C   UNL     1      -2.800  10.897  15.416  0.00  0.00    +0.000 C 
ENDBRANCH  22  24
ENDBRANCH  20  22
ENDBRANCH   1  20
TORSDOF 4
ENDMDL
MODEL 5
REMARK VINA RESULT:      -6.9      1.878      2.994
REMARK  Name = 
REMARK  6 active torsions:
REMARK  status: ('A' for Active; 'I' for Inactive)
REMARK    1  A    between atoms: C_1  and  C_2
REMARK    2  A    between atoms: C_2  and  O_3
REMARK    3  A    between atoms: O_3  and  C_4
REMARK    4  A    between atoms: C_4  and  C_6
REMARK    5  A    between atoms: C_11  and  C_13
REMARK    6  A    between atoms: C_21  and  C_22
REMARK                            x       y       z     vdW  Elec       q    Type
REMARK                         _______ _______ _______ _____ _____    ______ ____
ROOT
ATOM      1  C   UNL     1      -0.349   9.825  18.651  0.00  0.00    +0.000 C 
ATOM      2  C   UNL     1      -0.936   9.915  20.067  0.00  0.00    +0.000 C 
ATOM      3  C   UNL     1      -0.376   8.913  21.076  0.00  0.00    +0.000 C 
ATOM      4  C   UNL     1       1.145   8.931  21.204  0.00  0.00    +0.000 C 
ATOM      5  N   UNL     1       1.789   8.285  20.062  0.00  0.00    +0.000 N 
ATOM      6  C   UNL     1       2.056   6.899  20.150  0.00  0.00    +0.000 C 
ATOM      7  O   UNL     1       1.635   6.250  21.109  0.00  0.00    +0.000 OA
ATOM      8  C   UNL     1       2.064   9.083  18.867  0.00  0.00    +0.000 C 
ATOM      9  C   UNL     1       1.121  10.251  18.602  0.00  0.00    +0.000 C 
ENDROOT
BRANCH   6  10
ATOM     10  C   UNL     1       2.785   6.254  19.070  0.00  0.00    +0.000 A 
ATOM     11  O   UNL     1       3.855   6.889  18.500  0.00  0.00    +0.000 OA
ATOM     12  C   UNL     1       4.306   6.113  17.485  0.00  0.00    +0.000 A 
ATOM     13  C   UNL     1       5.325   6.461  16.606  0.00  0.00    +0.000 A 
ATOM     14  C   UNL     1       5.646   5.519  15.624  0.00  0.00    +0.000 A 
ATOM     15  C   UNL     1       4.976   4.296  15.556  0.00  0.00    +0.000 A 
ATOM     16  C   UNL     1       3.946   3.981  16.455  0.00  0.00    +0.000 A 
ATOM     17  C   UNL     1       3.594   4.924  17.437  0.00  0.00    +0.000 A 
ATOM     18  C   UNL     1       2.609   5.011  18.469  0.00  0.00    +0.000 A 
ATOM     19  C   UNL     1       1.560   4.012  18.801  0.00  0.00    +0.000 C 
ENDBRANCH   6  10
BRANCH   1  20
ATOM     20  C   UNL     1      -1.175  10.739  17.770  0.00  0.00    +0.000 C 
ATOM     21  O   UNL     1      -1.396  11.918  18.006  0.00  0.00    +0.000 OA
BRANCH  20  22
ATOM     22  O   UNL     1      -1.740  10.011  16.767  0.00  0.00    +0.000 OA
BRANCH  22  24
ATOM     23  C   UNL     1      -3.710  10.575  15.545  0.00  0.00    +0.000 C 
ATOM     24  C   UNL     1      -3.170   9.929  16.809  0.00  0.00    +0.000 C 
ENDBRANCH  22  24
ENDBRANCH  20  22
ENDBRANCH   1  20
TORSDOF 4
ENDMDL
MODEL 6
REMARK VINA RESULT:      -6.8      0.939      1.290
REMARK  Name = 
REMARK  6 active torsions:
REMARK  status: ('A' for Active; 'I' for Inactive)
REMARK    1  A    between atoms: C_1  and  C_2
REMARK    2  A    between atoms: C_2  and  O_3
REMARK    3  A    between atoms: O_3  and  C_4
REMARK    4  A    between atoms: C_4  and  C_6
REMARK    5  A    between atoms: C_11  and  C_13
REMARK    6  A    between atoms: C_21  and  C_22
REMARK                            x       y       z     vdW  Elec       q    Type
REMARK                         _______ _______ _______ _____ _____    ______ ____
ROOT
ATOM      1  C   UNL     1      -1.709  10.171  18.578  0.00  0.00    +0.000 C 
ATOM      2  C   UNL     1      -1.591  11.364  19.538  0.00  0.00    +0.000 C 
ATOM      3  C   UNL     1      -0.501  11.245  20.602  0.00  0.00    +0.000 C 
ATOM      4  C   UNL     1       0.892  10.959  20.047  0.00  0.00    +0.000 C 
ATOM      5  N   UNL     1       1.027   9.568  19.619  0.00  0.00    +0.000 N 
ATOM      6  C   UNL     1       1.493   8.627  20.566  0.00  0.00    +0.000 C 
ATOM      7  O   UNL     1       1.651   8.961  21.742  0.00  0.00    +0.000 OA
ATOM      8  C   UNL     1       0.613   9.208  18.263  0.00  0.00    +0.000 C 
ATOM      9  C   UNL     1      -0.499  10.051  17.648  0.00  0.00    +0.000 C 
ENDROOT
BRANCH   6  10
ATOM     10  C   UNL     1       1.730   7.258  20.137  0.00  0.00    +0.000 A 
ATOM     11  O   UNL     1       1.114   6.226  20.792  0.00  0.00    +0.000 OA
ATOM     12  C   UNL     1       1.553   5.067  20.247  0.00  0.00    +0.000 A 
ATOM     13  C   UNL     1       1.226   3.794  20.703  0.00  0.00    +0.000 A 
ATOM     14  C   UNL     1       1.782   2.722  20.000  0.00  0.00    +0.000 A 
ATOM     15  C   UNL     1       2.607   2.937  18.894  0.00  0.00    +0.000 A 
ATOM     16  C   UNL     1       2.922   4.235  18.465  0.00  0.00    +0.000 A 
ATOM     17  C   UNL     1       2.390   5.329  19.172  0.00  0.00    +0.000 A 
ATOM     18  C   UNL     1       2.503   6.751  19.096  0.00  0.00    +0.000 A 
ATOM     19  C   UNL     1       3.326   7.542  18.145  0.00  0.00    +0.000 C 
ENDBRANCH   6  10
BRANCH   1  20
ATOM     20  C   UNL     1      -2.963  10.387  17.757  0.00  0.00    +0.000 C 
ATOM     21  O   UNL     1      -3.202   9.834  16.692  0.00  0.00    +0.000 OA
BRANCH  20  22
ATOM     22  O   UNL     1      -3.703  11.385  18.315  0.00  0.00    +0.000 OA
BRANCH  22  24
ATOM     23  C   UNL     1      -6.047  10.951  18.412  0.00  0.00    +0.000 C 
ATOM     24  C   UNL     1      -4.942  11.665  17.652  0.00  0.00    +0.000 C 
ENDBRANCH  22  24
ENDBRANCH  20  22
ENDBRANCH   1  20
TORSDOF 4
ENDMDL
MODEL 7
REMARK VINA RESULT:      -6.8      3.377      7.721
REMARK  Name = 
REMARK  6 active torsions:
REMARK  status: ('A' for Active; 'I' for Inactive)
REMARK    1  A    between atoms: C_1  and  C_2
REMARK    2  A    between atoms: C_2  and  O_3
REMARK    3  A    between atoms: O_3  and  C_4
REMARK    4  A    between atoms: C_4  and  C_6
REMARK    5  A    between atoms: C_11  and  C_13
REMARK    6  A    between atoms: C_21  and  C_22
REMARK                            x       y       z     vdW  Elec       q    Type
REMARK                         _______ _______ _______ _____ _____    ______ ____
ROOT
ATOM      1  C   UNL     1       2.154   8.332  19.063  0.00  0.00    +0.000 C 
ATOM      2  C   UNL     1       1.528   7.651  20.289  0.00  0.00    +0.000 C 
ATOM      3  C   UNL     1       0.875   8.591  21.302  0.00  0.00    +0.000 C 
ATOM      4  C   UNL     1      -0.174   9.526  20.707  0.00  0.00    +0.000 C 
ATOM      5  N   UNL     1       0.440  10.615  19.951  0.00  0.00    +0.000 N 
ATOM      6  C   UNL     1       0.742  11.812  20.641  0.00  0.00    +0.000 C 
ATOM      7  O   UNL     1       0.604  11.870  21.865  0.00  0.00    +0.000 OA
ATOM      8  C   UNL     1       0.773  10.392  18.544  0.00  0.00    +0.000 C 
ATOM      9  C   UNL     1       1.100   8.958  18.145  0.00  0.00    +0.000 C 
ENDROOT
BRANCH   6  10
ATOM     10  C   UNL     1       1.262  12.944  19.891  0.00  0.00    +0.000 A 
ATOM     11  O   UNL     1       2.534  12.898  19.389  0.00  0.00    +0.000 OA
ATOM     12  C   UNL     1       2.792  14.091  18.801  0.00  0.00    +0.000 A 
ATOM     13  C   UNL     1       4.015  14.465  18.255  0.00  0.00    +0.000 A 
ATOM     14  C   UNL     1       4.077  15.741  17.690  0.00  0.00    +0.000 A 
ATOM     15  C   UNL     1       2.958  16.575  17.673  0.00  0.00    +0.000 A 
ATOM     16  C   UNL     1       1.740  16.169  18.239  0.00  0.00    +0.000 A 
ATOM     17  C   UNL     1       1.663  14.895  18.832  0.00  0.00    +0.000 A 
ATOM     18  C   UNL     1       0.666  14.151  19.536  0.00  0.00    +0.000 A 
ATOM     19  C   UNL     1      -0.711  14.589  19.882  0.00  0.00    +0.000 C 
ENDBRANCH   6  10
BRANCH   1  20
ATOM     20  C   UNL     1       2.921   7.267  18.309  0.00  0.00    +0.000 C 
ATOM     21  O   UNL     1       3.671   7.485  17.367  0.00  0.00    +0.000 OA
BRANCH  20  22
ATOM     22  O   UNL     1       2.536   6.036  18.747  0.00  0.00    +0.000 OA
BRANCH  22  24
ATOM     23  C   UNL     1       1.513   4.029  17.963  0.00  0.00    +0.000 C 
ATOM     24  C   UNL     1       2.687   4.978  17.793  0.00  0.00    +0.000 C 
ENDBRANCH  22  24
ENDBRANCH  20  22
ENDBRANCH   1  20
TORSDOF 4
ENDMDL
MODEL 8
REMARK VINA RESULT:      -6.7      2.185      7.276
REMARK  Name = 
REMARK  6 active torsions:
REMARK  status: ('A' for Active; 'I' for Inactive)
REMARK    1  A    between atoms: C_1  and  C_2
REMARK    2  A    between atoms: C_2  and  O_3
REMARK    3  A    between atoms: O_3  and  C_4
REMARK    4  A    between atoms: C_4  and  C_6
REMARK    5  A    between atoms: C_11  and  C_13
REMARK    6  A    between atoms: C_21  and  C_22
REMARK                            x       y       z     vdW  Elec       q    Type
REMARK                         _______ _______ _______ _____ _____    ______ ____
ROOT
ATOM      1  C   UNL     1       1.415   5.080  19.388  0.00  0.00    +0.000 C 
ATOM      2  C   UNL     1       2.468   4.785  18.309  0.00  0.00    +0.000 C 
ATOM      3  C   UNL     1       2.955   5.997  17.517  0.00  0.00    +0.000 C 
ATOM      4  C   UNL     1       3.483   7.141  18.378  0.00  0.00    +0.000 C 
ATOM      5  N   UNL     1       2.397   7.879  19.021  0.00  0.00    +0.000 N 
ATOM      6  C   UNL     1       1.855   8.990  18.334  0.00  0.00    +0.000 C 
ATOM      7  O   UNL     1       2.209   9.233  17.179  0.00  0.00    +0.000 OA
ATOM      8  C   UNL     1       1.884   7.396  20.303  0.00  0.00    +0.000 C 
ATOM      9  C   UNL     1       1.987   5.895  20.551  0.00  0.00    +0.000 C 
ENDROOT
BRANCH   6  10
ATOM     10  C   UNL     1       0.843   9.798  18.995  0.00  0.00    +0.000 A 
ATOM     11  O   UNL     1       1.108  10.349  20.219  0.00  0.00    +0.000 OA
ATOM     12  C   UNL     1      -0.011  10.987  20.638  0.00  0.00    +0.000 A 
ATOM     13  C   UNL     1      -0.167  11.594  21.880  0.00  0.00    +0.000 A 
ATOM     14  C   UNL     1      -1.401  12.204  22.121  0.00  0.00    +0.000 A 
ATOM     15  C   UNL     1      -2.405  12.204  21.150  0.00  0.00    +0.000 A 
ATOM     16  C   UNL     1      -2.216  11.576  19.910  0.00  0.00    +0.000 A 
ATOM     17  C   UNL     1      -0.989  10.938  19.655  0.00  0.00    +0.000 A 
ATOM     18  C   UNL     1      -0.435  10.170  18.585  0.00  0.00    +0.000 A 
ATOM     19  C   UNL     1      -1.099   9.783  17.314  0.00  0.00    +0.000 C 
ENDBRANCH   6  10
BRANCH   1  20
ATOM     20  C   UNL     1       0.918   3.743  19.898  0.00  0.00    +0.000 C 
ATOM     21  O   UNL     1       0.346   2.907  19.213  0.00  0.00    +0.000 OA
BRANCH  20  22
ATOM     22  O   UNL     1       1.080   3.686  21.249  0.00  0.00    +0.000 OA
BRANCH  22  24
ATOM     23  C   UNL     1       3.122   2.453  21.254  0.00  0.00    +0.000 C 
ATOM     24  C   UNL     1       1.682   2.481  21.737  0.00  0.00    +0.000 C 
ENDBRANCH  22  24
ENDBRANCH  20  22
ENDBRANCH   1  20
TORSDOF 4
ENDMDL
MODEL 9
REMARK VINA RESULT:      -6.7      3.920      8.223
REMARK  Name = 
REMARK  6 active torsions:
REMARK  status: ('A' for Active; 'I' for Inactive)
REMARK    1  A    between atoms: C_1  and  C_2
REMARK    2  A    between atoms: C_2  and  O_3
REMARK    3  A    between atoms: O_3  and  C_4
REMARK    4  A    between atoms: C_4  and  C_6
REMARK    5  A    between atoms: C_11  and  C_13
REMARK    6  A    between atoms: C_21  and  C_22
REMARK                            x       y       z     vdW  Elec       q    Type
REMARK                         _______ _______ _______ _____ _____    ______ ____
ROOT
ATOM      1  C   UNL     1       1.437   9.625  19.143  0.00  0.00    +0.000 C 
ATOM      2  C   UNL     1       1.053   8.928  20.457  0.00  0.00    +0.000 C 
ATOM      3  C   UNL     1       0.532   9.848  21.560  0.00  0.00    +0.000 C 
ATOM      4  C   UNL     1      -0.643  10.729  21.143  0.00  0.00    +0.000 C 
ATOM      5  N   UNL     1      -0.212  11.837  20.294  0.00  0.00    +0.000 N 
ATOM      6  C   UNL     1       0.142  13.053  20.923  0.00  0.00    +0.000 C 
ATOM      7  O   UNL     1       0.204  13.117  22.152  0.00  0.00    +0.000 OA
ATOM      8  C   UNL     1      -0.105  11.615  18.852  0.00  0.00    +0.000 C 
ATOM      9  C   UNL     1       0.219  10.193  18.408  0.00  0.00    +0.000 C 
ENDROOT
BRANCH   6  10
ATOM     10  C   UNL     1       0.479  14.200  20.094  0.00  0.00    +0.000 A 
ATOM     11  O   UNL     1      -0.505  15.066  19.702  0.00  0.00    +0.000 OA
ATOM     12  C   UNL     1       0.057  15.994  18.892  0.00  0.00    +0.000 A 
ATOM     13  C   UNL     1      -0.638  16.993  18.218  0.00  0.00    +0.000 A 
ATOM     14  C   UNL     1       0.127  17.857  17.430  0.00  0.00    +0.000 A 
ATOM     15  C   UNL     1       1.514  17.716  17.347  0.00  0.00    +0.000 A 
ATOM     16  C   UNL     1       2.183  16.692  18.035  0.00  0.00    +0.000 A 
ATOM     17  C   UNL     1       1.428  15.799  18.817  0.00  0.00    +0.000 A 
ATOM     18  C   UNL     1       1.706  14.637  19.601  0.00  0.00    +0.000 A 
ATOM     19  C   UNL     1       3.022  13.978  19.804  0.00  0.00    +0.000 C 
ENDBRANCH   6  10
BRANCH   1  20
ATOM     20  C   UNL     1       2.119   8.589  18.276  0.00  0.00    +0.000 C 
ATOM     21  O   UNL     1       2.426   8.755  17.103  0.00  0.00    +0.000 OA
BRANCH  20  22
ATOM     22  O   UNL     1       2.203   7.412  18.958  0.00  0.00    +0.000 OA
BRANCH  22  24
ATOM     23  C   UNL     1       2.143   5.073  18.494  0.00  0.00    +0.000 C 
ATOM     24  C   UNL     1       2.909   6.367  18.279  0.00  0.00    +0.000 C 
ENDBRANCH  22  24
ENDBRANCH  20  22
ENDBRANCH   1  20
TORSDOF 4
ENDMDL
