MODEL 1
REMARK VINA RESULT:      -7.7      0.000      0.000
REMARK  Name = 
REMARK  5 active torsions:
REMARK  status: ('A' for Active; 'I' for Inactive)
REMARK    1  A    between atoms: C_1  and  C_2
REMARK    2  A    between atoms: C_5  and  C_6
REMARK    3  A    between atoms: C_6  and  C_7
REMARK    4  A    between atoms: C_14  and  C_15
REMARK    5  A    between atoms: C_15  and  N_16
REMARK                            x       y       z     vdW  Elec       q    Type
REMARK                         _______ _______ _______ _____ _____    ______ ____
ROOT
ATOM      1  C   UNL     1       7.924   8.583  17.929  0.00  0.00    +0.000 C 
ATOM      2  O   UNL     1       7.505   9.522  17.247  0.00  0.00    +0.000 OA
ATOM      3  N   UNL     1       7.485   7.283  17.722  0.00  0.00    +0.000 N 
ATOM      4  C   UNL     1       7.949   6.103  18.460  0.00  0.00    +0.000 C 
ATOM      5  C   UNL     1       6.853   5.632  19.412  0.00  0.00    +0.000 C 
ATOM      6  N   UNL     1       5.569   5.599  18.737  0.00  0.00    +0.000 N 
ATOM      7  C   UNL     1       4.429   4.992  19.168  0.00  0.00    +0.000 A 
ATOM      8  C   UNL     1       3.481   5.283  18.206  0.00  0.00    +0.000 A 
ATOM      9  N   UNL     1       4.039   6.060  17.209  0.00  0.00    +0.000 NA
ATOM     10  C   UNL     1       5.296   6.256  17.559  0.00  0.00    +0.000 A 
ATOM     11  C   UNL     1       6.345   7.049  16.830  0.00  0.00    +0.000 C 
ENDROOT
BRANCH   1  12
ATOM     12  C   UNL     1       8.929   8.840  19.042  0.00  0.00    +0.000 C 
BRANCH  12  17
ATOM     13  C   UNL     1      10.771  14.354  19.606  0.00  0.00    +0.000 C 
ATOM     14  C   UNL     1      10.277  12.944  19.477  0.00  0.00    +0.000 A 
ATOM     15  C   UNL     1       9.786  12.244  20.584  0.00  0.00    +0.000 A 
ATOM     16  C   UNL     1       9.341  10.924  20.450  0.00  0.00    +0.000 A 
ATOM     17  C   UNL     1       9.361  10.283  19.204  0.00  0.00    +0.000 A 
ATOM     18  C   UNL     1       9.871  10.984  18.101  0.00  0.00    +0.000 A 
ATOM     19  C   UNL     1      10.322  12.301  18.237  0.00  0.00    +0.000 A 
ENDBRANCH  12  17
ENDBRANCH   1  12
BRANCH   8  20
ATOM     20  C   UNL     1       2.047   4.891  18.153  0.00  0.00    +0.000 C 
BRANCH  20  21
ATOM     21  N   UNL     1       1.744   3.909  19.175  0.00  0.00    +0.000 N 
ATOM     22  C   UNL     1       1.813   2.552  19.075  0.00  0.00    +0.000 A 
ATOM     23  N   UNL     1       1.412   2.007  20.201  0.00  0.00    +0.000 NA
ATOM     24  C   UNL     1       1.091   3.090  20.969  0.00  0.00    +0.000 A 
ATOM     25  N   UNL     1       1.267   4.279  20.385  0.00  0.00    +0.000 NA
ENDBRANCH  20  21
ENDBRANCH   8  20
TORSDOF 4
ENDMDL
MODEL 2
REMARK VINA RESULT:      -7.6      0.521      1.217
REMARK  Name = 
REMARK  5 active torsions:
REMARK  status: ('A' for Active; 'I' for Inactive)
REMARK    1  A    between atoms: C_1  and  C_2
REMARK    2  A    between atoms: C_5  and  C_6
REMARK    3  A    between atoms: C_6  and  C_7
REMARK    4  A    between atoms: C_14  and  C_15
REMARK    5  A    between atoms: C_15  and  N_16
REMARK                            x       y       z     vdW  Elec       q    Type
REMARK                         _______ _______ _______ _____ _____    ______ ____
ROOT
ATOM      1  C   UNL     1       7.961   8.538  17.957  0.00  0.00    +0.000 C 
ATOM      2  O   UNL     1       7.566   9.459  17.237  0.00  0.00    +0.000 OA
ATOM      3  N   UNL     1       7.515   7.235  17.778  0.00  0.00    +0.000 N 
ATOM      4  C   UNL     1       7.951   6.074  18.561  0.00  0.00    +0.000 C 
ATOM      5  C   UNL     1       6.829   5.640  19.500  0.00  0.00    +0.000 C 
ATOM      6  N   UNL     1       5.561   5.597  18.796  0.00  0.00    +0.000 N 
ATOM      7  C   UNL     1       4.406   5.012  19.218  0.00  0.00    +0.000 A 
ATOM      8  C   UNL     1       3.484   5.282  18.226  0.00  0.00    +0.000 A 
ATOM      9  N   UNL     1       4.072   6.025  17.220  0.00  0.00    +0.000 NA
ATOM     10  C   UNL     1       5.322   6.221  17.594  0.00  0.00    +0.000 A 
ATOM     11  C   UNL     1       6.395   6.984  16.867  0.00  0.00    +0.000 C 
ENDROOT
BRANCH   1  12
ATOM     12  C   UNL     1       8.941   8.820  19.085  0.00  0.00    +0.000 C 
BRANCH  12  17
ATOM     13  C   UNL     1      10.492  14.426  19.613  0.00  0.00    +0.000 C 
ATOM     14  C   UNL     1      10.115  12.982  19.462  0.00  0.00    +0.000 A 
ATOM     15  C   UNL     1      10.205  12.335  18.226  0.00  0.00    +0.000 A 
ATOM     16  C   UNL     1       9.838  10.991  18.098  0.00  0.00    +0.000 A 
ATOM     17  C   UNL     1       9.390  10.261  19.208  0.00  0.00    +0.000 A 
ATOM     18  C   UNL     1       9.284  10.921  20.441  0.00  0.00    +0.000 A 
ATOM     19  C   UNL     1       9.645  12.266  20.566  0.00  0.00    +0.000 A 
ENDBRANCH  12  17
ENDBRANCH   1  12
BRANCH   8  20
ATOM     20  C   UNL     1       2.048   4.901  18.151  0.00  0.00    +0.000 C 
BRANCH  20  21
ATOM     21  N   UNL     1       1.721   3.924  19.170  0.00  0.00    +0.000 N 
ATOM     22  C   UNL     1       1.150   4.147  20.387  0.00  0.00    +0.000 A 
ATOM     23  N   UNL     1       1.060   3.014  21.045  0.00  0.00    +0.000 NA
ATOM     24  C   UNL     1       1.611   2.112  20.179  0.00  0.00    +0.000 A 
ATOM     25  N   UNL     1       2.040   2.618  19.021  0.00  0.00    +0.000 NA
ENDBRANCH  20  21
ENDBRANCH   8  20
TORSDOF 4
ENDMDL
MODEL 3
REMARK VINA RESULT:      -7.6      6.084      8.616
REMARK  Name = 
REMARK  5 active torsions:
REMARK  status: ('A' for Active; 'I' for Inactive)
REMARK    1  A    between atoms: C_1  and  C_2
REMARK    2  A    between atoms: C_5  and  C_6
REMARK    3  A    between atoms: C_6  and  C_7
REMARK    4  A    between atoms: C_14  and  C_15
REMARK    5  A    between atoms: C_15  and  N_16
REMARK                            x       y       z     vdW  Elec       q    Type
REMARK                         _______ _______ _______ _____ _____    ______ ____
ROOT
ATOM      1  C   UNL     1       0.984   9.890  21.620  0.00  0.00    +0.000 C 
ATOM      2  O   UNL     1       1.318   9.503  22.743  0.00  0.00    +0.000 OA
ATOM      3  N   UNL     1       0.828   9.004  20.563  0.00  0.00    +0.000 N 
ATOM      4  C   UNL     1       0.404   9.368  19.207  0.00  0.00    +0.000 C 
ATOM      5  C   UNL     1       1.597   9.278  18.258  0.00  0.00    +0.000 C 
ATOM      6  N   UNL     1       2.331   8.046  18.476  0.00  0.00    +0.000 N 
ATOM      7  C   UNL     1       3.274   7.495  17.662  0.00  0.00    +0.000 A 
ATOM      8  C   UNL     1       3.704   6.363  18.324  0.00  0.00    +0.000 A 
ATOM      9  N   UNL     1       3.034   6.231  19.525  0.00  0.00    +0.000 NA
ATOM     10  C   UNL     1       2.223   7.269  19.606  0.00  0.00    +0.000 A 
ATOM     11  C   UNL     1       1.278   7.618  20.723  0.00  0.00    +0.000 C 
ENDROOT
BRANCH   1  12
ATOM     12  C   UNL     1       0.755  11.373  21.364  0.00  0.00    +0.000 C 
BRANCH  12  17
ATOM     13  C   UNL     1      -4.737  13.080  22.382  0.00  0.00    +0.000 C 
ATOM     14  C   UNL     1      -3.323  12.663  22.104  0.00  0.00    +0.000 A 
ATOM     15  C   UNL     1      -2.791  12.718  20.812  0.00  0.00    +0.000 A 
ATOM     16  C   UNL     1      -1.475  12.313  20.567  0.00  0.00    +0.000 A 
ATOM     17  C   UNL     1      -0.657  11.861  21.611  0.00  0.00    +0.000 A 
ATOM     18  C   UNL     1      -1.202  11.791  22.902  0.00  0.00    +0.000 A 
ATOM     19  C   UNL     1      -2.520  12.190  23.145  0.00  0.00    +0.000 A 
ENDBRANCH  12  17
ENDBRANCH   1  12
BRANCH   8  20
ATOM     20  C   UNL     1       4.735   5.371  17.915  0.00  0.00    +0.000 C 
BRANCH  20  21
ATOM     21  N   UNL     1       6.044   5.760  18.399  0.00  0.00    +0.000 N 
ATOM     22  C   UNL     1       6.917   6.638  17.830  0.00  0.00    +0.000 A 
ATOM     23  N   UNL     1       8.019   6.688  18.544  0.00  0.00    +0.000 NA
ATOM     24  C   UNL     1       7.773   5.796  19.549  0.00  0.00    +0.000 A 
ATOM     25  N   UNL     1       6.582   5.194  19.503  0.00  0.00    +0.000 NA
ENDBRANCH  20  21
ENDBRANCH   8  20
TORSDOF 4
ENDMDL
MODEL 4
REMARK VINA RESULT:      -7.5      6.164      8.207
REMARK  Name = 
REMARK  5 active torsions:
REMARK  status: ('A' for Active; 'I' for Inactive)
REMARK    1  A    between atoms: C_1  and  C_2
REMARK    2  A    between atoms: C_5  and  C_6
REMARK    3  A    between atoms: C_6  and  C_7
REMARK    4  A    between atoms: C_14  and  C_15
REMARK    5  A    between atoms: C_15  and  N_16
REMARK                            x       y       z     vdW  Elec       q    Type
REMARK                         _______ _______ _______ _____ _____    ______ ____
ROOT
ATOM      1  C   UNL     1       0.985   9.924  21.607  0.00  0.00    +0.000 C 
ATOM      2  O   UNL     1       1.321   9.578  22.743  0.00  0.00    +0.000 OA
ATOM      3  N   UNL     1       0.847   9.002  20.579  0.00  0.00    +0.000 N 
ATOM      4  C   UNL     1       0.424   9.314  19.210  0.00  0.00    +0.000 C 
ATOM      5  C   UNL     1       1.621   9.212  18.269  0.00  0.00    +0.000 C 
ATOM      6  N   UNL     1       2.374   8.000  18.529  0.00  0.00    +0.000 N 
ATOM      7  C   UNL     1       3.328   7.439  17.737  0.00  0.00    +0.000 A 
ATOM      8  C   UNL     1       3.774   6.335  18.437  0.00  0.00    +0.000 A 
ATOM      9  N   UNL     1       3.101   6.232  19.640  0.00  0.00    +0.000 NA
ATOM     10  C   UNL     1       2.274   7.259  19.684  0.00  0.00    +0.000 A 
ATOM     11  C   UNL     1       1.318   7.629  20.785  0.00  0.00    +0.000 C 
ENDROOT
BRANCH   1  12
ATOM     12  C   UNL     1       0.734  11.393  21.302  0.00  0.00    +0.000 C 
BRANCH  12  17
ATOM     13  C   UNL     1      -4.725  13.105  22.478  0.00  0.00    +0.000 C 
ATOM     14  C   UNL     1      -3.319  12.687  22.161  0.00  0.00    +0.000 A 
ATOM     15  C   UNL     1      -2.793  12.831  20.873  0.00  0.00    +0.000 A 
ATOM     16  C   UNL     1      -1.485  12.425  20.591  0.00  0.00    +0.000 A 
ATOM     17  C   UNL     1      -0.668  11.884  21.593  0.00  0.00    +0.000 A 
ATOM     18  C   UNL     1      -1.208  11.725  22.879  0.00  0.00    +0.000 A 
ATOM     19  C   UNL     1      -2.519  12.125  23.159  0.00  0.00    +0.000 A 
ENDBRANCH  12  17
ENDBRANCH   1  12
BRANCH   8  20
ATOM     20  C   UNL     1       4.821   5.346  18.064  0.00  0.00    +0.000 C 
BRANCH  20  21
ATOM     21  N   UNL     1       4.389   3.998  18.372  0.00  0.00    +0.000 N 
ATOM     22  C   UNL     1       3.441   3.258  17.731  0.00  0.00    +0.000 A 
ATOM     23  N   UNL     1       3.300   2.102  18.337  0.00  0.00    +0.000 NA
ATOM     24  C   UNL     1       4.190   2.187  19.371  0.00  0.00    +0.000 A 
ATOM     25  N   UNL     1       4.876   3.331  19.443  0.00  0.00    +0.000 NA
ENDBRANCH  20  21
ENDBRANCH   8  20
TORSDOF 4
ENDMDL
MODEL 5
REMARK VINA RESULT:      -7.5      3.873      6.527
REMARK  Name = 
REMARK  5 active torsions:
REMARK  status: ('A' for Active; 'I' for Inactive)
REMARK    1  A    between atoms: C_1  and  C_2
REMARK    2  A    between atoms: C_5  and  C_6
REMARK    3  A    between atoms: C_6  and  C_7
REMARK    4  A    between atoms: C_14  and  C_15
REMARK    5  A    between atoms: C_15  and  N_16
REMARK                            x       y       z     vdW  Elec       q    Type
REMARK                         _______ _______ _______ _____ _____    ______ ____
ROOT
ATOM      1  C   UNL     1       7.522   5.096  16.599  0.00  0.00    +0.000 C 
ATOM      2  O   UNL     1       7.911   4.011  17.038  0.00  0.00    +0.000 OA
ATOM      3  N   UNL     1       6.848   6.004  17.404  0.00  0.00    +0.000 N 
ATOM      4  C   UNL     1       6.377   7.327  16.980  0.00  0.00    +0.000 C 
ATOM      5  C   UNL     1       4.857   7.309  16.842  0.00  0.00    +0.000 C 
ATOM      6  N   UNL     1       4.247   6.662  17.988  0.00  0.00    +0.000 N 
ATOM      7  C   UNL     1       2.934   6.692  18.347  0.00  0.00    +0.000 A 
ATOM      8  C   UNL     1       2.850   5.895  19.471  0.00  0.00    +0.000 A 
ATOM      9  N   UNL     1       4.096   5.385  19.786  0.00  0.00    +0.000 NA
ATOM     10  C   UNL     1       4.922   5.846  18.866  0.00  0.00    +0.000 A 
ATOM     11  C   UNL     1       6.396   5.581  18.733  0.00  0.00    +0.000 C 
ENDROOT
BRANCH   1  12
ATOM     12  C   UNL     1       7.758   5.456  15.140  0.00  0.00    +0.000 C 
BRANCH  12  17
ATOM     13  C   UNL     1       4.491   2.687  11.168  0.00  0.00    +0.000 C 
ATOM     14  C   UNL     1       5.320   3.382  12.207  0.00  0.00    +0.000 A 
ATOM     15  C   UNL     1       4.796   3.690  13.466  0.00  0.00    +0.000 A 
ATOM     16  C   UNL     1       5.578   4.350  14.420  0.00  0.00    +0.000 A 
ATOM     17  C   UNL     1       6.907   4.700  14.142  0.00  0.00    +0.000 A 
ATOM     18  C   UNL     1       7.421   4.404  12.871  0.00  0.00    +0.000 A 
ATOM     19  C   UNL     1       6.637   3.750  11.915  0.00  0.00    +0.000 A 
ENDBRANCH  12  17
ENDBRANCH   1  12
BRANCH   8  20
ATOM     20  C   UNL     1       1.658   5.550  20.291  0.00  0.00    +0.000 C 
BRANCH  20  21
ATOM     21  N   UNL     1       1.592   4.121  20.529  0.00  0.00    +0.000 N 
ATOM     22  C   UNL     1       1.903   3.451  21.673  0.00  0.00    +0.000 A 
ATOM     23  N   UNL     1       1.761   2.160  21.479  0.00  0.00    +0.000 NA
ATOM     24  C   UNL     1       1.368   2.088  20.172  0.00  0.00    +0.000 A 
ATOM     25  N   UNL     1       1.258   3.260  19.542  0.00  0.00    +0.000 NA
ENDBRANCH  20  21
ENDBRANCH   8  20
TORSDOF 4
ENDMDL
MODEL 6
REMARK VINA RESULT:      -7.3      6.545     10.259
REMARK  Name = 
REMARK  5 active torsions:
REMARK  status: ('A' for Active; 'I' for Inactive)
REMARK    1  A    between atoms: C_1  and  C_2
REMARK    2  A    between atoms: C_5  and  C_6
REMARK    3  A    between atoms: C_6  and  C_7
REMARK    4  A    between atoms: C_14  and  C_15
REMARK    5  A    between atoms: C_15  and  N_16
REMARK                            x       y       z     vdW  Elec       q    Type
REMARK                         _______ _______ _______ _____ _____    ______ ____
ROOT
ATOM      1  C   UNL     1       1.908   8.632  18.545  0.00  0.00    +0.000 C 
ATOM      2  O   UNL     1       2.214   8.736  17.354  0.00  0.00    +0.000 OA
ATOM      3  N   UNL     1       0.911   9.417  19.109  0.00  0.00    +0.000 N 
ATOM      4  C   UNL     1       0.459   9.342  20.502  0.00  0.00    +0.000 C 
ATOM      5  C   UNL     1       0.956  10.566  21.267  0.00  0.00    +0.000 C 
ATOM      6  N   UNL     1       0.725  11.776  20.500  0.00  0.00    +0.000 N 
ATOM      7  C   UNL     1       0.786  13.059  20.952  0.00  0.00    +0.000 A 
ATOM      8  C   UNL     1       0.537  13.843  19.842  0.00  0.00    +0.000 A 
ATOM      9  N   UNL     1       0.333  13.044  18.733  0.00  0.00    +0.000 NA
ATOM     10  C   UNL     1       0.471  11.800  19.149  0.00  0.00    +0.000 A 
ATOM     11  C   UNL     1       0.364  10.538  18.338  0.00  0.00    +0.000 C 
ENDROOT
BRANCH   1  12
ATOM     12  C   UNL     1       2.644   7.643  19.437  0.00  0.00    +0.000 C 
BRANCH  12  17
ATOM     13  C   UNL     1       0.737   2.151  18.873  0.00  0.00    +0.000 C 
ATOM     14  C   UNL     1       1.239   3.555  19.041  0.00  0.00    +0.000 A 
ATOM     15  C   UNL     1       1.196   4.196  20.283  0.00  0.00    +0.000 A 
ATOM     16  C   UNL     1       1.655   5.510  20.421  0.00  0.00    +0.000 A 
ATOM     17  C   UNL     1       2.184   6.205  19.324  0.00  0.00    +0.000 A 
ATOM     18  C   UNL     1       2.207   5.563  18.077  0.00  0.00    +0.000 A 
ATOM     19  C   UNL     1       1.742   4.251  17.939  0.00  0.00    +0.000 A 
ENDBRANCH  12  17
ENDBRANCH   1  12
BRANCH   8  20
ATOM     20  C   UNL     1       0.488  15.325  19.732  0.00  0.00    +0.000 C 
BRANCH  20  21
ATOM     21  N   UNL     1       1.677  15.832  19.077  0.00  0.00    +0.000 N 
ATOM     22  C   UNL     1       1.770  16.876  18.206  0.00  0.00    +0.000 A 
ATOM     23  N   UNL     1       3.011  16.995  17.793  0.00  0.00    +0.000 NA
ATOM     24  C   UNL     1       3.649  15.975  18.440  0.00  0.00    +0.000 A 
ATOM     25  N   UNL     1       2.876  15.227  19.232  0.00  0.00    +0.000 NA
ENDBRANCH  20  21
ENDBRANCH   8  20
TORSDOF 4
ENDMDL
MODEL 7
REMARK VINA RESULT:      -7.3      6.533      8.022
REMARK  Name = 
REMARK  5 active torsions:
REMARK  status: ('A' for Active; 'I' for Inactive)
REMARK    1  A    between atoms: C_1  and  C_2
REMARK    2  A    between atoms: C_5  and  C_6
REMARK    3  A    between atoms: C_6  and  C_7
REMARK    4  A    between atoms: C_14  and  C_15
REMARK    5  A    between atoms: C_15  and  N_16
REMARK                            x       y       z     vdW  Elec       q    Type
REMARK                         _______ _______ _______ _____ _____    ______ ____
ROOT
ATOM      1  C   UNL     1       0.942  10.161  21.553  0.00  0.00    +0.000 C 
ATOM      2  O   UNL     1       1.279   9.823  22.691  0.00  0.00    +0.000 OA
ATOM      3  N   UNL     1       0.766   9.228  20.541  0.00  0.00    +0.000 N 
ATOM      4  C   UNL     1       0.337   9.531  19.172  0.00  0.00    +0.000 C 
ATOM      5  C   UNL     1       1.521   9.380  18.220  0.00  0.00    +0.000 C 
ATOM      6  N   UNL     1       2.241   8.150  18.491  0.00  0.00    +0.000 N 
ATOM      7  C   UNL     1       3.170   7.549  17.698  0.00  0.00    +0.000 A 
ATOM      8  C   UNL     1       3.590   6.444  18.411  0.00  0.00    +0.000 A 
ATOM      9  N   UNL     1       2.928   6.379  19.622  0.00  0.00    +0.000 NA
ATOM     10  C   UNL     1       2.131   7.430  19.658  0.00  0.00    +0.000 A 
ATOM     11  C   UNL     1       1.199   7.845  20.763  0.00  0.00    +0.000 C 
ENDROOT
BRANCH   1  12
ATOM     12  C   UNL     1       0.730  11.632  21.227  0.00  0.00    +0.000 C 
BRANCH  12  17
ATOM     13  C   UNL     1      -3.440  14.295  24.331  0.00  0.00    +0.000 C 
ATOM     14  C   UNL     1      -2.388  13.598  23.520  0.00  0.00    +0.000 A 
ATOM     15  C   UNL     1      -2.495  12.239  23.209  0.00  0.00    +0.000 A 
ATOM     16  C   UNL     1      -1.499  11.600  22.462  0.00  0.00    +0.000 A 
ATOM     17  C   UNL     1      -0.384  12.311  21.996  0.00  0.00    +0.000 A 
ATOM     18  C   UNL     1      -0.274  13.670  22.327  0.00  0.00    +0.000 A 
ATOM     19  C   UNL     1      -1.267  14.306  23.079  0.00  0.00    +0.000 A 
ENDBRANCH  12  17
ENDBRANCH   1  12
BRANCH   8  20
ATOM     20  C   UNL     1       4.605   5.420  18.042  0.00  0.00    +0.000 C 
BRANCH  20  21
ATOM     21  N   UNL     1       4.032   4.089  18.088  0.00  0.00    +0.000 N 
ATOM     22  C   UNL     1       3.042   3.579  17.303  0.00  0.00    +0.000 A 
ATOM     23  N   UNL     1       2.767   2.352  17.683  0.00  0.00    +0.000 NA
ATOM     24  C   UNL     1       3.620   2.158  18.732  0.00  0.00    +0.000 A 
ATOM     25  N   UNL     1       4.411   3.193  19.028  0.00  0.00    +0.000 NA
ENDBRANCH  20  21
ENDBRANCH   8  20
TORSDOF 4
ENDMDL
MODEL 8
REMARK VINA RESULT:      -7.3      7.056      9.328
REMARK  Name = 
REMARK  5 active torsions:
REMARK  status: ('A' for Active; 'I' for Inactive)
REMARK    1  A    between atoms: C_1  and  C_2
REMARK    2  A    between atoms: C_5  and  C_6
REMARK    3  A    between atoms: C_6  and  C_7
REMARK    4  A    between atoms: C_14  and  C_15
REMARK    5  A    between atoms: C_15  and  N_16
REMARK                            x       y       z     vdW  Elec       q    Type
REMARK                         _______ _______ _______ _____ _____    ______ ____
ROOT
ATOM      1  C   UNL     1      -0.105  10.687  22.034  0.00  0.00    +0.000 C 
ATOM      2  O   UNL     1       0.410  10.317  23.092  0.00  0.00    +0.000 OA
ATOM      3  N   UNL     1      -0.224   9.832  20.947  0.00  0.00    +0.000 N 
ATOM      4  C   UNL     1      -0.847  10.172  19.663  0.00  0.00    +0.000 C 
ATOM      5  C   UNL     1       0.232  10.330  18.596  0.00  0.00    +0.000 C 
ATOM      6  N   UNL     1       1.183   9.236  18.666  0.00  0.00    +0.000 N 
ATOM      7  C   UNL     1       2.111   8.892  17.730  0.00  0.00    +0.000 A 
ATOM      8  C   UNL     1       2.795   7.825  18.277  0.00  0.00    +0.000 A 
ATOM      9  N   UNL     1       2.292   7.530  19.530  0.00  0.00    +0.000 NA
ATOM     10  C   UNL     1       1.331   8.407  19.753  0.00  0.00    +0.000 A 
ATOM     11  C   UNL     1       0.468   8.539  20.977  0.00  0.00    +0.000 C 
ENDROOT
BRANCH   1  12
ATOM     12  C   UNL     1      -0.607  12.116  21.890  0.00  0.00    +0.000 C 
BRANCH  12  17
ATOM     13  C   UNL     1      -6.163  13.152  23.361  0.00  0.00    +0.000 C 
ATOM     14  C   UNL     1      -4.736  12.864  22.999  0.00  0.00    +0.000 A 
ATOM     15  C   UNL     1      -3.808  12.469  23.968  0.00  0.00    +0.000 A 
ATOM     16  C   UNL     1      -2.478  12.217  23.617  0.00  0.00    +0.000 A 
ATOM     17  C   UNL     1      -2.051  12.337  22.287  0.00  0.00    +0.000 A 
ATOM     18  C   UNL     1      -2.982  12.751  21.323  0.00  0.00    +0.000 A 
ATOM     19  C   UNL     1      -4.311  13.010  21.676  0.00  0.00    +0.000 A 
ENDBRANCH  12  17
ENDBRANCH   1  12
BRANCH   8  20
ATOM     20  C   UNL     1       3.927   7.045  17.709  0.00  0.00    +0.000 C 
BRANCH  20  21
ATOM     21  N   UNL     1       3.898   5.676  18.184  0.00  0.00    +0.000 N 
ATOM     22  C   UNL     1       4.776   5.067  19.028  0.00  0.00    +0.000 A 
ATOM     23  N   UNL     1       4.438   3.807  19.181  0.00  0.00    +0.000 NA
ATOM     24  C   UNL     1       3.334   3.687  18.385  0.00  0.00    +0.000 A 
ATOM     25  N   UNL     1       2.966   4.800  17.745  0.00  0.00    +0.000 NA
ENDBRANCH  20  21
ENDBRANCH   8  20
TORSDOF 4
ENDMDL
MODEL 9
REMARK VINA RESULT:      -7.2      5.901      8.391
REMARK  Name = 
REMARK  5 active torsions:
REMARK  status: ('A' for Active; 'I' for Inactive)
REMARK    1  A    between atoms: C_1  and  C_2
REMARK    2  A    between atoms: C_5  and  C_6
REMARK    3  A    between atoms: C_6  and  C_7
REMARK    4  A    between atoms: C_14  and  C_15
REMARK    5  A    between atoms: C_15  and  N_16
REMARK                            x       y       z     vdW  Elec       q    Type
REMARK                         _______ _______ _______ _____ _____    ______ ____
ROOT
ATOM      1  C   UNL     1       1.156   9.687  21.412  0.00  0.00    +0.000 C 
ATOM      2  O   UNL     1       1.386   9.366  22.581  0.00  0.00    +0.000 OA
ATOM      3  N   UNL     1       1.050   8.736  20.406  0.00  0.00    +0.000 N 
ATOM      4  C   UNL     1       0.747   9.019  18.999  0.00  0.00    +0.000 C 
ATOM      5  C   UNL     1       2.006   8.827  18.157  0.00  0.00    +0.000 C 
ATOM      6  N   UNL     1       2.675   7.590  18.514  0.00  0.00    +0.000 N 
ATOM      7  C   UNL     1       3.658   6.956  17.816  0.00  0.00    +0.000 A 
ATOM      8  C   UNL     1       3.993   5.858  18.584  0.00  0.00    +0.000 A 
ATOM      9  N   UNL     1       3.227   5.830  19.733  0.00  0.00    +0.000 NA
ATOM     10  C   UNL     1       2.451   6.896  19.680  0.00  0.00    +0.000 A 
ATOM     11  C   UNL     1       1.435   7.350  20.692  0.00  0.00    +0.000 C 
ENDROOT
BRANCH   1  12
ATOM     12  C   UNL     1       1.002  11.154  21.041  0.00  0.00    +0.000 C 
BRANCH  12  17
ATOM     13  C   UNL     1      -4.383  13.225  21.949  0.00  0.00    +0.000 C 
ATOM     14  C   UNL     1      -2.996  12.712  21.696  0.00  0.00    +0.000 A 
ATOM     15  C   UNL     1      -2.492  12.593  20.398  0.00  0.00    +0.000 A 
ATOM     16  C   UNL     1      -1.201  12.101  20.179  0.00  0.00    +0.000 A 
ATOM     17  C   UNL     1      -0.380  11.734  21.254  0.00  0.00    +0.000 A 
ATOM     18  C   UNL     1      -0.898  11.839  22.554  0.00  0.00    +0.000 A 
ATOM     19  C   UNL     1      -2.191  12.325  22.771  0.00  0.00    +0.000 A 
ENDBRANCH  12  17
ENDBRANCH   1  12
BRANCH   8  20
ATOM     20  C   UNL     1       5.015   4.808  18.325  0.00  0.00    +0.000 C 
BRANCH  20  21
ATOM     21  N   UNL     1       5.739   5.086  17.100  0.00  0.00    +0.000 N 
ATOM     22  C   UNL     1       6.882   5.812  16.953  0.00  0.00    +0.000 A 
ATOM     23  N   UNL     1       7.201   5.876  15.680  0.00  0.00    +0.000 NA
ATOM     24  C   UNL     1       6.198   5.174  15.076  0.00  0.00    +0.000 A 
ATOM     25  N   UNL     1       5.271   4.676  15.899  0.00  0.00    +0.000 NA
ENDBRANCH  20  21
ENDBRANCH   8  20
TORSDOF 4
ENDMDL
