MODEL 1
REMARK VINA RESULT:      -7.9      0.000      0.000
REMARK  Name = 
REMARK  8 active torsions:
REMARK  status: ('A' for Active; 'I' for Inactive)
REMARK    1  A    between atoms: N_1  and  C_2
REMARK    2  A    between atoms: N_5  and  C_6
REMARK    3  A    between atoms: C_9  and  S_10
REMARK    4  A    between atoms: S_10  and  N_11
REMARK    5  A    between atoms: C_17  and  O_18
REMARK    6  A    between atoms: O_18  and  C_19
REMARK    7  A    between atoms: C_19  and  C_20
REMARK    8  A    between atoms: C_26  and  N_27
REMARK                            x       y       z     vdW  Elec       q    Type
REMARK                         _______ _______ _______ _____ _____    ______ ____
ROOT
ATOM      1  C   UNL     1       2.156   3.967  18.175  0.00  0.00    +0.000 A 
ATOM      2  N   UNL     1       2.100   5.305  18.268  0.00  0.00    +0.000 NA
ATOM      3  C   UNL     1       3.099   6.034  17.758  0.00  0.00    +0.000 A 
ATOM      4  N   UNL     1       3.118   7.417  17.912  0.00  0.00    +0.000 N 
ATOM      5  N   UNL     1       4.152   5.489  17.145  0.00  0.00    +0.000 NA
ATOM      6  C   UNL     1       4.192   4.135  17.064  0.00  0.00    +0.000 A 
ATOM      7  C   UNL     1       3.211   3.289  17.569  0.00  0.00    +0.000 A 
ATOM      8  H   UNL     1       3.998   7.810  17.611  0.00  0.00    +0.000 HD
ENDROOT
BRANCH   4   9
ATOM      9  C   UNL     1       2.205   8.260  18.554  0.00  0.00    +0.000 A 
ATOM     10  C   UNL     1       1.661   9.349  17.860  0.00  0.00    +0.000 A 
ATOM     11  C   UNL     1       0.802  10.251  18.497  0.00  0.00    +0.000 A 
ATOM     12  C   UNL     1       0.474  10.057  19.841  0.00  0.00    +0.000 A 
ATOM     13  C   UNL     1       1.027   8.999  20.558  0.00  0.00    +0.000 A 
ATOM     14  C   UNL     1       1.884   8.111  19.912  0.00  0.00    +0.000 A 
BRANCH  12  15
ATOM     15  S   UNL     1      -0.644  11.157  20.650  0.00  0.00    +0.000 S 
ATOM     16  O   UNL     1      -1.738  11.470  19.759  0.00  0.00    +0.000 OA
ATOM     17  O   UNL     1      -0.845  10.718  22.010  0.00  0.00    +0.000 OA
BRANCH  15  18
ATOM     18  N   UNL     1       0.289  12.550  20.743  0.00  0.00    +0.000 NA
ATOM     19  H   UNL     1      -0.059  13.251  20.091  0.00  0.00    +0.000 HD
ATOM     20  H   UNL     1       0.351  12.865  21.711  0.00  0.00    +0.000 HD
ENDBRANCH  15  18
ENDBRANCH  12  15
ENDBRANCH   4   9
BRANCH   1  21
ATOM     21  N   UNL     1       1.083   3.321  18.803  0.00  0.00    +0.000 N 
ATOM     22  H   UNL     1       0.374   3.124  18.100  0.00  0.00    +0.000 HD
ATOM     23  H   UNL     1       1.371   2.490  19.311  0.00  0.00    +0.000 HD
ENDBRANCH   1  21
BRANCH   7  24
ATOM     24  N   UNL     1       3.261   1.906  17.582  0.00  0.00    +0.000 NA
ATOM     25  O   UNL     1       3.489   1.423  18.697  0.00  0.00    +0.000 OA
ENDBRANCH   7  24
BRANCH   6  26
ATOM     26  O   UNL     1       5.276   3.580  16.403  0.00  0.00    +0.000 OA
BRANCH  26  27
ATOM     27  C   UNL     1       6.267   4.540  16.035  0.00  0.00    +0.000 C 
BRANCH  27  28
ATOM     28  C   UNL     1       6.590   4.461  14.560  0.00  0.00    +0.000 A 
ATOM     29  C   UNL     1       5.877   3.554  13.760  0.00  0.00    +0.000 A 
ATOM     30  C   UNL     1       6.143   3.445  12.393  0.00  0.00    +0.000 A 
ATOM     31  C   UNL     1       7.114   4.249  11.810  0.00  0.00    +0.000 A 
ATOM     32  C   UNL     1       7.812   5.174  12.587  0.00  0.00    +0.000 A 
ATOM     33  C   UNL     1       7.548   5.284  13.954  0.00  0.00    +0.000 A 
ENDBRANCH  27  28
ENDBRANCH  26  27
ENDBRANCH   6  26
TORSDOF 8
ENDMDL
MODEL 2
REMARK VINA RESULT:      -7.9      0.782      1.312
REMARK  Name = 
REMARK  8 active torsions:
REMARK  status: ('A' for Active; 'I' for Inactive)
REMARK    1  A    between atoms: N_1  and  C_2
REMARK    2  A    between atoms: N_5  and  C_6
REMARK    3  A    between atoms: C_9  and  S_10
REMARK    4  A    between atoms: S_10  and  N_11
REMARK    5  A    between atoms: C_17  and  O_18
REMARK    6  A    between atoms: O_18  and  C_19
REMARK    7  A    between atoms: C_19  and  C_20
REMARK    8  A    between atoms: C_26  and  N_27
REMARK                            x       y       z     vdW  Elec       q    Type
REMARK                         _______ _______ _______ _____ _____    ______ ____
ROOT
ATOM      1  C   UNL     1       2.162   3.918  18.487  0.00  0.00    +0.000 A 
ATOM      2  N   UNL     1       2.106   5.257  18.570  0.00  0.00    +0.000 NA
ATOM      3  C   UNL     1       3.028   5.986  17.930  0.00  0.00    +0.000 A 
ATOM      4  N   UNL     1       3.054   7.371  18.062  0.00  0.00    +0.000 N 
ATOM      5  N   UNL     1       4.000   5.440  17.196  0.00  0.00    +0.000 NA
ATOM      6  C   UNL     1       4.041   4.086  17.127  0.00  0.00    +0.000 A 
ATOM      7  C   UNL     1       3.139   3.239  17.762  0.00  0.00    +0.000 A 
ATOM      8  H   UNL     1       3.885   7.767  17.648  0.00  0.00    +0.000 HD
ENDROOT
BRANCH   4   9
ATOM      9  C   UNL     1       2.221   8.216  18.804  0.00  0.00    +0.000 A 
ATOM     10  C   UNL     1       1.802   9.434  18.253  0.00  0.00    +0.000 A 
ATOM     11  C   UNL     1       1.030  10.333  18.997  0.00  0.00    +0.000 A 
ATOM     12  C   UNL     1       0.662  10.005  20.304  0.00  0.00    +0.000 A 
ATOM     13  C   UNL     1       1.092   8.814  20.882  0.00  0.00    +0.000 A 
ATOM     14  C   UNL     1       1.864   7.930  20.131  0.00  0.00    +0.000 A 
BRANCH  12  15
ATOM     15  S   UNL     1      -0.351  11.104  21.243  0.00  0.00    +0.000 S 
ATOM     16  O   UNL     1       0.460  12.183  21.758  0.00  0.00    +0.000 OA
ATOM     17  O   UNL     1      -1.592  11.327  20.539  0.00  0.00    +0.000 OA
BRANCH  15  18
ATOM     18  N   UNL     1      -0.731  10.139  22.563  0.00  0.00    +0.000 NA
ATOM     19  H   UNL     1       0.113   9.912  23.088  0.00  0.00    +0.000 HD
ATOM     20  H   UNL     1      -1.467  10.577  23.116  0.00  0.00    +0.000 HD
ENDBRANCH  15  18
ENDBRANCH  12  15
ENDBRANCH   4   9
BRANCH   1  21
ATOM     21  N   UNL     1       1.183   3.273  19.254  0.00  0.00    +0.000 N 
ATOM     22  H   UNL     1       1.462   3.321  20.232  0.00  0.00    +0.000 HD
ATOM     23  H   UNL     1       0.253   3.646  19.093  0.00  0.00    +0.000 HD
ENDBRANCH   1  21
BRANCH   7  24
ATOM     24  N   UNL     1       3.202   1.857  17.786  0.00  0.00    +0.000 NA
ATOM     25  O   UNL     1       3.614   1.392  18.854  0.00  0.00    +0.000 OA
ENDBRANCH   7  24
BRANCH   6  26
ATOM     26  O   UNL     1       5.038   3.530  16.342  0.00  0.00    +0.000 OA
BRANCH  26  27
ATOM     27  C   UNL     1       6.062   4.459  15.986  0.00  0.00    +0.000 C 
BRANCH  27  28
ATOM     28  C   UNL     1       6.401   4.368  14.515  0.00  0.00    +0.000 A 
ATOM     29  C   UNL     1       7.447   5.160  14.013  0.00  0.00    +0.000 A 
ATOM     30  C   UNL     1       7.794   5.111  12.661  0.00  0.00    +0.000 A 
ATOM     31  C   UNL     1       7.109   4.262  11.800  0.00  0.00    +0.000 A 
ATOM     32  C   UNL     1       6.086   3.451  12.289  0.00  0.00    +0.000 A 
ATOM     33  C   UNL     1       5.737   3.498  13.640  0.00  0.00    +0.000 A 
ENDBRANCH  27  28
ENDBRANCH  26  27
ENDBRANCH   6  26
TORSDOF 8
ENDMDL
MODEL 3
REMARK VINA RESULT:      -7.7      1.088      1.426
REMARK  Name = 
REMARK  8 active torsions:
REMARK  status: ('A' for Active; 'I' for Inactive)
REMARK    1  A    between atoms: N_1  and  C_2
REMARK    2  A    between atoms: N_5  and  C_6
REMARK    3  A    between atoms: C_9  and  S_10
REMARK    4  A    between atoms: S_10  and  N_11
REMARK    5  A    between atoms: C_17  and  O_18
REMARK    6  A    between atoms: O_18  and  C_19
REMARK    7  A    between atoms: C_19  and  C_20
REMARK    8  A    between atoms: C_26  and  N_27
REMARK                            x       y       z     vdW  Elec       q    Type
REMARK                         _______ _______ _______ _____ _____    ______ ____
ROOT
ATOM      1  C   UNL     1       2.846   4.318  19.689  0.00  0.00    +0.000 A 
ATOM      2  N   UNL     1       2.478   5.598  19.517  0.00  0.00    +0.000 NA
ATOM      3  C   UNL     1       2.868   6.242  18.411  0.00  0.00    +0.000 A 
ATOM      4  N   UNL     1       2.579   7.593  18.238  0.00  0.00    +0.000 N 
ATOM      5  N   UNL     1       3.601   5.664  17.457  0.00  0.00    +0.000 NA
ATOM      6  C   UNL     1       3.966   4.372  17.651  0.00  0.00    +0.000 A 
ATOM      7  C   UNL     1       3.621   3.618  18.767  0.00  0.00    +0.000 A 
ATOM      8  H   UNL     1       3.061   7.974  17.437  0.00  0.00    +0.000 HD
ENDROOT
BRANCH   4   9
ATOM      9  C   UNL     1       1.895   8.478  19.078  0.00  0.00    +0.000 A 
ATOM     10  C   UNL     1       1.753   8.172  20.438  0.00  0.00    +0.000 A 
ATOM     11  C   UNL     1       1.013   9.001  21.288  0.00  0.00    +0.000 A 
ATOM     12  C   UNL     1       0.417  10.156  20.775  0.00  0.00    +0.000 A 
ATOM     13  C   UNL     1       0.520  10.463  19.421  0.00  0.00    +0.000 A 
ATOM     14  C   UNL     1       1.256   9.626  18.585  0.00  0.00    +0.000 A 
BRANCH  12  15
ATOM     15  S   UNL     1      -0.482  11.239  21.840  0.00  0.00    +0.000 S 
ATOM     16  O   UNL     1      -1.732  11.602  21.212  0.00  0.00    +0.000 OA
ATOM     17  O   UNL     1      -0.402  10.749  23.195  0.00  0.00    +0.000 OA
BRANCH  15  18
ATOM     18  N   UNL     1       0.480  12.613  21.783  0.00  0.00    +0.000 NA
ATOM     19  H   UNL     1      -0.038  13.420  22.130  0.00  0.00    +0.000 HD
ATOM     20  H   UNL     1       1.364  12.441  22.262  0.00  0.00    +0.000 HD
ENDBRANCH  15  18
ENDBRANCH  12  15
ENDBRANCH   4   9
BRANCH   1  21
ATOM     21  N   UNL     1       2.430   3.780  20.914  0.00  0.00    +0.000 N 
ATOM     22  H   UNL     1       1.436   3.974  21.025  0.00  0.00    +0.000 HD
ATOM     23  H   UNL     1       2.647   2.793  21.001  0.00  0.00    +0.000 HD
ENDBRANCH   1  21
BRANCH   7  24
ATOM     24  N   UNL     1       4.047   2.329  19.039  0.00  0.00    +0.000 NA
ATOM     25  O   UNL     1       4.826   2.250  19.995  0.00  0.00    +0.000 OA
ENDBRANCH   7  24
BRANCH   6  26
ATOM     26  O   UNL     1       4.705   3.773  16.644  0.00  0.00    +0.000 OA
BRANCH  26  27
ATOM     27  C   UNL     1       5.952   4.421  16.394  0.00  0.00    +0.000 C 
BRANCH  27  28
ATOM     28  C   UNL     1       6.318   4.367  14.928  0.00  0.00    +0.000 A 
ATOM     29  C   UNL     1       5.537   3.581  14.065  0.00  0.00    +0.000 A 
ATOM     30  C   UNL     1       5.840   3.499  12.705  0.00  0.00    +0.000 A 
ATOM     31  C   UNL     1       6.917   4.210  12.189  0.00  0.00    +0.000 A 
ATOM     32  C   UNL     1       7.685   5.016  13.030  0.00  0.00    +0.000 A 
ATOM     33  C   UNL     1       7.385   5.099  14.391  0.00  0.00    +0.000 A 
ENDBRANCH  27  28
ENDBRANCH  26  27
ENDBRANCH   6  26
TORSDOF 8
ENDMDL
MODEL 4
REMARK VINA RESULT:      -7.6      2.105      2.990
REMARK  Name = 
REMARK  8 active torsions:
REMARK  status: ('A' for Active; 'I' for Inactive)
REMARK    1  A    between atoms: N_1  and  C_2
REMARK    2  A    between atoms: N_5  and  C_6
REMARK    3  A    between atoms: C_9  and  S_10
REMARK    4  A    between atoms: S_10  and  N_11
REMARK    5  A    between atoms: C_17  and  O_18
REMARK    6  A    between atoms: O_18  and  C_19
REMARK    7  A    between atoms: C_19  and  C_20
REMARK    8  A    between atoms: C_26  and  N_27
REMARK                            x       y       z     vdW  Elec       q    Type
REMARK                         _______ _______ _______ _____ _____    ______ ____
ROOT
ATOM      1  C   UNL     1       2.706   4.519  20.041  0.00  0.00    +0.000 A 
ATOM      2  N   UNL     1       2.305   5.779  19.809  0.00  0.00    +0.000 NA
ATOM      3  C   UNL     1       2.622   6.357  18.645  0.00  0.00    +0.000 A 
ATOM      4  N   UNL     1       2.298   7.689  18.403  0.00  0.00    +0.000 N 
ATOM      5  N   UNL     1       3.313   5.730  17.690  0.00  0.00    +0.000 NA
ATOM      6  C   UNL     1       3.712   4.459  17.945  0.00  0.00    +0.000 A 
ATOM      7  C   UNL     1       3.444   3.773  19.124  0.00  0.00    +0.000 A 
ATOM      8  H   UNL     1       2.728   8.026  17.554  0.00  0.00    +0.000 HD
ENDROOT
BRANCH   4   9
ATOM      9  C   UNL     1       1.644   8.615  19.222  0.00  0.00    +0.000 A 
ATOM     10  C   UNL     1       1.528   8.366  20.596  0.00  0.00    +0.000 A 
ATOM     11  C   UNL     1       0.817   9.237  21.428  0.00  0.00    +0.000 A 
ATOM     12  C   UNL     1       0.223  10.378  20.883  0.00  0.00    +0.000 A 
ATOM     13  C   UNL     1       0.300  10.630  19.516  0.00  0.00    +0.000 A 
ATOM     14  C   UNL     1       1.008   9.752  18.698  0.00  0.00    +0.000 A 
BRANCH  12  15
ATOM     15  S   UNL     1      -0.638  11.514  21.923  0.00  0.00    +0.000 S 
ATOM     16  O   UNL     1      -1.891  11.879  21.303  0.00  0.00    +0.000 OA
ATOM     17  O   UNL     1      -0.545  11.069  23.294  0.00  0.00    +0.000 OA
BRANCH  15  18
ATOM     18  N   UNL     1       0.348  12.867  21.805  0.00  0.00    +0.000 NA
ATOM     19  H   UNL     1      -0.129  13.606  21.290  0.00  0.00    +0.000 HD
ATOM     20  H   UNL     1       0.679  13.141  22.730  0.00  0.00    +0.000 HD
ENDBRANCH  15  18
ENDBRANCH  12  15
ENDBRANCH   4   9
BRANCH   1  21
ATOM     21  N   UNL     1       2.367   4.054  21.319  0.00  0.00    +0.000 N 
ATOM     22  H   UNL     1       1.494   4.498  21.597  0.00  0.00    +0.000 HD
ATOM     23  H   UNL     1       2.324   3.042  21.367  0.00  0.00    +0.000 HD
ENDBRANCH   1  21
BRANCH   7  24
ATOM     24  N   UNL     1       3.908   2.512  19.453  0.00  0.00    +0.000 NA
ATOM     25  O   UNL     1       4.954   2.518  20.112  0.00  0.00    +0.000 OA
ENDBRANCH   7  24
BRANCH   6  26
ATOM     26  O   UNL     1       4.407   3.808  16.938  0.00  0.00    +0.000 OA
BRANCH  26  27
ATOM     27  C   UNL     1       5.212   4.684  16.149  0.00  0.00    +0.000 C 
BRANCH  27  28
ATOM     28  C   UNL     1       6.234   5.407  16.997  0.00  0.00    +0.000 A 
ATOM     29  C   UNL     1       6.418   6.786  16.803  0.00  0.00    +0.000 A 
ATOM     30  C   UNL     1       7.353   7.495  17.562  0.00  0.00    +0.000 A 
ATOM     31  C   UNL     1       8.104   6.837  18.529  0.00  0.00    +0.000 A 
ATOM     32  C   UNL     1       7.913   5.474  18.750  0.00  0.00    +0.000 A 
ATOM     33  C   UNL     1       6.979   4.763  17.993  0.00  0.00    +0.000 A 
ENDBRANCH  27  28
ENDBRANCH  26  27
ENDBRANCH   6  26
TORSDOF 8
ENDMDL
MODEL 5
REMARK VINA RESULT:      -7.6      1.191      1.273
REMARK  Name = 
REMARK  8 active torsions:
REMARK  status: ('A' for Active; 'I' for Inactive)
REMARK    1  A    between atoms: N_1  and  C_2
REMARK    2  A    between atoms: N_5  and  C_6
REMARK    3  A    between atoms: C_9  and  S_10
REMARK    4  A    between atoms: S_10  and  N_11
REMARK    5  A    between atoms: C_17  and  O_18
REMARK    6  A    between atoms: O_18  and  C_19
REMARK    7  A    between atoms: C_19  and  C_20
REMARK    8  A    between atoms: C_26  and  N_27
REMARK                            x       y       z     vdW  Elec       q    Type
REMARK                         _______ _______ _______ _____ _____    ______ ____
ROOT
ATOM      1  C   UNL     1       2.930   4.513  19.580  0.00  0.00    +0.000 A 
ATOM      2  N   UNL     1       2.531   5.780  19.381  0.00  0.00    +0.000 NA
ATOM      3  C   UNL     1       2.919   6.415  18.269  0.00  0.00    +0.000 A 
ATOM      4  N   UNL     1       2.597   7.755  18.069  0.00  0.00    +0.000 N 
ATOM      5  N   UNL     1       3.679   5.840  17.335  0.00  0.00    +0.000 NA
ATOM      6  C   UNL     1       4.075   4.562  17.555  0.00  0.00    +0.000 A 
ATOM      7  C   UNL     1       3.735   3.818  18.681  0.00  0.00    +0.000 A 
ATOM      8  H   UNL     1       3.079   8.135  17.267  0.00  0.00    +0.000 HD
ENDROOT
BRANCH   4   9
ATOM      9  C   UNL     1       1.880   8.635  18.884  0.00  0.00    +0.000 A 
ATOM     10  C   UNL     1       1.499   9.889  18.386  0.00  0.00    +0.000 A 
ATOM     11  C   UNL     1       0.845  10.819  19.200  0.00  0.00    +0.000 A 
ATOM     12  C   UNL     1       0.557  10.489  20.527  0.00  0.00    +0.000 A 
ATOM     13  C   UNL     1       0.951   9.262  21.052  0.00  0.00    +0.000 A 
ATOM     14  C   UNL     1       1.606   8.346  20.231  0.00  0.00    +0.000 A 
BRANCH  12  15
ATOM     15  S   UNL     1      -0.310  11.630  21.557  0.00  0.00    +0.000 S 
ATOM     16  O   UNL     1       0.530  12.778  21.816  0.00  0.00    +0.000 OA
ATOM     17  O   UNL     1      -1.673  11.749  21.096  0.00  0.00    +0.000 OA
BRANCH  15  18
ATOM     18  N   UNL     1      -0.378  10.772  22.998  0.00  0.00    +0.000 NA
ATOM     19  H   UNL     1      -0.421   9.771  22.810  0.00  0.00    +0.000 HD
ATOM     20  H   UNL     1       0.387  11.055  23.610  0.00  0.00    +0.000 HD
ENDBRANCH  15  18
ENDBRANCH  12  15
ENDBRANCH   4   9
BRANCH   1  21
ATOM     21  N   UNL     1       2.512   3.986  20.808  0.00  0.00    +0.000 N 
ATOM     22  H   UNL     1       1.779   3.303  20.628  0.00  0.00    +0.000 HD
ATOM     23  H   UNL     1       3.279   3.602  21.351  0.00  0.00    +0.000 HD
ENDBRANCH   1  21
BRANCH   7  24
ATOM     24  N   UNL     1       4.191   2.546  18.981  0.00  0.00    +0.000 NA
ATOM     25  O   UNL     1       3.345   1.659  18.815  0.00  0.00    +0.000 OA
ENDBRANCH   7  24
BRANCH   6  26
ATOM     26  O   UNL     1       4.842   3.965  16.569  0.00  0.00    +0.000 OA
BRANCH  26  27
ATOM     27  C   UNL     1       6.015   4.708  16.238  0.00  0.00    +0.000 C 
BRANCH  27  28
ATOM     28  C   UNL     1       6.383   4.539  14.781  0.00  0.00    +0.000 A 
ATOM     29  C   UNL     1       5.617   3.668  13.988  0.00  0.00    +0.000 A 
ATOM     30  C   UNL     1       5.921   3.479  12.638  0.00  0.00    +0.000 A 
ATOM     31  C   UNL     1       6.983   4.167  12.063  0.00  0.00    +0.000 A 
ATOM     32  C   UNL     1       7.735   5.056  12.831  0.00  0.00    +0.000 A 
ATOM     33  C   UNL     1       7.433   5.246  14.181  0.00  0.00    +0.000 A 
ENDBRANCH  27  28
ENDBRANCH  26  27
ENDBRANCH   6  26
TORSDOF 8
ENDMDL
MODEL 6
REMARK VINA RESULT:      -7.6      0.879      1.323
REMARK  Name = 
REMARK  8 active torsions:
REMARK  status: ('A' for Active; 'I' for Inactive)
REMARK    1  A    between atoms: N_1  and  C_2
REMARK    2  A    between atoms: N_5  and  C_6
REMARK    3  A    between atoms: C_9  and  S_10
REMARK    4  A    between atoms: S_10  and  N_11
REMARK    5  A    between atoms: C_17  and  O_18
REMARK    6  A    between atoms: O_18  and  C_19
REMARK    7  A    between atoms: C_19  and  C_20
REMARK    8  A    between atoms: C_26  and  N_27
REMARK                            x       y       z     vdW  Elec       q    Type
REMARK                         _______ _______ _______ _____ _____    ______ ____
ROOT
ATOM      1  C   UNL     1       2.082   3.999  18.726  0.00  0.00    +0.000 A 
ATOM      2  N   UNL     1       2.036   5.340  18.794  0.00  0.00    +0.000 NA
ATOM      3  C   UNL     1       2.880   6.057  18.043  0.00  0.00    +0.000 A 
ATOM      4  N   UNL     1       2.921   7.444  18.150  0.00  0.00    +0.000 N 
ATOM      5  N   UNL     1       3.765   5.498  17.214  0.00  0.00    +0.000 NA
ATOM      6  C   UNL     1       3.798   4.143  17.162  0.00  0.00    +0.000 A 
ATOM      7  C   UNL     1       2.973   3.308  17.907  0.00  0.00    +0.000 A 
ATOM      8  H   UNL     1       3.701   7.832  17.640  0.00  0.00    +0.000 HD
ENDROOT
BRANCH   4   9
ATOM      9  C   UNL     1       2.177   8.302  18.966  0.00  0.00    +0.000 A 
ATOM     10  C   UNL     1       1.931   7.950  20.300  0.00  0.00    +0.000 A 
ATOM     11  C   UNL     1       1.129   8.752  21.120  0.00  0.00    +0.000 A 
ATOM     12  C   UNL     1       0.576   9.926  20.604  0.00  0.00    +0.000 A 
ATOM     13  C   UNL     1       0.782  10.280  19.274  0.00  0.00    +0.000 A 
ATOM     14  C   UNL     1       1.579   9.470  18.467  0.00  0.00    +0.000 A 
BRANCH  12  15
ATOM     15  S   UNL     1      -0.400  10.975  21.635  0.00  0.00    +0.000 S 
ATOM     16  O   UNL     1      -1.007  10.188  22.684  0.00  0.00    +0.000 OA
ATOM     17  O   UNL     1       0.325  12.196  21.894  0.00  0.00    +0.000 OA
BRANCH  15  18
ATOM     18  N   UNL     1      -1.645  11.386  20.586  0.00  0.00    +0.000 NA
ATOM     19  H   UNL     1      -1.801  12.393  20.602  0.00  0.00    +0.000 HD
ATOM     20  H   UNL     1      -1.463  11.001  19.660  0.00  0.00    +0.000 HD
ENDBRANCH  15  18
ENDBRANCH  12  15
ENDBRANCH   4   9
BRANCH   1  21
ATOM     21  N   UNL     1       1.195   3.368  19.607  0.00  0.00    +0.000 N 
ATOM     22  H   UNL     1       1.741   2.828  20.276  0.00  0.00    +0.000 HD
ATOM     23  H   UNL     1       0.560   4.020  20.056  0.00  0.00    +0.000 HD
ENDBRANCH   1  21
BRANCH   7  24
ATOM     24  N   UNL     1       3.037   1.926  17.945  0.00  0.00    +0.000 NA
ATOM     25  O   UNL     1       3.752   1.483  18.851  0.00  0.00    +0.000 OA
ENDBRANCH   7  24
BRANCH   6  26
ATOM     26  O   UNL     1       4.701   3.573  16.280  0.00  0.00    +0.000 OA
BRANCH  26  27
ATOM     27  C   UNL     1       5.878   4.359  16.088  0.00  0.00    +0.000 C 
BRANCH  27  28
ATOM     28  C   UNL     1       6.330   4.332  14.645  0.00  0.00    +0.000 A 
ATOM     29  C   UNL     1       5.648   3.502  13.739  0.00  0.00    +0.000 A 
ATOM     30  C   UNL     1       6.032   3.443  12.398  0.00  0.00    +0.000 A 
ATOM     31  C   UNL     1       7.091   4.220  11.944  0.00  0.00    +0.000 A 
ATOM     32  C   UNL     1       7.760   5.069  12.827  0.00  0.00    +0.000 A 
ATOM     33  C   UNL     1       7.378   5.130  14.168  0.00  0.00    +0.000 A 
ENDBRANCH  27  28
ENDBRANCH  26  27
ENDBRANCH   6  26
TORSDOF 8
ENDMDL
MODEL 7
REMARK VINA RESULT:      -7.6      1.180      1.825
REMARK  Name = 
REMARK  8 active torsions:
REMARK  status: ('A' for Active; 'I' for Inactive)
REMARK    1  A    between atoms: N_1  and  C_2
REMARK    2  A    between atoms: N_5  and  C_6
REMARK    3  A    between atoms: C_9  and  S_10
REMARK    4  A    between atoms: S_10  and  N_11
REMARK    5  A    between atoms: C_17  and  O_18
REMARK    6  A    between atoms: O_18  and  C_19
REMARK    7  A    between atoms: C_19  and  C_20
REMARK    8  A    between atoms: C_26  and  N_27
REMARK                            x       y       z     vdW  Elec       q    Type
REMARK                         _______ _______ _______ _____ _____    ______ ____
ROOT
ATOM      1  C   UNL     1       2.802   4.364  19.621  0.00  0.00    +0.000 A 
ATOM      2  N   UNL     1       2.470   5.643  19.379  0.00  0.00    +0.000 NA
ATOM      3  C   UNL     1       2.929   6.234  18.270  0.00  0.00    +0.000 A 
ATOM      4  N   UNL     1       2.678   7.581  18.029  0.00  0.00    +0.000 N 
ATOM      5  N   UNL     1       3.697   5.603  17.379  0.00  0.00    +0.000 NA
ATOM      6  C   UNL     1       4.024   4.313  17.643  0.00  0.00    +0.000 A 
ATOM      7  C   UNL     1       3.608   3.612  18.769  0.00  0.00    +0.000 A 
ATOM      8  H   UNL     1       3.207   7.921  17.239  0.00  0.00    +0.000 HD
ENDROOT
BRANCH   4   9
ATOM      9  C   UNL     1       1.971   8.513  18.797  0.00  0.00    +0.000 A 
ATOM     10  C   UNL     1       1.783   8.283  20.166  0.00  0.00    +0.000 A 
ATOM     11  C   UNL     1       1.020   9.159  20.945  0.00  0.00    +0.000 A 
ATOM     12  C   UNL     1       0.445  10.285  20.350  0.00  0.00    +0.000 A 
ATOM     13  C   UNL     1       0.594  10.518  18.986  0.00  0.00    +0.000 A 
ATOM     14  C   UNL     1       1.353   9.634  18.221  0.00  0.00    +0.000 A 
BRANCH  12  15
ATOM     15  S   UNL     1      -0.482  11.427  21.325  0.00  0.00    +0.000 S 
ATOM     16  O   UNL     1       0.399  12.455  21.830  0.00  0.00    +0.000 OA
ATOM     17  O   UNL     1      -1.726  11.725  20.656  0.00  0.00    +0.000 OA
BRANCH  15  18
ATOM     18  N   UNL     1      -0.881  10.470  22.646  0.00  0.00    +0.000 NA
ATOM     19  H   UNL     1      -1.518  10.971  23.264  0.00  0.00    +0.000 HD
ATOM     20  H   UNL     1      -1.224   9.563  22.329  0.00  0.00    +0.000 HD
ENDBRANCH  15  18
ENDBRANCH  12  15
ENDBRANCH   4   9
BRANCH   1  21
ATOM     21  N   UNL     1       2.313   3.885  20.843  0.00  0.00    +0.000 N 
ATOM     22  H   UNL     1       2.259   2.870  20.789  0.00  0.00    +0.000 HD
ATOM     23  H   UNL     1       2.860   4.206  21.636  0.00  0.00    +0.000 HD
ENDBRANCH   1  21
BRANCH   7  24
ATOM     24  N   UNL     1       3.992   2.328  19.114  0.00  0.00    +0.000 NA
ATOM     25  O   UNL     1       4.831   2.282  20.021  0.00  0.00    +0.000 OA
ENDBRANCH   7  24
BRANCH   6  26
ATOM     26  O   UNL     1       4.800   3.660  16.700  0.00  0.00    +0.000 OA
BRANCH  26  27
ATOM     27  C   UNL     1       6.007   4.352  16.382  0.00  0.00    +0.000 C 
BRANCH  27  28
ATOM     28  C   UNL     1       6.296   4.306  14.899  0.00  0.00    +0.000 A 
ATOM     29  C   UNL     1       7.375   5.053  14.397  0.00  0.00    +0.000 A 
ATOM     30  C   UNL     1       7.677   5.043  13.034  0.00  0.00    +0.000 A 
ATOM     31  C   UNL     1       6.914   4.279  12.160  0.00  0.00    +0.000 A 
ATOM     32  C   UNL     1       5.856   3.511  12.647  0.00  0.00    +0.000 A 
ATOM     33  C   UNL     1       5.552   3.519  14.010  0.00  0.00    +0.000 A 
ENDBRANCH  27  28
ENDBRANCH  26  27
ENDBRANCH   6  26
TORSDOF 8
ENDMDL
MODEL 8
REMARK VINA RESULT:      -7.5      2.951      5.028
REMARK  Name = 
REMARK  8 active torsions:
REMARK  status: ('A' for Active; 'I' for Inactive)
REMARK    1  A    between atoms: N_1  and  C_2
REMARK    2  A    between atoms: N_5  and  C_6
REMARK    3  A    between atoms: C_9  and  S_10
REMARK    4  A    between atoms: S_10  and  N_11
REMARK    5  A    between atoms: C_17  and  O_18
REMARK    6  A    between atoms: O_18  and  C_19
REMARK    7  A    between atoms: C_19  and  C_20
REMARK    8  A    between atoms: C_26  and  N_27
REMARK                            x       y       z     vdW  Elec       q    Type
REMARK                         _______ _______ _______ _____ _____    ______ ____
ROOT
ATOM      1  C   UNL     1       4.812   6.260  17.179  0.00  0.00    +0.000 A 
ATOM      2  N   UNL     1       3.911   6.942  17.906  0.00  0.00    +0.000 NA
ATOM      3  C   UNL     1       3.535   6.455  19.094  0.00  0.00    +0.000 A 
ATOM      4  N   UNL     1       2.542   7.088  19.836  0.00  0.00    +0.000 N 
ATOM      5  N   UNL     1       4.024   5.322  19.601  0.00  0.00    +0.000 NA
ATOM      6  C   UNL     1       4.930   4.646  18.850  0.00  0.00    +0.000 A 
ATOM      7  C   UNL     1       5.380   5.060  17.601  0.00  0.00    +0.000 A 
ATOM      8  H   UNL     1       2.260   6.531  20.629  0.00  0.00    +0.000 HD
ENDROOT
BRANCH   4   9
ATOM      9  C   UNL     1       1.802   8.240  19.546  0.00  0.00    +0.000 A 
ATOM     10  C   UNL     1       1.042   8.848  20.554  0.00  0.00    +0.000 A 
ATOM     11  C   UNL     1       0.236   9.957  20.276  0.00  0.00    +0.000 A 
ATOM     12  C   UNL     1       0.197  10.472  18.978  0.00  0.00    +0.000 A 
ATOM     13  C   UNL     1       0.920   9.866  17.955  0.00  0.00    +0.000 A 
ATOM     14  C   UNL     1       1.715   8.759  18.244  0.00  0.00    +0.000 A 
BRANCH  12  15
ATOM     15  S   UNL     1      -0.778  11.899  18.618  0.00  0.00    +0.000 S 
ATOM     16  O   UNL     1      -1.836  12.017  19.596  0.00  0.00    +0.000 OA
ATOM     17  O   UNL     1       0.093  12.996  18.273  0.00  0.00    +0.000 OA
BRANCH  15  18
ATOM     18  N   UNL     1      -1.521  11.426  17.189  0.00  0.00    +0.000 NA
ATOM     19  H   UNL     1      -2.390  11.942  17.056  0.00  0.00    +0.000 HD
ATOM     20  H   UNL     1      -0.863  11.498  16.413  0.00  0.00    +0.000 HD
ENDBRANCH  15  18
ENDBRANCH  12  15
ENDBRANCH   4   9
BRANCH   1  21
ATOM     21  N   UNL     1       5.071   6.839  15.931  0.00  0.00    +0.000 N 
ATOM     22  H   UNL     1       5.872   6.363  15.519  0.00  0.00    +0.000 HD
ATOM     23  H   UNL     1       4.259   6.836  15.322  0.00  0.00    +0.000 HD
ENDBRANCH   1  21
BRANCH   7  24
ATOM     24  N   UNL     1       6.234   4.354  16.771  0.00  0.00    +0.000 NA
ATOM     25  O   UNL     1       7.369   4.837  16.693  0.00  0.00    +0.000 OA
ENDBRANCH   7  24
BRANCH   6  26
ATOM     26  O   UNL     1       5.452   3.485  19.396  0.00  0.00    +0.000 OA
BRANCH  26  27
ATOM     27  C   UNL     1       4.650   2.331  19.143  0.00  0.00    +0.000 C 
BRANCH  27  28
ATOM     28  C   UNL     1       3.239   2.517  19.654  0.00  0.00    +0.000 A 
ATOM     29  C   UNL     1       3.034   2.656  21.036  0.00  0.00    +0.000 A 
ATOM     30  C   UNL     1       1.748   2.828  21.554  0.00  0.00    +0.000 A 
ATOM     31  C   UNL     1       0.656   2.874  20.696  0.00  0.00    +0.000 A 
ATOM     32  C   UNL     1       0.847   2.763  19.319  0.00  0.00    +0.000 A 
ATOM     33  C   UNL     1       2.131   2.591  18.799  0.00  0.00    +0.000 A 
ENDBRANCH  27  28
ENDBRANCH  26  27
ENDBRANCH   6  26
TORSDOF 8
ENDMDL
MODEL 9
REMARK VINA RESULT:      -7.5      2.910      4.913
REMARK  Name = 
REMARK  8 active torsions:
REMARK  status: ('A' for Active; 'I' for Inactive)
REMARK    1  A    between atoms: N_1  and  C_2
REMARK    2  A    between atoms: N_5  and  C_6
REMARK    3  A    between atoms: C_9  and  S_10
REMARK    4  A    between atoms: S_10  and  N_11
REMARK    5  A    between atoms: C_17  and  O_18
REMARK    6  A    between atoms: O_18  and  C_19
REMARK    7  A    between atoms: C_19  and  C_20
REMARK    8  A    between atoms: C_26  and  N_27
REMARK                            x       y       z     vdW  Elec       q    Type
REMARK                         _______ _______ _______ _____ _____    ______ ____
ROOT
ATOM      1  C   UNL     1       4.812   6.280  17.209  0.00  0.00    +0.000 A 
ATOM      2  N   UNL     1       3.901   6.955  17.930  0.00  0.00    +0.000 NA
ATOM      3  C   UNL     1       3.520   6.466  19.115  0.00  0.00    +0.000 A 
ATOM      4  N   UNL     1       2.517   7.091  19.851  0.00  0.00    +0.000 N 
ATOM      5  N   UNL     1       4.015   5.336  19.625  0.00  0.00    +0.000 NA
ATOM      6  C   UNL     1       4.931   4.667  18.882  0.00  0.00    +0.000 A 
ATOM      7  C   UNL     1       5.387   5.084  17.635  0.00  0.00    +0.000 A 
ATOM      8  H   UNL     1       2.235   6.531  20.642  0.00  0.00    +0.000 HD
ENDROOT
BRANCH   4   9
ATOM      9  C   UNL     1       1.771   8.236  19.555  0.00  0.00    +0.000 A 
ATOM     10  C   UNL     1       1.070   8.890  20.577  0.00  0.00    +0.000 A 
ATOM     11  C   UNL     1       0.257   9.995  20.300  0.00  0.00    +0.000 A 
ATOM     12  C   UNL     1       0.152  10.458  18.986  0.00  0.00    +0.000 A 
ATOM     13  C   UNL     1       0.815   9.807  17.951  0.00  0.00    +0.000 A 
ATOM     14  C   UNL     1       1.618   8.705  18.241  0.00  0.00    +0.000 A 
BRANCH  12  15
ATOM     15  S   UNL     1      -0.831  11.879  18.623  0.00  0.00    +0.000 S 
ATOM     16  O   UNL     1      -1.709  11.585  17.513  0.00  0.00    +0.000 OA
ATOM     17  O   UNL     1      -1.301  12.461  19.857  0.00  0.00    +0.000 OA
BRANCH  15  18
ATOM     18  N   UNL     1       0.334  12.930  18.026  0.00  0.00    +0.000 NA
ATOM     19  H   UNL     1       0.669  12.605  17.119  0.00  0.00    +0.000 HD
ATOM     20  H   UNL     1      -0.023  13.885  18.028  0.00  0.00    +0.000 HD
ENDBRANCH  15  18
ENDBRANCH  12  15
ENDBRANCH   4   9
BRANCH   1  21
ATOM     21  N   UNL     1       5.076   6.862  15.963  0.00  0.00    +0.000 N 
ATOM     22  H   UNL     1       5.761   6.283  15.480  0.00  0.00    +0.000 HD
ATOM     23  H   UNL     1       4.234   7.010  15.415  0.00  0.00    +0.000 HD
ENDBRANCH   1  21
BRANCH   7  24
ATOM     24  N   UNL     1       6.252   4.386  16.812  0.00  0.00    +0.000 NA
ATOM     25  O   UNL     1       7.394   4.855  16.771  0.00  0.00    +0.000 OA
ENDBRANCH   7  24
BRANCH   6  26
ATOM     26  O   UNL     1       5.458   3.510  19.431  0.00  0.00    +0.000 OA
BRANCH  26  27
ATOM     27  C   UNL     1       4.664   2.351  19.178  0.00  0.00    +0.000 C 
BRANCH  27  28
ATOM     28  C   UNL     1       3.242   2.542  19.657  0.00  0.00    +0.000 A 
ATOM     29  C   UNL     1       2.207   2.567  18.707  0.00  0.00    +0.000 A 
ATOM     30  C   UNL     1       0.880   2.743  19.103  0.00  0.00    +0.000 A 
ATOM     31  C   UNL     1       0.570   2.883  20.451  0.00  0.00    +0.000 A 
ATOM     32  C   UNL     1       1.585   2.833  21.407  0.00  0.00    +0.000 A 
ATOM     33  C   UNL     1       2.913   2.657  21.014  0.00  0.00    +0.000 A 
ENDBRANCH  27  28
ENDBRANCH  26  27
ENDBRANCH   6  26
TORSDOF 8
ENDMDL
