MODEL 1
REMARK VINA RESULT:      -7.1      0.000      0.000
REMARK  Name = 
REMARK  10 active torsions:
REMARK  status: ('A' for Active; 'I' for Inactive)
REMARK    1  A    between atoms: C_1  and  N_2
REMARK    2  A    between atoms: N_2  and  C_3
REMARK    3  A    between atoms: N_2  and  S_4
REMARK    4  A    between atoms: S_4  and  N_7
REMARK    5  A    between atoms: C_10  and  O_11
REMARK    6  A    between atoms: O_11  and  C_12
REMARK    7  A    between atoms: C_15  and  C_16
REMARK    8  A    between atoms: N_18  and  C_19
REMARK    9  A    between atoms: C_19  and  C_20
REMARK   10  A    between atoms: C_20  and  C_21
REMARK                            x       y       z     vdW  Elec       q    Type
REMARK                         _______ _______ _______ _____ _____    ______ ____
ROOT
ATOM      1  C   UNL     1       0.366   9.532  19.913  0.00  0.00    +0.000 A 
ATOM      2  C   UNL     1       1.018   8.539  20.642  0.00  0.00    +0.000 A 
ATOM      3  C   UNL     1       1.997   7.737  20.020  0.00  0.00    +0.000 A 
ATOM      4  C   UNL     1       2.290   7.887  18.656  0.00  0.00    +0.000 A 
ATOM      5  C   UNL     1       1.653   8.903  17.946  0.00  0.00    +0.000 A 
ATOM      6  C   UNL     1       0.719   9.720  18.580  0.00  0.00    +0.000 A 
ENDROOT
BRANCH   4   7
ATOM      7  C   UNL     1       3.259   6.981  17.968  0.00  0.00    +0.000 C 
ATOM      8  O   UNL     1       4.289   7.441  17.472  0.00  0.00    +0.000 OA
ATOM      9  N   UNL     1       2.933   5.638  17.921  0.00  0.00    +0.000 N 
ATOM     10  H   UNL     1       2.127   5.292  18.421  0.00  0.00    +0.000 HD
BRANCH   9  11
ATOM     11  C   UNL     1       3.824   4.653  17.320  0.00  0.00    +0.000 C 
BRANCH  11  12
ATOM     12  C   UNL     1       3.453   3.229  17.737  0.00  0.00    +0.000 C 
BRANCH  12  13
ATOM     13  C   UNL     1       2.710   3.182  19.032  0.00  0.00    +0.000 A 
ATOM     14  C   UNL     1       3.234   2.876  20.276  0.00  0.00    +0.000 A 
ATOM     15  S   UNL     1       2.012   2.969  21.475  0.00  0.00    +0.000 S 
ATOM     16  C   UNL     1       0.883   3.394  20.258  0.00  0.00    +0.000 A 
ATOM     17  N   UNL     1       1.354   3.474  19.032  0.00  0.00    +0.000 NA
ENDBRANCH  12  13
ENDBRANCH  11  12
ENDBRANCH   9  11
ENDBRANCH   4   7
BRANCH   1  18
ATOM     18  O   UNL     1      -0.547  10.342  20.550  0.00  0.00    +0.000 OA
BRANCH  18  22
ATOM     19  N   UNL     1      -2.747  12.946  21.616  0.00  0.00    +0.000 NA
ATOM     20  C   UNL     1      -1.770  12.238  22.489  0.00  0.00    +0.000 C 
ATOM     21  C   UNL     1      -0.362  12.412  21.951  0.00  0.00    +0.000 C 
ATOM     22  C   UNL     1      -0.241  11.759  20.567  0.00  0.00    +0.000 C 
ATOM     23  C   UNL     1      -1.234  12.494  19.659  0.00  0.00    +0.000 C 
ATOM     24  C   UNL     1      -2.667  12.436  20.204  0.00  0.00    +0.000 C 
BRANCH  19  25
ATOM     25  S   UNL     1      -4.315  12.835  22.319  0.00  0.00    +0.000 S 
ATOM     26  O   UNL     1      -4.195  12.316  23.643  0.00  0.00    +0.000 OA
ATOM     27  O   UNL     1      -5.226  12.230  21.357  0.00  0.00    +0.000 OA
BRANCH  25  29
ATOM     28  C   UNL     1      -5.628  14.922  21.342  0.00  0.00    +0.000 C 
ATOM     29  N   UNL     1      -4.752  14.473  22.445  0.00  0.00    +0.000 NA
ATOM     30  C   UNL     1      -5.355  14.823  23.762  0.00  0.00    +0.000 C 
ENDBRANCH  25  29
ENDBRANCH  19  25
ENDBRANCH  18  22
ENDBRANCH   1  18
TORSDOF 8
ENDMDL
MODEL 2
REMARK VINA RESULT:      -7.0      1.859      2.506
REMARK  Name = 
REMARK  10 active torsions:
REMARK  status: ('A' for Active; 'I' for Inactive)
REMARK    1  A    between atoms: C_1  and  N_2
REMARK    2  A    between atoms: N_2  and  C_3
REMARK    3  A    between atoms: N_2  and  S_4
REMARK    4  A    between atoms: S_4  and  N_7
REMARK    5  A    between atoms: C_10  and  O_11
REMARK    6  A    between atoms: O_11  and  C_12
REMARK    7  A    between atoms: C_15  and  C_16
REMARK    8  A    between atoms: N_18  and  C_19
REMARK    9  A    between atoms: C_19  and  C_20
REMARK   10  A    between atoms: C_20  and  C_21
REMARK                            x       y       z     vdW  Elec       q    Type
REMARK                         _______ _______ _______ _____ _____    ______ ____
ROOT
ATOM      1  C   UNL     1       1.097   9.405  19.133  0.00  0.00    +0.000 A 
ATOM      2  C   UNL     1       1.630   9.262  17.853  0.00  0.00    +0.000 A 
ATOM      3  C   UNL     1       2.454   8.158  17.554  0.00  0.00    +0.000 A 
ATOM      4  C   UNL     1       2.793   7.222  18.544  0.00  0.00    +0.000 A 
ATOM      5  C   UNL     1       2.229   7.361  19.810  0.00  0.00    +0.000 A 
ATOM      6  C   UNL     1       1.380   8.431  20.085  0.00  0.00    +0.000 A 
ENDROOT
BRANCH   4   7
ATOM      7  C   UNL     1       3.739   6.101  18.259  0.00  0.00    +0.000 C 
ATOM      8  O   UNL     1       4.064   5.848  17.099  0.00  0.00    +0.000 OA
ATOM      9  N   UNL     1       4.206   5.387  19.348  0.00  0.00    +0.000 N 
ATOM     10  H   UNL     1       3.988   5.688  20.286  0.00  0.00    +0.000 HD
BRANCH   9  11
ATOM     11  C   UNL     1       5.171   4.305  19.198  0.00  0.00    +0.000 C 
BRANCH  11  12
ATOM     12  C   UNL     1       4.610   2.975  19.704  0.00  0.00    +0.000 C 
BRANCH  12  13
ATOM     13  C   UNL     1       3.121   2.903  19.609  0.00  0.00    +0.000 A 
ATOM     14  C   UNL     1       2.385   2.338  18.582  0.00  0.00    +0.000 A 
ATOM     15  S   UNL     1       0.708   2.467  18.913  0.00  0.00    +0.000 S 
ATOM     16  C   UNL     1       1.083   3.268  20.380  0.00  0.00    +0.000 A 
ATOM     17  N   UNL     1       2.361   3.440  20.637  0.00  0.00    +0.000 NA
ENDBRANCH  12  13
ENDBRANCH  11  12
ENDBRANCH   9  11
ENDBRANCH   4   7
BRANCH   1  18
ATOM     18  O   UNL     1       0.249  10.458  19.392  0.00  0.00    +0.000 OA
BRANCH  18  22
ATOM     19  N   UNL     1      -0.671  13.610  20.799  0.00  0.00    +0.000 NA
ATOM     20  C   UNL     1       0.530  12.818  21.182  0.00  0.00    +0.000 C 
ATOM     21  C   UNL     1       1.420  12.596  19.974  0.00  0.00    +0.000 C 
ATOM     22  C   UNL     1       0.682  11.759  18.920  0.00  0.00    +0.000 C 
ATOM     23  C   UNL     1      -0.549  12.576  18.510  0.00  0.00    +0.000 C 
ATOM     24  C   UNL     1      -1.443  12.916  19.711  0.00  0.00    +0.000 C 
BRANCH  19  25
ATOM     25  S   UNL     1      -1.597  13.949  22.212  0.00  0.00    +0.000 S 
ATOM     26  O   UNL     1      -2.403  15.103  21.973  0.00  0.00    +0.000 OA
ATOM     27  O   UNL     1      -0.730  13.870  23.380  0.00  0.00    +0.000 OA
BRANCH  25  29
ATOM     28  C   UNL     1      -2.271  11.650  23.349  0.00  0.00    +0.000 C 
ATOM     29  N   UNL     1      -2.632  12.601  22.277  0.00  0.00    +0.000 NA
ATOM     30  C   UNL     1      -4.072  12.969  22.372  0.00  0.00    +0.000 C 
ENDBRANCH  25  29
ENDBRANCH  19  25
ENDBRANCH  18  22
ENDBRANCH   1  18
TORSDOF 8
ENDMDL
MODEL 3
REMARK VINA RESULT:      -7.0      7.958     10.999
REMARK  Name = 
REMARK  10 active torsions:
REMARK  status: ('A' for Active; 'I' for Inactive)
REMARK    1  A    between atoms: C_1  and  N_2
REMARK    2  A    between atoms: N_2  and  C_3
REMARK    3  A    between atoms: N_2  and  S_4
REMARK    4  A    between atoms: S_4  and  N_7
REMARK    5  A    between atoms: C_10  and  O_11
REMARK    6  A    between atoms: O_11  and  C_12
REMARK    7  A    between atoms: C_15  and  C_16
REMARK    8  A    between atoms: N_18  and  C_19
REMARK    9  A    between atoms: C_19  and  C_20
REMARK   10  A    between atoms: C_20  and  C_21
REMARK                            x       y       z     vdW  Elec       q    Type
REMARK                         _______ _______ _______ _____ _____    ______ ____
ROOT
ATOM      1  C   UNL     1       7.306   6.870  17.587  0.00  0.00    +0.000 A 
ATOM      2  C   UNL     1       8.134   6.772  18.705  0.00  0.00    +0.000 A 
ATOM      3  C   UNL     1       8.759   7.926  19.220  0.00  0.00    +0.000 A 
ATOM      4  C   UNL     1       8.604   9.171  18.592  0.00  0.00    +0.000 A 
ATOM      5  C   UNL     1       7.750   9.261  17.495  0.00  0.00    +0.000 A 
ATOM      6  C   UNL     1       7.102   8.123  17.018  0.00  0.00    +0.000 A 
ENDROOT
BRANCH   4   7
ATOM      7  C   UNL     1       9.335  10.380  19.078  0.00  0.00    +0.000 C 
ATOM      8  O   UNL     1       9.419  10.608  20.285  0.00  0.00    +0.000 OA
ATOM      9  N   UNL     1       9.889  11.204  18.114  0.00  0.00    +0.000 N 
ATOM     10  H   UNL     1       9.877  10.931  17.142  0.00  0.00    +0.000 HD
BRANCH   9  11
ATOM     11  C   UNL     1      10.667  12.384  18.469  0.00  0.00    +0.000 C 
BRANCH  11  12
ATOM     12  C   UNL     1      10.201  13.620  17.698  0.00  0.00    +0.000 C 
BRANCH  12  13
ATOM     13  C   UNL     1       9.077  14.333  18.376  0.00  0.00    +0.000 A 
ATOM     14  C   UNL     1       8.368  15.416  17.884  0.00  0.00    +0.000 A 
ATOM     15  S   UNL     1       7.153  15.885  18.998  0.00  0.00    +0.000 S 
ATOM     16  C   UNL     1       7.663  14.631  20.048  0.00  0.00    +0.000 A 
ATOM     17  N   UNL     1       8.665  13.892  19.625  0.00  0.00    +0.000 NA
ENDBRANCH  12  13
ENDBRANCH  11  12
ENDBRANCH   9  11
ENDBRANCH   4   7
BRANCH   1  18
ATOM     18  O   UNL     1       6.660   5.744  17.131  0.00  0.00    +0.000 OA
BRANCH  18  22
ATOM     19  N   UNL     1       3.786   3.820  18.025  0.00  0.00    +0.000 NA
ATOM     20  C   UNL     1       4.226   5.070  18.703  0.00  0.00    +0.000 C 
ATOM     21  C   UNL     1       4.269   6.218  17.713  0.00  0.00    +0.000 C 
ATOM     22  C   UNL     1       5.315   5.939  16.625  0.00  0.00    +0.000 C 
ATOM     23  C   UNL     1       4.860   4.660  15.912  0.00  0.00    +0.000 C 
ATOM     24  C   UNL     1       4.704   3.482  16.883  0.00  0.00    +0.000 C 
BRANCH  19  25
ATOM     25  S   UNL     1       3.629   2.568  19.197  0.00  0.00    +0.000 S 
ATOM     26  O   UNL     1       4.787   2.565  20.031  0.00  0.00    +0.000 OA
ATOM     27  O   UNL     1       3.178   1.351  18.536  0.00  0.00    +0.000 OA
BRANCH  25  29
ATOM     28  C   UNL     1       1.009   2.775  19.555  0.00  0.00    +0.000 C 
ATOM     29  N   UNL     1       2.323   3.132  20.129  0.00  0.00    +0.000 NA
ATOM     30  C   UNL     1       2.396   2.717  21.558  0.00  0.00    +0.000 C 
ENDBRANCH  25  29
ENDBRANCH  19  25
ENDBRANCH  18  22
ENDBRANCH   1  18
TORSDOF 8
ENDMDL
MODEL 4
REMARK VINA RESULT:      -7.0      1.926      2.369
REMARK  Name = 
REMARK  10 active torsions:
REMARK  status: ('A' for Active; 'I' for Inactive)
REMARK    1  A    between atoms: C_1  and  N_2
REMARK    2  A    between atoms: N_2  and  C_3
REMARK    3  A    between atoms: N_2  and  S_4
REMARK    4  A    between atoms: S_4  and  N_7
REMARK    5  A    between atoms: C_10  and  O_11
REMARK    6  A    between atoms: O_11  and  C_12
REMARK    7  A    between atoms: C_15  and  C_16
REMARK    8  A    between atoms: N_18  and  C_19
REMARK    9  A    between atoms: C_19  and  C_20
REMARK   10  A    between atoms: C_20  and  C_21
REMARK                            x       y       z     vdW  Elec       q    Type
REMARK                         _______ _______ _______ _____ _____    ______ ____
ROOT
ATOM      1  C   UNL     1       1.167   9.323  19.510  0.00  0.00    +0.000 A 
ATOM      2  C   UNL     1       1.559   9.415  18.176  0.00  0.00    +0.000 A 
ATOM      3  C   UNL     1       2.326   8.384  17.596  0.00  0.00    +0.000 A 
ATOM      4  C   UNL     1       2.750   7.285  18.358  0.00  0.00    +0.000 A 
ATOM      5  C   UNL     1       2.326   7.190  19.682  0.00  0.00    +0.000 A 
ATOM      6  C   UNL     1       1.531   8.192  20.235  0.00  0.00    +0.000 A 
ENDROOT
BRANCH   4   7
ATOM      7  C   UNL     1       3.640   6.235  17.776  0.00  0.00    +0.000 C 
ATOM      8  O   UNL     1       4.779   6.525  17.409  0.00  0.00    +0.000 OA
ATOM      9  N   UNL     1       3.116   4.959  17.674  0.00  0.00    +0.000 N 
ATOM     10  H   UNL     1       2.213   4.745  18.072  0.00  0.00    +0.000 HD
BRANCH   9  11
ATOM     11  C   UNL     1       3.907   3.843  17.168  0.00  0.00    +0.000 C 
BRANCH  11  12
ATOM     12  C   UNL     1       3.495   2.521  17.817  0.00  0.00    +0.000 C 
BRANCH  12  13
ATOM     13  C   UNL     1       2.743   2.713  19.093  0.00  0.00    +0.000 A 
ATOM     14  C   UNL     1       3.262   2.662  20.375  0.00  0.00    +0.000 A 
ATOM     15  S   UNL     1       2.030   2.965  21.527  0.00  0.00    +0.000 S 
ATOM     16  C   UNL     1       0.904   3.129  20.246  0.00  0.00    +0.000 A 
ATOM     17  N   UNL     1       1.383   2.977  19.030  0.00  0.00    +0.000 NA
ENDBRANCH  12  13
ENDBRANCH  11  12
ENDBRANCH   9  11
ENDBRANCH   4   7
BRANCH   1  18
ATOM     18  O   UNL     1       0.371  10.311  20.045  0.00  0.00    +0.000 OA
BRANCH  18  22
ATOM     19  N   UNL     1      -0.643  13.574  21.085  0.00  0.00    +0.000 NA
ATOM     20  C   UNL     1       0.762  13.152  20.834  0.00  0.00    +0.000 C 
ATOM     21  C   UNL     1       0.919  12.671  19.404  0.00  0.00    +0.000 C 
ATOM     22  C   UNL     1       0.057  11.423  19.169  0.00  0.00    +0.000 C 
ATOM     23  C   UNL     1      -1.394  11.854  19.411  0.00  0.00    +0.000 C 
ATOM     24  C   UNL     1      -1.596  12.442  20.814  0.00  0.00    +0.000 C 
BRANCH  19  25
ATOM     25  S   UNL     1      -0.761  14.229  22.673  0.00  0.00    +0.000 S 
ATOM     26  O   UNL     1       0.386  15.042  22.926  0.00  0.00    +0.000 OA
ATOM     27  O   UNL     1      -1.149  13.172  23.597  0.00  0.00    +0.000 OA
BRANCH  25  29
ATOM     28  C   UNL     1      -3.154  14.993  23.522  0.00  0.00    +0.000 C 
ATOM     29  N   UNL     1      -2.102  15.264  22.520  0.00  0.00    +0.000 NA
ATOM     30  C   UNL     1      -1.736  16.708  22.528  0.00  0.00    +0.000 C 
ENDBRANCH  25  29
ENDBRANCH  19  25
ENDBRANCH  18  22
ENDBRANCH   1  18
TORSDOF 8
ENDMDL
MODEL 5
REMARK VINA RESULT:      -7.0      0.894      1.403
REMARK  Name = 
REMARK  10 active torsions:
REMARK  status: ('A' for Active; 'I' for Inactive)
REMARK    1  A    between atoms: C_1  and  N_2
REMARK    2  A    between atoms: N_2  and  C_3
REMARK    3  A    between atoms: N_2  and  S_4
REMARK    4  A    between atoms: S_4  and  N_7
REMARK    5  A    between atoms: C_10  and  O_11
REMARK    6  A    between atoms: O_11  and  C_12
REMARK    7  A    between atoms: C_15  and  C_16
REMARK    8  A    between atoms: N_18  and  C_19
REMARK    9  A    between atoms: C_19  and  C_20
REMARK   10  A    between atoms: C_20  and  C_21
REMARK                            x       y       z     vdW  Elec       q    Type
REMARK                         _______ _______ _______ _____ _____    ______ ____
ROOT
ATOM      1  C   UNL     1       0.353   9.631  19.778  0.00  0.00    +0.000 A 
ATOM      2  C   UNL     1       0.717   9.739  18.437  0.00  0.00    +0.000 A 
ATOM      3  C   UNL     1       1.684   8.866  17.898  0.00  0.00    +0.000 A 
ATOM      4  C   UNL     1       2.329   7.917  18.706  0.00  0.00    +0.000 A 
ATOM      5  C   UNL     1       1.934   7.799  20.037  0.00  0.00    +0.000 A 
ATOM      6  C   UNL     1       0.946   8.637  20.551  0.00  0.00    +0.000 A 
ENDROOT
BRANCH   4   7
ATOM      7  C   UNL     1       3.419   7.050  18.164  0.00  0.00    +0.000 C 
ATOM      8  O   UNL     1       3.949   7.326  17.087  0.00  0.00    +0.000 OA
ATOM      9  N   UNL     1       3.779   5.952  18.924  0.00  0.00    +0.000 N 
ATOM     10  H   UNL     1       3.384   5.817  19.843  0.00  0.00    +0.000 HD
BRANCH   9  11
ATOM     11  C   UNL     1       4.862   5.063  18.522  0.00  0.00    +0.000 C 
BRANCH  11  12
ATOM     12  C   UNL     1       4.737   3.688  19.181  0.00  0.00    +0.000 C 
BRANCH  12  13
ATOM     13  C   UNL     1       3.347   3.391  19.638  0.00  0.00    +0.000 A 
ATOM     14  C   UNL     1       2.952   3.060  20.923  0.00  0.00    +0.000 A 
ATOM     15  S   UNL     1       1.255   2.829  20.982  0.00  0.00    +0.000 S 
ATOM     16  C   UNL     1       1.173   3.172  19.305  0.00  0.00    +0.000 A 
ATOM     17  N   UNL     1       2.315   3.449  18.713  0.00  0.00    +0.000 NA
ENDBRANCH  12  13
ENDBRANCH  11  12
ENDBRANCH   9  11
ENDBRANCH   4   7
BRANCH   1  18
ATOM     18  O   UNL     1      -0.632  10.454  20.274  0.00  0.00    +0.000 OA
BRANCH  18  22
ATOM     19  N   UNL     1      -2.574  12.913  21.990  0.00  0.00    +0.000 NA
ATOM     20  C   UNL     1      -1.526  12.058  22.614  0.00  0.00    +0.000 C 
ATOM     21  C   UNL     1      -0.190  12.281  21.931  0.00  0.00    +0.000 C 
ATOM     22  C   UNL     1      -0.269  11.845  20.462  0.00  0.00    +0.000 C 
ATOM     23  C   UNL     1      -1.336  12.732  19.809  0.00  0.00    +0.000 C 
ATOM     24  C   UNL     1      -2.692  12.622  20.519  0.00  0.00    +0.000 C 
BRANCH  19  25
ATOM     25  S   UNL     1      -4.046  12.730  22.865  0.00  0.00    +0.000 S 
ATOM     26  O   UNL     1      -3.809  11.906  24.006  0.00  0.00    +0.000 OA
ATOM     27  O   UNL     1      -5.121  12.424  21.930  0.00  0.00    +0.000 OA
BRANCH  25  29
ATOM     28  C   UNL     1      -3.302  14.761  24.399  0.00  0.00    +0.000 C 
ATOM     29  N   UNL     1      -4.315  14.314  23.420  0.00  0.00    +0.000 NA
ATOM     30  C   UNL     1      -4.449  15.310  22.320  0.00  0.00    +0.000 C 
ENDBRANCH  25  29
ENDBRANCH  19  25
ENDBRANCH  18  22
ENDBRANCH   1  18
TORSDOF 8
ENDMDL
MODEL 6
REMARK VINA RESULT:      -7.0      1.978      2.670
REMARK  Name = 
REMARK  10 active torsions:
REMARK  status: ('A' for Active; 'I' for Inactive)
REMARK    1  A    between atoms: C_1  and  N_2
REMARK    2  A    between atoms: N_2  and  C_3
REMARK    3  A    between atoms: N_2  and  S_4
REMARK    4  A    between atoms: S_4  and  N_7
REMARK    5  A    between atoms: C_10  and  O_11
REMARK    6  A    between atoms: O_11  and  C_12
REMARK    7  A    between atoms: C_15  and  C_16
REMARK    8  A    between atoms: N_18  and  C_19
REMARK    9  A    between atoms: C_19  and  C_20
REMARK   10  A    between atoms: C_20  and  C_21
REMARK                            x       y       z     vdW  Elec       q    Type
REMARK                         _______ _______ _______ _____ _____    ______ ____
ROOT
ATOM      1  C   UNL     1       1.623   9.169  19.317  0.00  0.00    +0.000 A 
ATOM      2  C   UNL     1       2.074   9.242  18.000  0.00  0.00    +0.000 A 
ATOM      3  C   UNL     1       2.712   8.131  17.413  0.00  0.00    +0.000 A 
ATOM      4  C   UNL     1       2.948   6.961  18.152  0.00  0.00    +0.000 A 
ATOM      5  C   UNL     1       2.464   6.891  19.457  0.00  0.00    +0.000 A 
ATOM      6  C   UNL     1       1.796   7.979  20.016  0.00  0.00    +0.000 A 
ENDROOT
BRANCH   4   7
ATOM      7  C   UNL     1       3.703   5.813  17.566  0.00  0.00    +0.000 C 
ATOM      8  O   UNL     1       4.802   6.000  17.042  0.00  0.00    +0.000 OA
ATOM      9  N   UNL     1       3.106   4.568  17.643  0.00  0.00    +0.000 N 
ATOM     10  H   UNL     1       2.250   4.445  18.163  0.00  0.00    +0.000 HD
BRANCH   9  11
ATOM     11  C   UNL     1       3.769   3.367  17.150  0.00  0.00    +0.000 C 
BRANCH  11  12
ATOM     12  C   UNL     1       3.367   2.130  17.955  0.00  0.00    +0.000 C 
BRANCH  12  13
ATOM     13  C   UNL     1       2.684   2.473  19.238  0.00  0.00    +0.000 A 
ATOM     14  C   UNL     1       3.274   2.585  20.485  0.00  0.00    +0.000 A 
ATOM     15  S   UNL     1       2.102   3.020  21.659  0.00  0.00    +0.000 S 
ATOM     16  C   UNL     1       0.905   3.015  20.433  0.00  0.00    +0.000 A 
ATOM     17  N   UNL     1       1.319   2.718  19.220  0.00  0.00    +0.000 NA
ENDBRANCH  12  13
ENDBRANCH  11  12
ENDBRANCH   9  11
ENDBRANCH   4   7
BRANCH   1  18
ATOM     18  O   UNL     1       0.953  10.245  19.856  0.00  0.00    +0.000 OA
BRANCH  18  22
ATOM     19  N   UNL     1      -1.186  12.507  21.607  0.00  0.00    +0.000 NA
ATOM     20  C   UNL     1      -0.954  12.511  20.136  0.00  0.00    +0.000 C 
ATOM     21  C   UNL     1      -1.353  11.174  19.538  0.00  0.00    +0.000 C 
ATOM     22  C   UNL     1      -0.464  10.057  20.102  0.00  0.00    +0.000 C 
ATOM     23  C   UNL     1      -0.709  10.039  21.616  0.00  0.00    +0.000 C 
ATOM     24  C   UNL     1      -0.414  11.397  22.265  0.00  0.00    +0.000 C 
BRANCH  19  25
ATOM     25  S   UNL     1      -0.842  14.074  22.235  0.00  0.00    +0.000 S 
ATOM     26  O   UNL     1      -1.559  15.046  21.474  0.00  0.00    +0.000 OA
ATOM     27  O   UNL     1       0.593  14.197  22.448  0.00  0.00    +0.000 OA
BRANCH  25  29
ATOM     28  C   UNL     1      -1.254  15.168  24.616  0.00  0.00    +0.000 C 
ATOM     29  N   UNL     1      -1.561  13.992  23.774  0.00  0.00    +0.000 NA
ATOM     30  C   UNL     1      -3.031  13.757  23.726  0.00  0.00    +0.000 C 
ENDBRANCH  25  29
ENDBRANCH  19  25
ENDBRANCH  18  22
ENDBRANCH   1  18
TORSDOF 8
ENDMDL
MODEL 7
REMARK VINA RESULT:      -7.0      1.726      2.064
REMARK  Name = 
REMARK  10 active torsions:
REMARK  status: ('A' for Active; 'I' for Inactive)
REMARK    1  A    between atoms: C_1  and  N_2
REMARK    2  A    between atoms: N_2  and  C_3
REMARK    3  A    between atoms: N_2  and  S_4
REMARK    4  A    between atoms: S_4  and  N_7
REMARK    5  A    between atoms: C_10  and  O_11
REMARK    6  A    between atoms: O_11  and  C_12
REMARK    7  A    between atoms: C_15  and  C_16
REMARK    8  A    between atoms: N_18  and  C_19
REMARK    9  A    between atoms: C_19  and  C_20
REMARK   10  A    between atoms: C_20  and  C_21
REMARK                            x       y       z     vdW  Elec       q    Type
REMARK                         _______ _______ _______ _____ _____    ______ ____
ROOT
ATOM      1  C   UNL     1       1.209   9.303  19.171  0.00  0.00    +0.000 A 
ATOM      2  C   UNL     1       1.490   8.262  20.054  0.00  0.00    +0.000 A 
ATOM      3  C   UNL     1       2.364   7.226  19.665  0.00  0.00    +0.000 A 
ATOM      4  C   UNL     1       2.919   7.198  18.376  0.00  0.00    +0.000 A 
ATOM      5  C   UNL     1       2.654   8.260  17.514  0.00  0.00    +0.000 A 
ATOM      6  C   UNL     1       1.824   9.302  17.922  0.00  0.00    +0.000 A 
ENDROOT
BRANCH   4   7
ATOM      7  C   UNL     1       3.772   6.057  17.925  0.00  0.00    +0.000 C 
ATOM      8  O   UNL     1       4.998   6.168  17.917  0.00  0.00    +0.000 OA
ATOM      9  N   UNL     1       3.116   4.907  17.524  0.00  0.00    +0.000 N 
ATOM     10  H   UNL     1       2.116   4.826  17.635  0.00  0.00    +0.000 HD
BRANCH   9  11
ATOM     11  C   UNL     1       3.843   3.713  17.111  0.00  0.00    +0.000 C 
BRANCH  11  12
ATOM     12  C   UNL     1       3.995   2.718  18.263  0.00  0.00    +0.000 C 
BRANCH  12  13
ATOM     13  C   UNL     1       2.881   2.807  19.253  0.00  0.00    +0.000 A 
ATOM     14  C   UNL     1       3.002   2.919  20.628  0.00  0.00    +0.000 A 
ATOM     15  S   UNL     1       1.453   3.014  21.356  0.00  0.00    +0.000 S 
ATOM     16  C   UNL     1       0.741   2.888  19.802  0.00  0.00    +0.000 A 
ATOM     17  N   UNL     1       1.574   2.786  18.789  0.00  0.00    +0.000 NA
ENDBRANCH  12  13
ENDBRANCH  11  12
ENDBRANCH   9  11
ENDBRANCH   4   7
BRANCH   1  18
ATOM     18  O   UNL     1       0.398  10.335  19.587  0.00  0.00    +0.000 OA
BRANCH  18  22
ATOM     19  N   UNL     1      -1.763  13.143  20.040  0.00  0.00    +0.000 NA
ATOM     20  C   UNL     1      -0.315  13.111  20.385  0.00  0.00    +0.000 C 
ATOM     21  C   UNL     1       0.512  12.801  19.152  0.00  0.00    +0.000 C 
ATOM     22  C   UNL     1       0.174  11.399  18.627  0.00  0.00    +0.000 C 
ATOM     23  C   UNL     1      -1.314  11.429  18.256  0.00  0.00    +0.000 C 
ATOM     24  C   UNL     1      -2.198  11.832  19.444  0.00  0.00    +0.000 C 
BRANCH  19  25
ATOM     25  S   UNL     1      -2.663  13.618  21.430  0.00  0.00    +0.000 S 
ATOM     26  O   UNL     1      -3.878  12.870  21.473  0.00  0.00    +0.000 OA
ATOM     27  O   UNL     1      -2.674  15.072  21.516  0.00  0.00    +0.000 OA
BRANCH  25  29
ATOM     28  C   UNL     1      -1.464  14.067  23.752  0.00  0.00    +0.000 C 
ATOM     29  N   UNL     1      -1.669  13.059  22.691  0.00  0.00    +0.000 NA
ATOM     30  C   UNL     1      -2.131  11.771  23.280  0.00  0.00    +0.000 C 
ENDBRANCH  25  29
ENDBRANCH  19  25
ENDBRANCH  18  22
ENDBRANCH   1  18
TORSDOF 8
ENDMDL
MODEL 8
REMARK VINA RESULT:      -7.0      1.940      2.477
REMARK  Name = 
REMARK  10 active torsions:
REMARK  status: ('A' for Active; 'I' for Inactive)
REMARK    1  A    between atoms: C_1  and  N_2
REMARK    2  A    between atoms: N_2  and  C_3
REMARK    3  A    between atoms: N_2  and  S_4
REMARK    4  A    between atoms: S_4  and  N_7
REMARK    5  A    between atoms: C_10  and  O_11
REMARK    6  A    between atoms: O_11  and  C_12
REMARK    7  A    between atoms: C_15  and  C_16
REMARK    8  A    between atoms: N_18  and  C_19
REMARK    9  A    between atoms: C_19  and  C_20
REMARK   10  A    between atoms: C_20  and  C_21
REMARK                            x       y       z     vdW  Elec       q    Type
REMARK                         _______ _______ _______ _____ _____    ______ ____
ROOT
ATOM      1  C   UNL     1       1.127   9.437  19.370  0.00  0.00    +0.000 A 
ATOM      2  C   UNL     1       1.702   9.403  18.101  0.00  0.00    +0.000 A 
ATOM      3  C   UNL     1       2.523   8.319  17.729  0.00  0.00    +0.000 A 
ATOM      4  C   UNL     1       2.816   7.292  18.640  0.00  0.00    +0.000 A 
ATOM      5  C   UNL     1       2.210   7.322  19.894  0.00  0.00    +0.000 A 
ATOM      6  C   UNL     1       1.365   8.376  20.238  0.00  0.00    +0.000 A 
ENDROOT
BRANCH   4   7
ATOM      7  C   UNL     1       3.758   6.187  18.285  0.00  0.00    +0.000 C 
ATOM      8  O   UNL     1       4.094   6.015  17.113  0.00  0.00    +0.000 OA
ATOM      9  N   UNL     1       4.209   5.393  19.324  0.00  0.00    +0.000 N 
ATOM     10  H   UNL     1       3.982   5.628  20.280  0.00  0.00    +0.000 HD
BRANCH   9  11
ATOM     11  C   UNL     1       5.168   4.317  19.107  0.00  0.00    +0.000 C 
BRANCH  11  12
ATOM     12  C   UNL     1       4.647   2.981  19.638  0.00  0.00    +0.000 C 
BRANCH  12  13
ATOM     13  C   UNL     1       3.160   2.868  19.555  0.00  0.00    +0.000 A 
ATOM     14  C   UNL     1       2.428   2.340  18.505  0.00  0.00    +0.000 A 
ATOM     15  S   UNL     1       0.752   2.397  18.862  0.00  0.00    +0.000 S 
ATOM     16  C   UNL     1       1.121   3.123  20.370  0.00  0.00    +0.000 A 
ATOM     17  N   UNL     1       2.397   3.319  20.622  0.00  0.00    +0.000 NA
ENDBRANCH  12  13
ENDBRANCH  11  12
ENDBRANCH   9  11
ENDBRANCH   4   7
BRANCH   1  18
ATOM     18  O   UNL     1       0.284  10.475  19.696  0.00  0.00    +0.000 OA
BRANCH  18  22
ATOM     19  N   UNL     1      -1.696  13.431  20.018  0.00  0.00    +0.000 NA
ATOM     20  C   UNL     1      -0.229  13.350  20.263  0.00  0.00    +0.000 C 
ATOM     21  C   UNL     1       0.487  12.878  19.011  0.00  0.00    +0.000 C 
ATOM     22  C   UNL     1       0.040  11.453  18.654  0.00  0.00    +0.000 C 
ATOM     23  C   UNL     1      -1.468  11.532  18.387  0.00  0.00    +0.000 C 
ATOM     24  C   UNL     1      -2.238  12.096  19.587  0.00  0.00    +0.000 C 
BRANCH  19  25
ATOM     25  S   UNL     1      -2.464  14.087  21.414  0.00  0.00    +0.000 S 
ATOM     26  O   UNL     1      -3.807  13.607  21.473  0.00  0.00    +0.000 OA
ATOM     27  O   UNL     1      -2.174  15.512  21.492  0.00  0.00    +0.000 OA
BRANCH  25  29
ATOM     28  C   UNL     1      -1.287  14.260  23.784  0.00  0.00    +0.000 C 
ATOM     29  N   UNL     1      -1.594  13.340  22.669  0.00  0.00    +0.000 NA
ATOM     30  C   UNL     1      -2.244  12.101  23.182  0.00  0.00    +0.000 C 
ENDBRANCH  25  29
ENDBRANCH  19  25
ENDBRANCH  18  22
ENDBRANCH   1  18
TORSDOF 8
ENDMDL
MODEL 9
REMARK VINA RESULT:      -6.9      1.454      1.943
REMARK  Name = 
REMARK  10 active torsions:
REMARK  status: ('A' for Active; 'I' for Inactive)
REMARK    1  A    between atoms: C_1  and  N_2
REMARK    2  A    between atoms: N_2  and  C_3
REMARK    3  A    between atoms: N_2  and  S_4
REMARK    4  A    between atoms: S_4  and  N_7
REMARK    5  A    between atoms: C_10  and  O_11
REMARK    6  A    between atoms: O_11  and  C_12
REMARK    7  A    between atoms: C_15  and  C_16
REMARK    8  A    between atoms: N_18  and  C_19
REMARK    9  A    between atoms: C_19  and  C_20
REMARK   10  A    between atoms: C_20  and  C_21
REMARK                            x       y       z     vdW  Elec       q    Type
REMARK                         _______ _______ _______ _____ _____    ______ ____
ROOT
ATOM      1  C   UNL     1       1.187   9.067  19.574  0.00  0.00    +0.000 A 
ATOM      2  C   UNL     1       1.686   9.076  18.272  0.00  0.00    +0.000 A 
ATOM      3  C   UNL     1       2.479   8.004  17.816  0.00  0.00    +0.000 A 
ATOM      4  C   UNL     1       2.820   6.945  18.671  0.00  0.00    +0.000 A 
ATOM      5  C   UNL     1       2.290   6.933  19.959  0.00  0.00    +0.000 A 
ATOM      6  C   UNL     1       1.471   7.976  20.389  0.00  0.00    +0.000 A 
ENDROOT
BRANCH   4   7
ATOM      7  C   UNL     1       3.735   5.851  18.224  0.00  0.00    +0.000 C 
ATOM      8  O   UNL     1       4.943   5.925  18.451  0.00  0.00    +0.000 OA
ATOM      9  N   UNL     1       3.156   4.788  17.555  0.00  0.00    +0.000 N 
ATOM     10  H   UNL     1       2.152   4.723  17.473  0.00  0.00    +0.000 HD
BRANCH   9  11
ATOM     11  C   UNL     1       3.940   3.640  17.115  0.00  0.00    +0.000 C 
BRANCH  11  12
ATOM     12  C   UNL     1       3.548   2.367  17.866  0.00  0.00    +0.000 C 
BRANCH  12  13
ATOM     13  C   UNL     1       2.772   2.648  19.111  0.00  0.00    +0.000 A 
ATOM     14  C   UNL     1       3.265   2.678  20.404  0.00  0.00    +0.000 A 
ATOM     15  S   UNL     1       2.012   3.064  21.508  0.00  0.00    +0.000 S 
ATOM     16  C   UNL     1       0.913   3.150  20.197  0.00  0.00    +0.000 A 
ATOM     17  N   UNL     1       1.415   2.916  19.003  0.00  0.00    +0.000 NA
ENDBRANCH  12  13
ENDBRANCH  11  12
ENDBRANCH   9  11
ENDBRANCH   4   7
BRANCH   1  18
ATOM     18  O   UNL     1       0.368  10.095  19.985  0.00  0.00    +0.000 OA
BRANCH  18  22
ATOM     19  N   UNL     1      -1.262  12.948  21.386  0.00  0.00    +0.000 NA
ATOM     20  C   UNL     1      -1.467  11.540  21.827  0.00  0.00    +0.000 C 
ATOM     21  C   UNL     1      -0.153  10.938  22.287  0.00  0.00    +0.000 C 
ATOM     22  C   UNL     1       0.837  10.872  21.116  0.00  0.00    +0.000 C 
ATOM     23  C   UNL     1       1.064  12.321  20.665  0.00  0.00    +0.000 C 
ATOM     24  C   UNL     1      -0.248  13.017  20.278  0.00  0.00    +0.000 C 
BRANCH  19  25
ATOM     25  S   UNL     1      -2.788  13.641  20.988  0.00  0.00    +0.000 S 
ATOM     26  O   UNL     1      -3.420  12.834  19.994  0.00  0.00    +0.000 OA
ATOM     27  O   UNL     1      -2.624  15.076  20.796  0.00  0.00    +0.000 OA
BRANCH  25  29
ATOM     28  C   UNL     1      -3.631  14.642  23.295  0.00  0.00    +0.000 C 
ATOM     29  N   UNL     1      -3.648  13.436  22.441  0.00  0.00    +0.000 NA
ATOM     30  C   UNL     1      -5.046  12.962  22.237  0.00  0.00    +0.000 C 
ENDBRANCH  25  29
ENDBRANCH  19  25
ENDBRANCH  18  22
ENDBRANCH   1  18
TORSDOF 8
ENDMDL
