MODEL 1
REMARK VINA RESULT:      -7.3      0.000      0.000
REMARK  Name = 
REMARK  18 active torsions:
REMARK  status: ('A' for Active; 'I' for Inactive)
REMARK    1  A    between atoms: C_1  and  O_2
REMARK    2  A    between atoms: O_2  and  C_3
REMARK    3  A    between atoms: C_3  and  C_5
REMARK    4  A    between atoms: C_5  and  C_6
REMARK    5  A    between atoms: C_5  and  N_7
REMARK    6  A    between atoms: N_7  and  C_8
REMARK    7  A    between atoms: C_10  and  C_11
REMARK    8  A    between atoms: C_11  and  S_12
REMARK    9  A    between atoms: S_12  and  C_15
REMARK   10  A    between atoms: C_16  and  C_17
REMARK   11  A    between atoms: C_18  and  O_19
REMARK   12  A    between atoms: O_19  and  C_20
REMARK   13  A    between atoms: C_22  and  O_23
REMARK   14  A    between atoms: O_23  and  C_24
REMARK   15  A    between atoms: C_26  and  O_27
REMARK   16  A    between atoms: O_27  and  C_28
REMARK   17  A    between atoms: C_31  and  O_32
REMARK   18  A    between atoms: O_32  and  C_33
REMARK                            x       y       z     vdW  Elec       q    Type
REMARK                         _______ _______ _______ _____ _____    ______ ____
ROOT
ATOM      1  C   UNL     1       3.603   2.498  20.280  0.00  0.00    +0.000 C 
ENDROOT
BRANCH   1   4
ATOM      2  C   UNL     1       5.843   4.289  17.764  0.00  0.00    +0.000 A 
ATOM      3  C   UNL     1       5.268   3.905  18.980  0.00  0.00    +0.000 A 
ATOM      4  C   UNL     1       4.052   3.194  19.025  0.00  0.00    +0.000 A 
ATOM      5  C   UNL     1       3.320   3.002  17.845  0.00  0.00    +0.000 A 
ATOM      6  C   UNL     1       3.919   3.271  16.627  0.00  0.00    +0.000 A 
ATOM      7  C   UNL     1       5.220   3.781  16.609  0.00  0.00    +0.000 A 
BRANCH   2   8
ATOM      8  N   UNL     1       7.080   4.952  17.763  0.00  0.00    +0.000 N 
ATOM      9  H   UNL     1       7.874   4.320  17.791  0.00  0.00    +0.000 HD
BRANCH   8  10
ATOM     10  C   UNL     1       7.285   6.128  18.656  0.00  0.00    +0.000 C 
ATOM     11  C   UNL     1       8.284   5.768  19.759  0.00  0.00    +0.000 C 
BRANCH  10  12
ATOM     12  C   UNL     1       7.822   7.363  17.907  0.00  0.00    +0.000 C 
ATOM     13  O   UNL     1       7.573   7.582  16.718  0.00  0.00    +0.000 OA
BRANCH  12  15
ATOM     14  C   UNL     1       8.562   9.578  18.349  0.00  0.00    +0.000 C 
ATOM     15  O   UNL     1       8.550   8.192  18.699  0.00  0.00    +0.000 OA
ENDBRANCH  12  15
ENDBRANCH  10  12
ENDBRANCH   8  10
ENDBRANCH   2   8
BRANCH   7  16
ATOM     16  O   UNL     1       5.925   3.569  15.446  0.00  0.00    +0.000 OA
ATOM     17  C   UNL     1       5.622   4.648  14.540  0.00  0.00    +0.000 C 
ENDBRANCH   7  16
ENDBRANCH   1   4
BRANCH   1  18
ATOM     18  S   UNL     1       2.051   3.260  20.830  0.00  0.00    +0.000 S 
ATOM     19  O   UNL     1       0.932   2.499  20.303  0.00  0.00    +0.000 OA
ATOM     20  O   UNL     1       2.157   3.543  22.251  0.00  0.00    +0.000 OA
BRANCH  18  21
ATOM     21  C   UNL     1       2.074   4.791  19.999  0.00  0.00    +0.000 C 
ATOM     22  C   UNL     1       1.777   5.910  20.675  0.00  0.00    +0.000 C 
BRANCH  22  23
ATOM     23  C   UNL     1       1.759   7.237  20.046  0.00  0.00    +0.000 A 
ATOM     24  C   UNL     1       2.374   7.455  18.789  0.00  0.00    +0.000 A 
ATOM     25  C   UNL     1       2.319   8.718  18.183  0.00  0.00    +0.000 A 
ATOM     26  C   UNL     1       1.634   9.773  18.769  0.00  0.00    +0.000 A 
ATOM     27  C   UNL     1       1.036   9.578  20.007  0.00  0.00    +0.000 A 
ATOM     28  C   UNL     1       1.094   8.329  20.654  0.00  0.00    +0.000 A 
BRANCH  24  29
ATOM     29  O   UNL     1       3.120   6.577  18.043  0.00  0.00    +0.000 OA
ATOM     30  C   UNL     1       4.024   7.099  17.087  0.00  0.00    +0.000 C 
ENDBRANCH  24  29
BRANCH  26  31
ATOM     31  O   UNL     1       1.642  10.942  18.061  0.00  0.00    +0.000 OA
ATOM     32  C   UNL     1       1.980  12.111  18.799  0.00  0.00    +0.000 C 
ENDBRANCH  26  31
BRANCH  28  33
ATOM     33  O   UNL     1       0.360   8.330  21.815  0.00  0.00    +0.000 OA
ATOM     34  C   UNL     1      -0.282   9.531  22.218  0.00  0.00    +0.000 C 
ENDBRANCH  28  33
ENDBRANCH  22  23
ENDBRANCH  18  21
ENDBRANCH   1  18
TORSDOF 12
ENDMDL
MODEL 2
REMARK VINA RESULT:      -7.0      4.277      6.573
REMARK  Name = 
REMARK  18 active torsions:
REMARK  status: ('A' for Active; 'I' for Inactive)
REMARK    1  A    between atoms: C_1  and  O_2
REMARK    2  A    between atoms: O_2  and  C_3
REMARK    3  A    between atoms: C_3  and  C_5
REMARK    4  A    between atoms: C_5  and  C_6
REMARK    5  A    between atoms: C_5  and  N_7
REMARK    6  A    between atoms: N_7  and  C_8
REMARK    7  A    between atoms: C_10  and  C_11
REMARK    8  A    between atoms: C_11  and  S_12
REMARK    9  A    between atoms: S_12  and  C_15
REMARK   10  A    between atoms: C_16  and  C_17
REMARK   11  A    between atoms: C_18  and  O_19
REMARK   12  A    between atoms: O_19  and  C_20
REMARK   13  A    between atoms: C_22  and  O_23
REMARK   14  A    between atoms: O_23  and  C_24
REMARK   15  A    between atoms: C_26  and  O_27
REMARK   16  A    between atoms: O_27  and  C_28
REMARK   17  A    between atoms: C_31  and  O_32
REMARK   18  A    between atoms: O_32  and  C_33
REMARK                            x       y       z     vdW  Elec       q    Type
REMARK                         _______ _______ _______ _____ _____    ______ ____
ROOT
ATOM      1  C   UNL     1       1.476   8.561  17.599  0.00  0.00    +0.000 C 
ENDROOT
BRANCH   1   4
ATOM      2  C   UNL     1       3.370   5.856  19.509  0.00  0.00    +0.000 A 
ATOM      3  C   UNL     1       2.430   6.848  19.209  0.00  0.00    +0.000 A 
ATOM      4  C   UNL     1       2.613   7.728  18.124  0.00  0.00    +0.000 A 
ATOM      5  C   UNL     1       3.826   7.720  17.425  0.00  0.00    +0.000 A 
ATOM      6  C   UNL     1       4.717   6.682  17.628  0.00  0.00    +0.000 A 
ATOM      7  C   UNL     1       4.406   5.696  18.570  0.00  0.00    +0.000 A 
BRANCH   2   8
ATOM      8  N   UNL     1       3.126   4.968  20.568  0.00  0.00    +0.000 N 
ATOM      9  H   UNL     1       3.824   5.017  21.302  0.00  0.00    +0.000 HD
BRANCH   8  10
ATOM     10  C   UNL     1       2.741   3.558  20.271  0.00  0.00    +0.000 C 
ATOM     11  C   UNL     1       2.523   2.799  21.583  0.00  0.00    +0.000 C 
BRANCH  10  12
ATOM     12  C   UNL     1       1.451   3.451  19.435  0.00  0.00    +0.000 C 
ATOM     13  O   UNL     1       0.326   3.577  19.926  0.00  0.00    +0.000 OA
BRANCH  12  15
ATOM     14  C   UNL     1       2.456   2.096  17.762  0.00  0.00    +0.000 C 
ATOM     15  O   UNL     1       1.689   3.250  18.113  0.00  0.00    +0.000 OA
ENDBRANCH  12  15
ENDBRANCH  10  12
ENDBRANCH   8  10
ENDBRANCH   2   8
BRANCH   7  16
ATOM     16  O   UNL     1       5.034   4.484  18.391  0.00  0.00    +0.000 OA
ATOM     17  C   UNL     1       5.228   4.290  16.976  0.00  0.00    +0.000 C 
ENDBRANCH   7  16
ENDBRANCH   1   4
BRANCH   1  18
ATOM     18  S   UNL     1       1.061   9.810  18.847  0.00  0.00    +0.000 S 
ATOM     19  O   UNL     1       1.233   9.238  20.171  0.00  0.00    +0.000 OA
ATOM     20  O   UNL     1       1.712  11.057  18.483  0.00  0.00    +0.000 OA
BRANCH  18  21
ATOM     21  C   UNL     1      -0.648  10.033  18.597  0.00  0.00    +0.000 C 
ATOM     22  C   UNL     1      -1.116  11.257  18.314  0.00  0.00    +0.000 C 
BRANCH  22  23
ATOM     23  C   UNL     1      -2.544  11.533  18.103  0.00  0.00    +0.000 A 
ATOM     24  C   UNL     1      -3.161  11.263  16.858  0.00  0.00    +0.000 A 
ATOM     25  C   UNL     1      -4.532  11.496  16.681  0.00  0.00    +0.000 A 
ATOM     26  C   UNL     1      -5.328  11.956  17.721  0.00  0.00    +0.000 A 
ATOM     27  C   UNL     1      -4.736  12.237  18.944  0.00  0.00    +0.000 A 
ATOM     28  C   UNL     1      -3.357  12.036  19.147  0.00  0.00    +0.000 A 
BRANCH  24  29
ATOM     29  O   UNL     1      -2.576  10.833  15.693  0.00  0.00    +0.000 OA
ATOM     30  C   UNL     1      -3.389  10.208  14.717  0.00  0.00    +0.000 C 
ENDBRANCH  24  29
BRANCH  26  31
ATOM     31  O   UNL     1      -6.650  12.120  17.417  0.00  0.00    +0.000 OA
ATOM     32  C   UNL     1      -7.433  12.792  18.398  0.00  0.00    +0.000 C 
ENDBRANCH  26  31
BRANCH  28  33
ATOM     33  O   UNL     1      -2.999  12.285  20.450  0.00  0.00    +0.000 OA
ATOM     34  C   UNL     1      -3.488  13.459  21.082  0.00  0.00    +0.000 C 
ENDBRANCH  28  33
ENDBRANCH  22  23
ENDBRANCH  18  21
ENDBRANCH   1  18
TORSDOF 12
ENDMDL
MODEL 3
REMARK VINA RESULT:      -6.9      2.474      4.150
REMARK  Name = 
REMARK  18 active torsions:
REMARK  status: ('A' for Active; 'I' for Inactive)
REMARK    1  A    between atoms: C_1  and  O_2
REMARK    2  A    between atoms: O_2  and  C_3
REMARK    3  A    between atoms: C_3  and  C_5
REMARK    4  A    between atoms: C_5  and  C_6
REMARK    5  A    between atoms: C_5  and  N_7
REMARK    6  A    between atoms: N_7  and  C_8
REMARK    7  A    between atoms: C_10  and  C_11
REMARK    8  A    between atoms: C_11  and  S_12
REMARK    9  A    between atoms: S_12  and  C_15
REMARK   10  A    between atoms: C_16  and  C_17
REMARK   11  A    between atoms: C_18  and  O_19
REMARK   12  A    between atoms: O_19  and  C_20
REMARK   13  A    between atoms: C_22  and  O_23
REMARK   14  A    between atoms: O_23  and  C_24
REMARK   15  A    between atoms: C_26  and  O_27
REMARK   16  A    between atoms: O_27  and  C_28
REMARK   17  A    between atoms: C_31  and  O_32
REMARK   18  A    between atoms: O_32  and  C_33
REMARK                            x       y       z     vdW  Elec       q    Type
REMARK                         _______ _______ _______ _____ _____    ______ ____
ROOT
ATOM      1  C   UNL     1       1.595   6.084  18.127  0.00  0.00    +0.000 C 
ENDROOT
BRANCH   1   4
ATOM      2  C   UNL     1       4.088   3.341  17.217  0.00  0.00    +0.000 A 
ATOM      3  C   UNL     1       3.447   4.585  17.252  0.00  0.00    +0.000 A 
ATOM      4  C   UNL     1       2.151   4.728  17.784  0.00  0.00    +0.000 A 
ATOM      5  C   UNL     1       1.420   3.587  18.142  0.00  0.00    +0.000 A 
ATOM      6  C   UNL     1       2.068   2.368  18.222  0.00  0.00    +0.000 A 
ATOM      7  C   UNL     1       3.424   2.297  17.889  0.00  0.00    +0.000 A 
BRANCH   2   8
ATOM      8  N   UNL     1       5.398   3.251  16.725  0.00  0.00    +0.000 N 
ATOM      9  H   UNL     1       5.962   2.559  17.208  0.00  0.00    +0.000 HD
BRANCH   8  10
ATOM     10  C   UNL     1       6.172   4.499  16.461  0.00  0.00    +0.000 C 
ATOM     11  C   UNL     1       7.414   4.532  17.355  0.00  0.00    +0.000 C 
BRANCH  10  12
ATOM     12  C   UNL     1       6.633   4.619  14.995  0.00  0.00    +0.000 C 
ATOM     13  O   UNL     1       7.610   5.293  14.656  0.00  0.00    +0.000 OA
BRANCH  12  15
ATOM     14  C   UNL     1       6.392   3.708  12.813  0.00  0.00    +0.000 C 
ATOM     15  O   UNL     1       5.884   3.876  14.139  0.00  0.00    +0.000 OA
ENDBRANCH  12  15
ENDBRANCH  10  12
ENDBRANCH   8  10
ENDBRANCH   2   8
BRANCH   7  16
ATOM     16  O   UNL     1       4.116   1.240  18.436  0.00  0.00    +0.000 OA
ATOM     17  C   UNL     1       4.498   1.606  19.776  0.00  0.00    +0.000 C 
ENDBRANCH   7  16
ENDBRANCH   1   4
BRANCH   1  18
ATOM     18  S   UNL     1       2.346   6.629  19.685  0.00  0.00    +0.000 S 
ATOM     19  O   UNL     1       1.722   5.920  20.790  0.00  0.00    +0.000 OA
ATOM     20  O   UNL     1       3.790   6.634  19.523  0.00  0.00    +0.000 OA
BRANCH  18  21
ATOM     21  C   UNL     1       1.836   8.292  19.782  0.00  0.00    +0.000 C 
ATOM     22  C   UNL     1       0.543   8.570  20.000  0.00  0.00    +0.000 C 
BRANCH  22  23
ATOM     23  C   UNL     1       0.029   9.944  20.081  0.00  0.00    +0.000 A 
ATOM     24  C   UNL     1      -0.658  10.530  18.990  0.00  0.00    +0.000 A 
ATOM     25  C   UNL     1      -1.176  11.829  19.094  0.00  0.00    +0.000 A 
ATOM     26  C   UNL     1      -1.066  12.560  20.268  0.00  0.00    +0.000 A 
ATOM     27  C   UNL     1      -0.385  12.004  21.343  0.00  0.00    +0.000 A 
ATOM     28  C   UNL     1       0.167  10.712  21.263  0.00  0.00    +0.000 A 
BRANCH  24  29
ATOM     29  O   UNL     1      -0.863  10.011  17.736  0.00  0.00    +0.000 OA
ATOM     30  C   UNL     1      -2.089  10.283  17.083  0.00  0.00    +0.000 C 
ENDBRANCH  24  29
BRANCH  26  31
ATOM     31  O   UNL     1      -1.632  13.803  20.238  0.00  0.00    +0.000 OA
ATOM     32  C   UNL     1      -2.737  14.003  21.113  0.00  0.00    +0.000 C 
ENDBRANCH  26  31
BRANCH  28  33
ATOM     33  O   UNL     1       0.711  10.323  22.463  0.00  0.00    +0.000 OA
ATOM     34  C   UNL     1      -0.089   9.572  23.366  0.00  0.00    +0.000 C 
ENDBRANCH  28  33
ENDBRANCH  22  23
ENDBRANCH  18  21
ENDBRANCH   1  18
TORSDOF 12
ENDMDL
MODEL 4
REMARK VINA RESULT:      -6.8      4.024      6.409
REMARK  Name = 
REMARK  18 active torsions:
REMARK  status: ('A' for Active; 'I' for Inactive)
REMARK    1  A    between atoms: C_1  and  O_2
REMARK    2  A    between atoms: O_2  and  C_3
REMARK    3  A    between atoms: C_3  and  C_5
REMARK    4  A    between atoms: C_5  and  C_6
REMARK    5  A    between atoms: C_5  and  N_7
REMARK    6  A    between atoms: N_7  and  C_8
REMARK    7  A    between atoms: C_10  and  C_11
REMARK    8  A    between atoms: C_11  and  S_12
REMARK    9  A    between atoms: S_12  and  C_15
REMARK   10  A    between atoms: C_16  and  C_17
REMARK   11  A    between atoms: C_18  and  O_19
REMARK   12  A    between atoms: O_19  and  C_20
REMARK   13  A    between atoms: C_22  and  O_23
REMARK   14  A    between atoms: O_23  and  C_24
REMARK   15  A    between atoms: C_26  and  O_27
REMARK   16  A    between atoms: O_27  and  C_28
REMARK   17  A    between atoms: C_31  and  O_32
REMARK   18  A    between atoms: O_32  and  C_33
REMARK                            x       y       z     vdW  Elec       q    Type
REMARK                         _______ _______ _______ _____ _____    ______ ____
ROOT
ATOM      1  C   UNL     1       1.344   8.030  17.686  0.00  0.00    +0.000 C 
ENDROOT
BRANCH   1   4
ATOM      2  C   UNL     1       3.627   5.099  18.559  0.00  0.00    +0.000 A 
ATOM      3  C   UNL     1       2.531   5.970  18.574  0.00  0.00    +0.000 A 
ATOM      4  C   UNL     1       2.593   7.237  17.962  0.00  0.00    +0.000 A 
ATOM      5  C   UNL     1       3.816   7.707  17.465  0.00  0.00    +0.000 A 
ATOM      6  C   UNL     1       4.876   6.827  17.338  0.00  0.00    +0.000 A 
ATOM      7  C   UNL     1       4.714   5.505  17.762  0.00  0.00    +0.000 A 
BRANCH   2   8
ATOM      8  N   UNL     1       3.507   3.827  19.137  0.00  0.00    +0.000 N 
ATOM      9  H   UNL     1       4.390   3.449  19.463  0.00  0.00    +0.000 HD
BRANCH   8  10
ATOM     10  C   UNL     1       2.684   2.785  18.457  0.00  0.00    +0.000 C 
ATOM     11  C   UNL     1       3.542   1.543  18.196  0.00  0.00    +0.000 C 
BRANCH  10  12
ATOM     12  C   UNL     1       1.457   2.355  19.285  0.00  0.00    +0.000 C 
ATOM     13  O   UNL     1       0.314   2.331  18.819  0.00  0.00    +0.000 OA
BRANCH  12  15
ATOM     14  C   UNL     1       1.380   2.844  21.609  0.00  0.00    +0.000 C 
ATOM     15  O   UNL     1       1.776   1.971  20.548  0.00  0.00    +0.000 OA
ENDBRANCH  12  15
ENDBRANCH  10  12
ENDBRANCH   8  10
ENDBRANCH   2   8
BRANCH   7  16
ATOM     16  O   UNL     1       5.565   4.588  17.187  0.00  0.00    +0.000 OA
ATOM     17  C   UNL     1       5.083   4.309  15.858  0.00  0.00    +0.000 C 
ENDBRANCH   7  16
ENDBRANCH   1   4
BRANCH   1  18
ATOM     18  S   UNL     1       1.243   9.374  18.899  0.00  0.00    +0.000 S 
ATOM     19  O   UNL     1       1.604   8.863  20.210  0.00  0.00    +0.000 OA
ATOM     20  O   UNL     1       1.906  10.543  18.345  0.00  0.00    +0.000 OA
BRANCH  18  21
ATOM     21  C   UNL     1      -0.464   9.721  18.929  0.00  0.00    +0.000 C 
ATOM     22  C   UNL     1      -0.929  10.790  18.267  0.00  0.00    +0.000 C 
BRANCH  22  23
ATOM     23  C   UNL     1      -2.351  11.159  18.254  0.00  0.00    +0.000 A 
ATOM     24  C   UNL     1      -3.229  10.639  17.273  0.00  0.00    +0.000 A 
ATOM     25  C   UNL     1      -4.591  10.970  17.293  0.00  0.00    +0.000 A 
ATOM     26  C   UNL     1      -5.124  11.779  18.287  0.00  0.00    +0.000 A 
ATOM     27  C   UNL     1      -4.274  12.307  19.249  0.00  0.00    +0.000 A 
ATOM     28  C   UNL     1      -2.897  12.013  19.242  0.00  0.00    +0.000 A 
BRANCH  24  29
ATOM     29  O   UNL     1      -2.926   9.849  16.192  0.00  0.00    +0.000 OA
ATOM     30  C   UNL     1      -3.082  10.390  14.893  0.00  0.00    +0.000 C 
ENDBRANCH  24  29
BRANCH  26  31
ATOM     31  O   UNL     1      -6.469  12.006  18.199  0.00  0.00    +0.000 OA
ATOM     32  C   UNL     1      -7.243  11.579  19.314  0.00  0.00    +0.000 C 
ENDBRANCH  26  31
BRANCH  28  33
ATOM     33  O   UNL     1      -2.261  12.558  20.331  0.00  0.00    +0.000 OA
ATOM     34  C   UNL     1      -2.668  13.839  20.792  0.00  0.00    +0.000 C 
ENDBRANCH  28  33
ENDBRANCH  22  23
ENDBRANCH  18  21
ENDBRANCH   1  18
TORSDOF 12
ENDMDL
MODEL 5
REMARK VINA RESULT:      -6.8      2.791      4.737
REMARK  Name = 
REMARK  18 active torsions:
REMARK  status: ('A' for Active; 'I' for Inactive)
REMARK    1  A    between atoms: C_1  and  O_2
REMARK    2  A    between atoms: O_2  and  C_3
REMARK    3  A    between atoms: C_3  and  C_5
REMARK    4  A    between atoms: C_5  and  C_6
REMARK    5  A    between atoms: C_5  and  N_7
REMARK    6  A    between atoms: N_7  and  C_8
REMARK    7  A    between atoms: C_10  and  C_11
REMARK    8  A    between atoms: C_11  and  S_12
REMARK    9  A    between atoms: S_12  and  C_15
REMARK   10  A    between atoms: C_16  and  C_17
REMARK   11  A    between atoms: C_18  and  O_19
REMARK   12  A    between atoms: O_19  and  C_20
REMARK   13  A    between atoms: C_22  and  O_23
REMARK   14  A    between atoms: O_23  and  C_24
REMARK   15  A    between atoms: C_26  and  O_27
REMARK   16  A    between atoms: O_27  and  C_28
REMARK   17  A    between atoms: C_31  and  O_32
REMARK   18  A    between atoms: O_32  and  C_33
REMARK                            x       y       z     vdW  Elec       q    Type
REMARK                         _______ _______ _______ _____ _____    ______ ____
ROOT
ATOM      1  C   UNL     1       2.298   7.324  19.773  0.00  0.00    +0.000 C 
ENDROOT
BRANCH   1   4
ATOM      2  C   UNL     1       4.642   4.484  18.771  0.00  0.00    +0.000 A 
ATOM      3  C   UNL     1       4.143   5.776  18.972  0.00  0.00    +0.000 A 
ATOM      4  C   UNL     1       2.778   6.003  19.235  0.00  0.00    +0.000 A 
ATOM      5  C   UNL     1       1.870   4.940  19.141  0.00  0.00    +0.000 A 
ATOM      6  C   UNL     1       2.351   3.646  19.057  0.00  0.00    +0.000 A 
ATOM      7  C   UNL     1       3.732   3.437  19.011  0.00  0.00    +0.000 A 
BRANCH   2   8
ATOM      8  N   UNL     1       6.017   4.298  18.561  0.00  0.00    +0.000 N 
ATOM      9  H   UNL     1       6.593   4.725  19.278  0.00  0.00    +0.000 HD
BRANCH   8  10
ATOM     10  C   UNL     1       6.588   4.512  17.200  0.00  0.00    +0.000 C 
ATOM     11  C   UNL     1       5.638   3.936  16.147  0.00  0.00    +0.000 C 
BRANCH  10  12
ATOM     12  C   UNL     1       6.820   6.001  16.874  0.00  0.00    +0.000 C 
ATOM     13  O   UNL     1       6.250   6.576  15.942  0.00  0.00    +0.000 OA
BRANCH  12  15
ATOM     14  C   UNL     1       7.761   8.034  17.666  0.00  0.00    +0.000 C 
ATOM     15  O   UNL     1       7.672   6.609  17.739  0.00  0.00    +0.000 OA
ENDBRANCH  12  15
ENDBRANCH  10  12
ENDBRANCH   8  10
ENDBRANCH   2   8
BRANCH   7  16
ATOM     16  O   UNL     1       4.159   2.193  19.417  0.00  0.00    +0.000 OA
ATOM     17  C   UNL     1       3.719   1.232  18.438  0.00  0.00    +0.000 C 
ENDBRANCH   7  16
ENDBRANCH   1   4
BRANCH   1  18
ATOM     18  S   UNL     1       1.988   8.430  18.370  0.00  0.00    +0.000 S 
ATOM     19  O   UNL     1       3.257   8.830  17.787  0.00  0.00    +0.000 OA
ATOM     20  O   UNL     1       0.941   7.847  17.548  0.00  0.00    +0.000 OA
BRANCH  18  21
ATOM     21  C   UNL     1       1.308   9.834  19.146  0.00  0.00    +0.000 C 
ATOM     22  C   UNL     1       0.121   9.733  19.761  0.00  0.00    +0.000 C 
BRANCH  22  23
ATOM     23  C   UNL     1      -0.528  10.872  20.426  0.00  0.00    +0.000 A 
ATOM     24  C   UNL     1      -0.242  11.184  21.778  0.00  0.00    +0.000 A 
ATOM     25  C   UNL     1      -0.840  12.295  22.390  0.00  0.00    +0.000 A 
ATOM     26  C   UNL     1      -1.691  13.137  21.688  0.00  0.00    +0.000 A 
ATOM     27  C   UNL     1      -1.990  12.838  20.366  0.00  0.00    +0.000 A 
ATOM     28  C   UNL     1      -1.425  11.716  19.729  0.00  0.00    +0.000 A 
BRANCH  24  29
ATOM     29  O   UNL     1       0.539  10.487  22.666  0.00  0.00    +0.000 OA
ATOM     30  C   UNL     1      -0.058   9.453  23.427  0.00  0.00    +0.000 C 
ENDBRANCH  24  29
BRANCH  26  31
ATOM     31  O   UNL     1      -2.187  14.193  22.399  0.00  0.00    +0.000 OA
ATOM     32  C   UNL     1      -1.498  14.506  23.605  0.00  0.00    +0.000 C 
ENDBRANCH  26  31
BRANCH  28  33
ATOM     33  O   UNL     1      -1.778  11.660  18.402  0.00  0.00    +0.000 OA
ATOM     34  C   UNL     1      -3.146  11.482  18.065  0.00  0.00    +0.000 C 
ENDBRANCH  28  33
ENDBRANCH  22  23
ENDBRANCH  18  21
ENDBRANCH   1  18
TORSDOF 12
ENDMDL
MODEL 6
REMARK VINA RESULT:      -6.7      2.682      4.685
REMARK  Name = 
REMARK  18 active torsions:
REMARK  status: ('A' for Active; 'I' for Inactive)
REMARK    1  A    between atoms: C_1  and  O_2
REMARK    2  A    between atoms: O_2  and  C_3
REMARK    3  A    between atoms: C_3  and  C_5
REMARK    4  A    between atoms: C_5  and  C_6
REMARK    5  A    between atoms: C_5  and  N_7
REMARK    6  A    between atoms: N_7  and  C_8
REMARK    7  A    between atoms: C_10  and  C_11
REMARK    8  A    between atoms: C_11  and  S_12
REMARK    9  A    between atoms: S_12  and  C_15
REMARK   10  A    between atoms: C_16  and  C_17
REMARK   11  A    between atoms: C_18  and  O_19
REMARK   12  A    between atoms: O_19  and  C_20
REMARK   13  A    between atoms: C_22  and  O_23
REMARK   14  A    between atoms: O_23  and  C_24
REMARK   15  A    between atoms: C_26  and  O_27
REMARK   16  A    between atoms: O_27  and  C_28
REMARK   17  A    between atoms: C_31  and  O_32
REMARK   18  A    between atoms: O_32  and  C_33
REMARK                            x       y       z     vdW  Elec       q    Type
REMARK                         _______ _______ _______ _____ _____    ______ ____
ROOT
ATOM      1  C   UNL     1       1.484   6.258  17.676  0.00  0.00    +0.000 C 
ENDROOT
BRANCH   1   4
ATOM      2  C   UNL     1       4.122   3.508  17.473  0.00  0.00    +0.000 A 
ATOM      3  C   UNL     1       3.424   4.691  17.205  0.00  0.00    +0.000 A 
ATOM      4  C   UNL     1       2.109   4.890  17.670  0.00  0.00    +0.000 A 
ATOM      5  C   UNL     1       1.423   3.829  18.277  0.00  0.00    +0.000 A 
ATOM      6  C   UNL     1       2.124   2.697  18.651  0.00  0.00    +0.000 A 
ATOM      7  C   UNL     1       3.490   2.619  18.363  0.00  0.00    +0.000 A 
BRANCH   2   8
ATOM      8  N   UNL     1       5.447   3.372  17.034  0.00  0.00    +0.000 N 
ATOM      9  H   UNL     1       5.982   2.701  17.576  0.00  0.00    +0.000 HD
BRANCH   8  10
ATOM     10  C   UNL     1       6.249   4.591  16.725  0.00  0.00    +0.000 C 
ATOM     11  C   UNL     1       7.507   4.612  17.598  0.00  0.00    +0.000 C 
BRANCH  10  12
ATOM     12  C   UNL     1       6.688   4.662  15.250  0.00  0.00    +0.000 C 
ATOM     13  O   UNL     1       7.644   5.345  14.871  0.00  0.00    +0.000 OA
BRANCH  12  15
ATOM     14  C   UNL     1       6.355   3.783  13.067  0.00  0.00    +0.000 C 
ATOM     15  O   UNL     1       5.946   3.868  14.435  0.00  0.00    +0.000 OA
ENDBRANCH  12  15
ENDBRANCH  10  12
ENDBRANCH   8  10
ENDBRANCH   2   8
BRANCH   7  16
ATOM     16  O   UNL     1       4.216   1.756  19.153  0.00  0.00    +0.000 OA
ATOM     17  C   UNL     1       4.307   2.332  20.470  0.00  0.00    +0.000 C 
ENDBRANCH   7  16
ENDBRANCH   1   4
BRANCH   1  18
ATOM     18  S   UNL     1       2.520   7.353  18.683  0.00  0.00    +0.000 S 
ATOM     19  O   UNL     1       3.021   6.616  19.831  0.00  0.00    +0.000 OA
ATOM     20  O   UNL     1       3.429   8.065  17.801  0.00  0.00    +0.000 OA
BRANCH  18  21
ATOM     21  C   UNL     1       1.367   8.516  19.277  0.00  0.00    +0.000 C 
ATOM     22  C   UNL     1       1.063   9.582  18.523  0.00  0.00    +0.000 C 
BRANCH  22  23
ATOM     23  C   UNL     1       0.112  10.615  18.956  0.00  0.00    +0.000 A 
ATOM     24  C   UNL     1       0.524  11.677  19.797  0.00  0.00    +0.000 A 
ATOM     25  C   UNL     1      -0.384  12.677  20.173  0.00  0.00    +0.000 A 
ATOM     26  C   UNL     1      -1.691  12.680  19.707  0.00  0.00    +0.000 A 
ATOM     27  C   UNL     1      -2.114  11.639  18.891  0.00  0.00    +0.000 A 
ATOM     28  C   UNL     1      -1.233  10.607  18.515  0.00  0.00    +0.000 A 
BRANCH  24  29
ATOM     29  O   UNL     1       1.746  11.866  20.393  0.00  0.00    +0.000 OA
ATOM     30  C   UNL     1       2.207  13.190  20.589  0.00  0.00    +0.000 C 
ENDBRANCH  24  29
BRANCH  26  31
ATOM     31  O   UNL     1      -2.463  13.723  20.135  0.00  0.00    +0.000 OA
ATOM     32  C   UNL     1      -2.522  13.913  21.544  0.00  0.00    +0.000 C 
ENDBRANCH  26  31
BRANCH  28  33
ATOM     33  O   UNL     1      -1.827   9.736  17.634  0.00  0.00    +0.000 OA
ATOM     34  C   UNL     1      -2.566  10.265  16.542  0.00  0.00    +0.000 C 
ENDBRANCH  28  33
ENDBRANCH  22  23
ENDBRANCH  18  21
ENDBRANCH   1  18
TORSDOF 12
ENDMDL
MODEL 7
REMARK VINA RESULT:      -6.7      2.558      4.590
REMARK  Name = 
REMARK  18 active torsions:
REMARK  status: ('A' for Active; 'I' for Inactive)
REMARK    1  A    between atoms: C_1  and  O_2
REMARK    2  A    between atoms: O_2  and  C_3
REMARK    3  A    between atoms: C_3  and  C_5
REMARK    4  A    between atoms: C_5  and  C_6
REMARK    5  A    between atoms: C_5  and  N_7
REMARK    6  A    between atoms: N_7  and  C_8
REMARK    7  A    between atoms: C_10  and  C_11
REMARK    8  A    between atoms: C_11  and  S_12
REMARK    9  A    between atoms: S_12  and  C_15
REMARK   10  A    between atoms: C_16  and  C_17
REMARK   11  A    between atoms: C_18  and  O_19
REMARK   12  A    between atoms: O_19  and  C_20
REMARK   13  A    between atoms: C_22  and  O_23
REMARK   14  A    between atoms: O_23  and  C_24
REMARK   15  A    between atoms: C_26  and  O_27
REMARK   16  A    between atoms: O_27  and  C_28
REMARK   17  A    between atoms: C_31  and  O_32
REMARK   18  A    between atoms: O_32  and  C_33
REMARK                            x       y       z     vdW  Elec       q    Type
REMARK                         _______ _______ _______ _____ _____    ______ ____
ROOT
ATOM      1  C   UNL     1       1.485   6.213  17.722  0.00  0.00    +0.000 C 
ENDROOT
BRANCH   1   4
ATOM      2  C   UNL     1       4.132   3.484  17.396  0.00  0.00    +0.000 A 
ATOM      3  C   UNL     1       3.447   4.688  17.203  0.00  0.00    +0.000 A 
ATOM      4  C   UNL     1       2.112   4.849  17.622  0.00  0.00    +0.000 A 
ATOM      5  C   UNL     1       1.399   3.741  18.098  0.00  0.00    +0.000 A 
ATOM      6  C   UNL     1       2.082   2.577  18.402  0.00  0.00    +0.000 A 
ATOM      7  C   UNL     1       3.460   2.520  18.171  0.00  0.00    +0.000 A 
BRANCH   2   8
ATOM      8  N   UNL     1       5.477   3.383  17.009  0.00  0.00    +0.000 N 
ATOM      9  H   UNL     1       6.054   2.894  17.685  0.00  0.00    +0.000 HD
BRANCH   8  10
ATOM     10  C   UNL     1       6.175   4.579  16.456  0.00  0.00    +0.000 C 
ATOM     11  C   UNL     1       7.435   4.863  17.279  0.00  0.00    +0.000 C 
BRANCH  10  12
ATOM     12  C   UNL     1       6.593   4.402  14.984  0.00  0.00    +0.000 C 
ATOM     13  O   UNL     1       6.097   3.544  14.248  0.00  0.00    +0.000 OA
BRANCH  12  15
ATOM     14  C   UNL     1       7.922   5.260  13.210  0.00  0.00    +0.000 C 
ATOM     15  O   UNL     1       7.521   5.309  14.581  0.00  0.00    +0.000 OA
ENDBRANCH  12  15
ENDBRANCH  10  12
ENDBRANCH   8  10
ENDBRANCH   2   8
BRANCH   7  16
ATOM     16  O   UNL     1       4.149   1.587  18.914  0.00  0.00    +0.000 OA
ATOM     17  C   UNL     1       4.475   2.184  20.184  0.00  0.00    +0.000 C 
ENDBRANCH   7  16
ENDBRANCH   1   4
BRANCH   1  18
ATOM     18  S   UNL     1       2.561   7.260  18.740  0.00  0.00    +0.000 S 
ATOM     19  O   UNL     1       2.664   6.687  20.072  0.00  0.00    +0.000 OA
ATOM     20  O   UNL     1       3.752   7.579  17.972  0.00  0.00    +0.000 OA
BRANCH  18  21
ATOM     21  C   UNL     1       1.631   8.727  18.877  0.00  0.00    +0.000 C 
ATOM     22  C   UNL     1       0.677   8.815  19.814  0.00  0.00    +0.000 C 
BRANCH  22  23
ATOM     23  C   UNL     1      -0.160  10.010  19.986  0.00  0.00    +0.000 A 
ATOM     24  C   UNL     1      -0.173  10.720  21.211  0.00  0.00    +0.000 A 
ATOM     25  C   UNL     1      -0.948  11.880  21.349  0.00  0.00    +0.000 A 
ATOM     26  C   UNL     1      -1.689  12.386  20.291  0.00  0.00    +0.000 A 
ATOM     27  C   UNL     1      -1.696  11.695  19.087  0.00  0.00    +0.000 A 
ATOM     28  C   UNL     1      -0.948  10.514  18.923  0.00  0.00    +0.000 A 
BRANCH  24  29
ATOM     29  O   UNL     1       0.454  10.397  22.388  0.00  0.00    +0.000 OA
ATOM     30  C   UNL     1      -0.232   9.582  23.320  0.00  0.00    +0.000 C 
ENDBRANCH  24  29
BRANCH  26  31
ATOM     31  O   UNL     1      -2.382  13.533  20.557  0.00  0.00    +0.000 OA
ATOM     32  C   UNL     1      -2.762  13.726  21.915  0.00  0.00    +0.000 C 
ENDBRANCH  26  31
BRANCH  28  33
ATOM     33  O   UNL     1      -1.022  10.047  17.632  0.00  0.00    +0.000 OA
ATOM     34  C   UNL     1      -2.288  10.009  16.990  0.00  0.00    +0.000 C 
ENDBRANCH  28  33
ENDBRANCH  22  23
ENDBRANCH  18  21
ENDBRANCH   1  18
TORSDOF 12
ENDMDL
MODEL 8
REMARK VINA RESULT:      -6.7      4.692      9.548
REMARK  Name = 
REMARK  18 active torsions:
REMARK  status: ('A' for Active; 'I' for Inactive)
REMARK    1  A    between atoms: C_1  and  O_2
REMARK    2  A    between atoms: O_2  and  C_3
REMARK    3  A    between atoms: C_3  and  C_5
REMARK    4  A    between atoms: C_5  and  C_6
REMARK    5  A    between atoms: C_5  and  N_7
REMARK    6  A    between atoms: N_7  and  C_8
REMARK    7  A    between atoms: C_10  and  C_11
REMARK    8  A    between atoms: C_11  and  S_12
REMARK    9  A    between atoms: S_12  and  C_15
REMARK   10  A    between atoms: C_16  and  C_17
REMARK   11  A    between atoms: C_18  and  O_19
REMARK   12  A    between atoms: O_19  and  C_20
REMARK   13  A    between atoms: C_22  and  O_23
REMARK   14  A    between atoms: O_23  and  C_24
REMARK   15  A    between atoms: C_26  and  O_27
REMARK   16  A    between atoms: O_27  and  C_28
REMARK   17  A    between atoms: C_31  and  O_32
REMARK   18  A    between atoms: O_32  and  C_33
REMARK                            x       y       z     vdW  Elec       q    Type
REMARK                         _______ _______ _______ _____ _____    ______ ____
ROOT
ATOM      1  C   UNL     1       0.842  10.384  19.838  0.00  0.00    +0.000 C 
ENDROOT
BRANCH   1   4
ATOM      2  C   UNL     1      -2.579  11.620  18.684  0.00  0.00    +0.000 A 
ATOM      3  C   UNL     1      -1.474  11.368  19.505  0.00  0.00    +0.000 A 
ATOM      4  C   UNL     1      -0.493  10.423  19.145  0.00  0.00    +0.000 A 
ATOM      5  C   UNL     1      -0.699   9.603  18.028  0.00  0.00    +0.000 A 
ATOM      6  C   UNL     1      -1.720   9.909  17.145  0.00  0.00    +0.000 A 
ATOM      7  C   UNL     1      -2.554  10.996  17.423  0.00  0.00    +0.000 A 
BRANCH   2   8
ATOM      8  N   UNL     1      -3.506  12.605  19.055  0.00  0.00    +0.000 N 
ATOM      9  H   UNL     1      -3.087  13.385  19.551  0.00  0.00    +0.000 HD
BRANCH   8  10
ATOM     10  C   UNL     1      -4.804  12.201  19.670  0.00  0.00    +0.000 C 
ATOM     11  C   UNL     1      -5.247  13.263  20.678  0.00  0.00    +0.000 C 
BRANCH  10  12
ATOM     12  C   UNL     1      -5.929  12.025  18.632  0.00  0.00    +0.000 C 
ATOM     13  O   UNL     1      -6.215  10.931  18.137  0.00  0.00    +0.000 OA
BRANCH  12  15
ATOM     14  C   UNL     1      -6.572  13.633  17.004  0.00  0.00    +0.000 C 
ATOM     15  O   UNL     1      -6.588  13.181  18.361  0.00  0.00    +0.000 OA
ENDBRANCH  12  15
ENDBRANCH  10  12
ENDBRANCH   8  10
ENDBRANCH   2   8
BRANCH   7  16
ATOM     16  O   UNL     1      -3.195  11.546  16.335  0.00  0.00    +0.000 OA
ATOM     17  C   UNL     1      -3.131  10.594  15.255  0.00  0.00    +0.000 C 
ENDBRANCH   7  16
ENDBRANCH   1   4
BRANCH   1  18
ATOM     18  S   UNL     1       0.736   9.205  21.212  0.00  0.00    +0.000 S 
ATOM     19  O   UNL     1       1.815   9.465  22.150  0.00  0.00    +0.000 OA
ATOM     20  O   UNL     1      -0.644   9.147  21.662  0.00  0.00    +0.000 OA
BRANCH  18  21
ATOM     21  C   UNL     1       1.083   7.689  20.429  0.00  0.00    +0.000 C 
ATOM     22  C   UNL     1       2.355   7.372  20.145  0.00  0.00    +0.000 C 
BRANCH  22  23
ATOM     23  C   UNL     1       2.730   6.121  19.473  0.00  0.00    +0.000 A 
ATOM     24  C   UNL     1       2.421   4.865  20.048  0.00  0.00    +0.000 A 
ATOM     25  C   UNL     1       2.752   3.678  19.379  0.00  0.00    +0.000 A 
ATOM     26  C   UNL     1       3.353   3.695  18.128  0.00  0.00    +0.000 A 
ATOM     27  C   UNL     1       3.674   4.919  17.556  0.00  0.00    +0.000 A 
ATOM     28  C   UNL     1       3.376   6.129  18.213  0.00  0.00    +0.000 A 
BRANCH  24  29
ATOM     29  O   UNL     1       1.858   4.605  21.273  0.00  0.00    +0.000 OA
ATOM     30  C   UNL     1       1.861   3.272  21.750  0.00  0.00    +0.000 C 
ENDBRANCH  24  29
BRANCH  26  31
ATOM     31  O   UNL     1       3.602   2.469  17.581  0.00  0.00    +0.000 OA
ATOM     32  C   UNL     1       3.607   1.374  18.491  0.00  0.00    +0.000 C 
ENDBRANCH  26  31
BRANCH  28  33
ATOM     33  O   UNL     1       3.690   7.215  17.432  0.00  0.00    +0.000 OA
ATOM     34  C   UNL     1       4.811   7.133  16.564  0.00  0.00    +0.000 C 
ENDBRANCH  28  33
ENDBRANCH  22  23
ENDBRANCH  18  21
ENDBRANCH   1  18
TORSDOF 12
ENDMDL
MODEL 9
REMARK VINA RESULT:      -6.7      4.273      6.836
REMARK  Name = 
REMARK  18 active torsions:
REMARK  status: ('A' for Active; 'I' for Inactive)
REMARK    1  A    between atoms: C_1  and  O_2
REMARK    2  A    between atoms: O_2  and  C_3
REMARK    3  A    between atoms: C_3  and  C_5
REMARK    4  A    between atoms: C_5  and  C_6
REMARK    5  A    between atoms: C_5  and  N_7
REMARK    6  A    between atoms: N_7  and  C_8
REMARK    7  A    between atoms: C_10  and  C_11
REMARK    8  A    between atoms: C_11  and  S_12
REMARK    9  A    between atoms: S_12  and  C_15
REMARK   10  A    between atoms: C_16  and  C_17
REMARK   11  A    between atoms: C_18  and  O_19
REMARK   12  A    between atoms: O_19  and  C_20
REMARK   13  A    between atoms: C_22  and  O_23
REMARK   14  A    between atoms: O_23  and  C_24
REMARK   15  A    between atoms: C_26  and  O_27
REMARK   16  A    between atoms: O_27  and  C_28
REMARK   17  A    between atoms: C_31  and  O_32
REMARK   18  A    between atoms: O_32  and  C_33
REMARK                            x       y       z     vdW  Elec       q    Type
REMARK                         _______ _______ _______ _____ _____    ______ ____
ROOT
ATOM      1  C   UNL     1       1.671   9.054  17.462  0.00  0.00    +0.000 C 
ENDROOT
BRANCH   1   4
ATOM      2  C   UNL     1       2.871   5.532  18.307  0.00  0.00    +0.000 A 
ATOM      3  C   UNL     1       2.069   6.677  18.259  0.00  0.00    +0.000 A 
ATOM      4  C   UNL     1       2.584   7.916  17.829  0.00  0.00    +0.000 A 
ATOM      5  C   UNL     1       3.959   8.049  17.595  0.00  0.00    +0.000 A 
ATOM      6  C   UNL     1       4.746   6.914  17.526  0.00  0.00    +0.000 A 
ATOM      7  C   UNL     1       4.157   5.666  17.749  0.00  0.00    +0.000 A 
BRANCH   2   8
ATOM      8  N   UNL     1       2.305   4.307  18.693  0.00  0.00    +0.000 N 
ATOM      9  H   UNL     1       1.554   4.002  18.083  0.00  0.00    +0.000 HD
BRANCH   8  10
ATOM     10  C   UNL     1       1.976   4.069  20.128  0.00  0.00    +0.000 C 
ATOM     11  C   UNL     1       0.563   3.491  20.241  0.00  0.00    +0.000 C 
BRANCH  10  12
ATOM     12  C   UNL     1       2.950   3.090  20.812  0.00  0.00    +0.000 C 
ATOM     13  O   UNL     1       2.733   2.602  21.925  0.00  0.00    +0.000 OA
BRANCH  12  15
ATOM     14  C   UNL     1       4.829   1.680  20.454  0.00  0.00    +0.000 C 
ATOM     15  O   UNL     1       4.034   2.796  20.048  0.00  0.00    +0.000 OA
ENDBRANCH  12  15
ENDBRANCH  10  12
ENDBRANCH   8  10
ENDBRANCH   2   8
BRANCH   7  16
ATOM     16  O   UNL     1       4.820   4.589  17.204  0.00  0.00    +0.000 OA
ATOM     17  C   UNL     1       5.921   5.095  16.424  0.00  0.00    +0.000 C 
ENDBRANCH   7  16
ENDBRANCH   1   4
BRANCH   1  18
ATOM     18  S   UNL     1       1.076   9.824  18.993  0.00  0.00    +0.000 S 
ATOM     19  O   UNL     1       1.244   8.890  20.094  0.00  0.00    +0.000 OA
ATOM     20  O   UNL     1       1.615  11.171  19.069  0.00  0.00    +0.000 OA
BRANCH  18  21
ATOM     21  C   UNL     1      -0.634   9.972  18.695  0.00  0.00    +0.000 C 
ATOM     22  C   UNL     1      -1.137  11.162  18.337  0.00  0.00    +0.000 C 
BRANCH  22  23
ATOM     23  C   UNL     1      -2.568  11.375  18.082  0.00  0.00    +0.000 A 
ATOM     24  C   UNL     1      -3.405  11.950  19.068  0.00  0.00    +0.000 A 
ATOM     25  C   UNL     1      -4.762  12.182  18.799  0.00  0.00    +0.000 A 
ATOM     26  C   UNL     1      -5.313  11.895  17.558  0.00  0.00    +0.000 A 
ATOM     27  C   UNL     1      -4.507  11.320  16.584  0.00  0.00    +0.000 A 
ATOM     28  C   UNL     1      -3.147  11.052  16.831  0.00  0.00    +0.000 A 
BRANCH  24  29
ATOM     29  O   UNL     1      -3.090  12.287  20.361  0.00  0.00    +0.000 OA
ATOM     30  C   UNL     1      -3.602  13.497  20.889  0.00  0.00    +0.000 C 
ENDBRANCH  24  29
BRANCH  26  31
ATOM     31  O   UNL     1      -6.640  12.189  17.425  0.00  0.00    +0.000 OA
ATOM     32  C   UNL     1      -7.301  12.620  18.609  0.00  0.00    +0.000 C 
ENDBRANCH  26  31
BRANCH  28  33
ATOM     33  O   UNL     1      -2.517  10.574  15.708  0.00  0.00    +0.000 OA
ATOM     34  C   UNL     1      -3.309  10.151  14.606  0.00  0.00    +0.000 C 
ENDBRANCH  28  33
ENDBRANCH  22  23
ENDBRANCH  18  21
ENDBRANCH   1  18
TORSDOF 12
ENDMDL
