MODEL 1
REMARK VINA RESULT:      -6.0      0.000      0.000
REMARK  Name = 
REMARK  4 active torsions:
REMARK  status: ('A' for Active; 'I' for Inactive)
REMARK    1  A    between atoms: N_4  and  O_5
REMARK    2  A    between atoms: N_4  and  C_6
REMARK    3  A    between atoms: C_6  and  C_7
REMARK    4  A    between atoms: C_8  and  C_9
REMARK                            x       y       z     vdW  Elec       q    Type
REMARK                         _______ _______ _______ _____ _____    ______ ____
ROOT
ATOM      1  N   UNL     1       7.582   4.326  17.736  0.00  0.00    +0.000 N 
ATOM      2  C   UNL     1       7.451   5.557  17.156  0.00  0.00    +0.000 C 
ATOM      3  O   UNL     1       7.204   5.651  15.961  0.00  0.00    +0.000 OA
ATOM      4  N   UNL     1       7.633   6.604  18.012  0.00  0.00    +0.000 N 
ATOM      5  H   UNL     1       7.334   3.577  17.101  0.00  0.00    +0.000 HD
ATOM      6  H   UNL     1       7.152   4.242  18.651  0.00  0.00    +0.000 HD
ENDROOT
BRANCH   4   7
ATOM      7  O   UNL     1       8.131   6.366  19.313  0.00  0.00    +0.000 OA
ATOM      8  H   UNL     1       7.511   6.887  19.859  0.00  0.00    +0.000 HD
ENDBRANCH   4   7
BRANCH   4   9
ATOM      9  C   UNL     1       7.709   7.995  17.597  0.00  0.00    +0.000 C 
BRANCH   9  10
ATOM     10  C   UNL     1       8.589   8.779  18.528  0.00  0.00    +0.000 C 
ATOM     11  C   UNL     1       8.830  10.097  18.417  0.00  0.00    +0.000 C 
BRANCH  11  12
ATOM     12  C   UNL     1       9.731  10.849  19.228  0.00  0.00    +0.000 A 
ATOM     13  C   UNL     1      11.012  11.374  18.913  0.00  0.00    +0.000 A 
ATOM     14  C   UNL     1      11.442  12.042  20.036  0.00  0.00    +0.000 A 
ATOM     15  O   UNL     1      10.512  11.960  21.024  0.00  0.00    +0.000 OA
ATOM     16  C   UNL     1       9.475  11.233  20.525  0.00  0.00    +0.000 A 
ENDBRANCH  11  12
ENDBRANCH   9  10
ENDBRANCH   4   9
TORSDOF 4
ENDMDL
MODEL 2
REMARK VINA RESULT:      -5.9      5.192      8.119
REMARK  Name = 
REMARK  4 active torsions:
REMARK  status: ('A' for Active; 'I' for Inactive)
REMARK    1  A    between atoms: N_4  and  O_5
REMARK    2  A    between atoms: N_4  and  C_6
REMARK    3  A    between atoms: C_6  and  C_7
REMARK    4  A    between atoms: C_8  and  C_9
REMARK                            x       y       z     vdW  Elec       q    Type
REMARK                         _______ _______ _______ _____ _____    ______ ____
ROOT
ATOM      1  N   UNL     1       7.605   5.300  15.310  0.00  0.00    +0.000 N 
ATOM      2  C   UNL     1       6.858   5.713  16.378  0.00  0.00    +0.000 C 
ATOM      3  O   UNL     1       6.100   6.668  16.266  0.00  0.00    +0.000 OA
ATOM      4  N   UNL     1       7.058   4.989  17.517  0.00  0.00    +0.000 N 
ATOM      5  H   UNL     1       7.353   5.786  14.458  0.00  0.00    +0.000 HD
ATOM      6  H   UNL     1       7.666   4.294  15.200  0.00  0.00    +0.000 HD
ENDROOT
BRANCH   4   7
ATOM      7  O   UNL     1       8.118   4.058  17.577  0.00  0.00    +0.000 OA
ATOM      8  H   UNL     1       8.823   4.531  17.095  0.00  0.00    +0.000 HD
ENDBRANCH   4   7
BRANCH   4   9
ATOM      9  C   UNL     1       6.508   5.340  18.815  0.00  0.00    +0.000 C 
BRANCH   9  10
ATOM     10  C   UNL     1       5.090   4.861  18.938  0.00  0.00    +0.000 C 
ATOM     11  C   UNL     1       4.606   3.760  18.338  0.00  0.00    +0.000 C 
BRANCH  11  12
ATOM     12  C   UNL     1       3.245   3.331  18.360  0.00  0.00    +0.000 A 
ATOM     13  C   UNL     1       2.649   2.238  19.043  0.00  0.00    +0.000 A 
ATOM     14  C   UNL     1       1.306   2.287  18.752  0.00  0.00    +0.000 A 
ATOM     15  O   UNL     1       1.035   3.336  17.931  0.00  0.00    +0.000 OA
ATOM     16  C   UNL     1       2.218   3.965  17.697  0.00  0.00    +0.000 A 
ENDBRANCH  11  12
ENDBRANCH   9  10
ENDBRANCH   4   9
TORSDOF 4
ENDMDL
MODEL 3
REMARK VINA RESULT:      -5.9      4.196      8.082
REMARK  Name = 
REMARK  4 active torsions:
REMARK  status: ('A' for Active; 'I' for Inactive)
REMARK    1  A    between atoms: N_4  and  O_5
REMARK    2  A    between atoms: N_4  and  C_6
REMARK    3  A    between atoms: C_6  and  C_7
REMARK    4  A    between atoms: C_8  and  C_9
REMARK                            x       y       z     vdW  Elec       q    Type
REMARK                         _______ _______ _______ _____ _____    ______ ____
ROOT
ATOM      1  N   UNL     1       8.167   6.745  18.866  0.00  0.00    +0.000 N 
ATOM      2  C   UNL     1       7.508   6.625  17.674  0.00  0.00    +0.000 C 
ATOM      3  O   UNL     1       7.101   7.623  17.093  0.00  0.00    +0.000 OA
ATOM      4  N   UNL     1       7.353   5.339  17.244  0.00  0.00    +0.000 N 
ATOM      5  H   UNL     1       8.359   7.711  19.100  0.00  0.00    +0.000 HD
ATOM      6  H   UNL     1       8.971   6.135  18.967  0.00  0.00    +0.000 HD
ENDROOT
BRANCH   4   7
ATOM      7  O   UNL     1       7.670   4.269  18.109  0.00  0.00    +0.000 OA
ATOM      8  H   UNL     1       8.216   3.703  17.530  0.00  0.00    +0.000 HD
ENDBRANCH   4   7
BRANCH   4   9
ATOM      9  C   UNL     1       6.546   4.953  16.099  0.00  0.00    +0.000 C 
BRANCH   9  10
ATOM     10  C   UNL     1       5.395   4.089  16.529  0.00  0.00    +0.000 C 
ATOM     11  C   UNL     1       4.203   4.558  16.936  0.00  0.00    +0.000 C 
BRANCH  11  12
ATOM     12  C   UNL     1       3.126   3.769  17.437  0.00  0.00    +0.000 A 
ATOM     13  C   UNL     1       3.117   2.418  17.873  0.00  0.00    +0.000 A 
ATOM     14  C   UNL     1       1.832   2.153  18.286  0.00  0.00    +0.000 A 
ATOM     15  O   UNL     1       1.047   3.251  18.129  0.00  0.00    +0.000 OA
ATOM     16  C   UNL     1       1.840   4.229  17.613  0.00  0.00    +0.000 A 
ENDBRANCH  11  12
ENDBRANCH   9  10
ENDBRANCH   4   9
TORSDOF 4
ENDMDL
MODEL 4
REMARK VINA RESULT:      -5.8      4.321      7.967
REMARK  Name = 
REMARK  4 active torsions:
REMARK  status: ('A' for Active; 'I' for Inactive)
REMARK    1  A    between atoms: N_4  and  O_5
REMARK    2  A    between atoms: N_4  and  C_6
REMARK    3  A    between atoms: C_6  and  C_7
REMARK    4  A    between atoms: C_8  and  C_9
REMARK                            x       y       z     vdW  Elec       q    Type
REMARK                         _______ _______ _______ _____ _____    ______ ____
ROOT
ATOM      1  N   UNL     1       8.122   6.634  18.821  0.00  0.00    +0.000 N 
ATOM      2  C   UNL     1       7.449   6.455  17.645  0.00  0.00    +0.000 C 
ATOM      3  O   UNL     1       6.891   7.401  17.105  0.00  0.00    +0.000 OA
ATOM      4  N   UNL     1       7.460   5.171  17.181  0.00  0.00    +0.000 N 
ATOM      5  H   UNL     1       8.186   7.611  19.078  0.00  0.00    +0.000 HD
ATOM      6  H   UNL     1       9.005   6.138  18.883  0.00  0.00    +0.000 HD
ENDROOT
BRANCH   4   7
ATOM      7  O   UNL     1       7.947   4.133  18.006  0.00  0.00    +0.000 OA
ATOM      8  H   UNL     1       7.377   4.225  18.794  0.00  0.00    +0.000 HD
ENDBRANCH   4   7
BRANCH   4   9
ATOM      9  C   UNL     1       6.678   4.706  16.047  0.00  0.00    +0.000 C 
BRANCH   9  10
ATOM     10  C   UNL     1       5.416   4.038  16.512  0.00  0.00    +0.000 C 
ATOM     11  C   UNL     1       4.314   4.693  16.917  0.00  0.00    +0.000 C 
BRANCH  11  12
ATOM     12  C   UNL     1       3.137   4.089  17.450  0.00  0.00    +0.000 A 
ATOM     13  C   UNL     1       2.019   4.689  18.088  0.00  0.00    +0.000 A 
ATOM     14  C   UNL     1       1.148   3.666  18.382  0.00  0.00    +0.000 A 
ATOM     15  O   UNL     1       1.656   2.475  17.971  0.00  0.00    +0.000 OA
ATOM     16  C   UNL     1       2.865   2.740  17.406  0.00  0.00    +0.000 A 
ENDBRANCH  11  12
ENDBRANCH   9  10
ENDBRANCH   4   9
TORSDOF 4
ENDMDL
MODEL 5
REMARK VINA RESULT:      -5.7      5.285      7.740
REMARK  Name = 
REMARK  4 active torsions:
REMARK  status: ('A' for Active; 'I' for Inactive)
REMARK    1  A    between atoms: N_4  and  O_5
REMARK    2  A    between atoms: N_4  and  C_6
REMARK    3  A    between atoms: C_6  and  C_7
REMARK    4  A    between atoms: C_8  and  C_9
REMARK                            x       y       z     vdW  Elec       q    Type
REMARK                         _______ _______ _______ _____ _____    ______ ____
ROOT
ATOM      1  N   UNL     1       7.633   6.859  16.669  0.00  0.00    +0.000 N 
ATOM      2  C   UNL     1       7.088   5.606  16.679  0.00  0.00    +0.000 C 
ATOM      3  O   UNL     1       7.715   4.666  17.150  0.00  0.00    +0.000 OA
ATOM      4  N   UNL     1       5.845   5.529  16.120  0.00  0.00    +0.000 N 
ATOM      5  H   UNL     1       8.503   6.901  17.185  0.00  0.00    +0.000 HD
ATOM      6  H   UNL     1       6.985   7.604  16.903  0.00  0.00    +0.000 HD
ENDROOT
BRANCH   4   7
ATOM      7  O   UNL     1       5.325   6.636  15.414  0.00  0.00    +0.000 OA
ATOM      8  H   UNL     1       5.519   6.388  14.489  0.00  0.00    +0.000 HD
ENDBRANCH   4   7
BRANCH   4   9
ATOM      9  C   UNL     1       5.140   4.283  15.866  0.00  0.00    +0.000 C 
BRANCH   9  10
ATOM     10  C   UNL     1       4.090   4.046  16.913  0.00  0.00    +0.000 C 
ATOM     11  C   UNL     1       3.525   5.013  17.656  0.00  0.00    +0.000 C 
BRANCH  11  12
ATOM     12  C   UNL     1       2.595   4.809  18.719  0.00  0.00    +0.000 A 
ATOM     13  C   UNL     1       1.655   3.764  18.914  0.00  0.00    +0.000 A 
ATOM     14  C   UNL     1       1.029   4.025  20.110  0.00  0.00    +0.000 A 
ATOM     15  O   UNL     1       1.519   5.166  20.664  0.00  0.00    +0.000 OA
ATOM     16  C   UNL     1       2.470   5.637  19.813  0.00  0.00    +0.000 A 
ENDBRANCH  11  12
ENDBRANCH   9  10
ENDBRANCH   4   9
TORSDOF 4
ENDMDL
MODEL 6
REMARK VINA RESULT:      -5.7      5.207      8.535
REMARK  Name = 
REMARK  4 active torsions:
REMARK  status: ('A' for Active; 'I' for Inactive)
REMARK    1  A    between atoms: N_4  and  O_5
REMARK    2  A    between atoms: N_4  and  C_6
REMARK    3  A    between atoms: C_6  and  C_7
REMARK    4  A    between atoms: C_8  and  C_9
REMARK                            x       y       z     vdW  Elec       q    Type
REMARK                         _______ _______ _______ _____ _____    ______ ____
ROOT
ATOM      1  N   UNL     1       7.617   6.988  16.653  0.00  0.00    +0.000 N 
ATOM      2  C   UNL     1       7.091   5.726  16.684  0.00  0.00    +0.000 C 
ATOM      3  O   UNL     1       7.743   4.799  17.148  0.00  0.00    +0.000 OA
ATOM      4  N   UNL     1       5.837   5.627  16.156  0.00  0.00    +0.000 N 
ATOM      5  H   UNL     1       8.498   7.046  17.148  0.00  0.00    +0.000 HD
ATOM      6  H   UNL     1       6.964   7.724  16.897  0.00  0.00    +0.000 HD
ENDROOT
BRANCH   4   7
ATOM      7  O   UNL     1       5.284   6.721  15.454  0.00  0.00    +0.000 OA
ATOM      8  H   UNL     1       5.369   6.424  14.528  0.00  0.00    +0.000 HD
ENDBRANCH   4   7
BRANCH   4   9
ATOM      9  C   UNL     1       5.144   4.370  15.927  0.00  0.00    +0.000 C 
BRANCH   9  10
ATOM     10  C   UNL     1       4.412   3.936  17.164  0.00  0.00    +0.000 C 
ATOM     11  C   UNL     1       3.140   3.500  17.181  0.00  0.00    +0.000 C 
BRANCH  11  12
ATOM     12  C   UNL     1       2.390   3.169  18.349  0.00  0.00    +0.000 A 
ATOM     13  C   UNL     1       1.022   3.410  18.647  0.00  0.00    +0.000 A 
ATOM     14  C   UNL     1       0.796   2.865  19.889  0.00  0.00    +0.000 A 
ATOM     15  O   UNL     1       1.935   2.307  20.378  0.00  0.00    +0.000 OA
ATOM     16  C   UNL     1       2.899   2.496  19.437  0.00  0.00    +0.000 A 
ENDBRANCH  11  12
ENDBRANCH   9  10
ENDBRANCH   4   9
TORSDOF 4
ENDMDL
MODEL 7
REMARK VINA RESULT:      -5.6      6.423      7.931
REMARK  Name = 
REMARK  4 active torsions:
REMARK  status: ('A' for Active; 'I' for Inactive)
REMARK    1  A    between atoms: N_4  and  O_5
REMARK    2  A    between atoms: N_4  and  C_6
REMARK    3  A    between atoms: C_6  and  C_7
REMARK    4  A    between atoms: C_8  and  C_9
REMARK                            x       y       z     vdW  Elec       q    Type
REMARK                         _______ _______ _______ _____ _____    ______ ____
ROOT
ATOM      1  N   UNL     1       2.221   3.096  21.824  0.00  0.00    +0.000 N 
ATOM      2  C   UNL     1       2.115   3.984  20.791  0.00  0.00    +0.000 C 
ATOM      3  O   UNL     1       2.022   5.184  21.017  0.00  0.00    +0.000 OA
ATOM      4  N   UNL     1       2.108   3.409  19.553  0.00  0.00    +0.000 N 
ATOM      5  H   UNL     1       2.332   3.561  22.717  0.00  0.00    +0.000 HD
ATOM      6  H   UNL     1       2.887   2.347  21.671  0.00  0.00    +0.000 HD
ENDROOT
BRANCH   4   7
ATOM      7  O   UNL     1       1.998   2.006  19.434  0.00  0.00    +0.000 OA
ATOM      8  H   UNL     1       1.648   1.912  18.527  0.00  0.00    +0.000 HD
ENDBRANCH   4   7
BRANCH   4   9
ATOM      9  C   UNL     1       1.839   4.128  18.319  0.00  0.00    +0.000 C 
BRANCH   9  10
ATOM     10  C   UNL     1       3.120   4.573  17.674  0.00  0.00    +0.000 C 
ATOM     11  C   UNL     1       3.992   3.749  17.068  0.00  0.00    +0.000 C 
BRANCH  11  12
ATOM     12  C   UNL     1       5.258   4.129  16.530  0.00  0.00    +0.000 A 
ATOM     13  C   UNL     1       5.662   4.269  15.176  0.00  0.00    +0.000 A 
ATOM     14  C   UNL     1       6.973   4.685  15.206  0.00  0.00    +0.000 A 
ATOM     15  O   UNL     1       7.405   4.806  16.489  0.00  0.00    +0.000 OA
ATOM     16  C   UNL     1       6.357   4.466  17.288  0.00  0.00    +0.000 A 
ENDBRANCH  11  12
ENDBRANCH   9  10
ENDBRANCH   4   9
TORSDOF 4
ENDMDL
MODEL 8
REMARK VINA RESULT:      -5.6      5.441      8.212
REMARK  Name = 
REMARK  4 active torsions:
REMARK  status: ('A' for Active; 'I' for Inactive)
REMARK    1  A    between atoms: N_4  and  O_5
REMARK    2  A    between atoms: N_4  and  C_6
REMARK    3  A    between atoms: C_6  and  C_7
REMARK    4  A    between atoms: C_8  and  C_9
REMARK                            x       y       z     vdW  Elec       q    Type
REMARK                         _______ _______ _______ _____ _____    ______ ____
ROOT
ATOM      1  N   UNL     1       7.521   6.691  16.659  0.00  0.00    +0.000 N 
ATOM      2  C   UNL     1       7.054   5.406  16.667  0.00  0.00    +0.000 C 
ATOM      3  O   UNL     1       7.836   4.467  16.742  0.00  0.00    +0.000 OA
ATOM      4  N   UNL     1       5.696   5.301  16.573  0.00  0.00    +0.000 N 
ATOM      5  H   UNL     1       8.516   6.735  16.839  0.00  0.00    +0.000 HD
ATOM      6  H   UNL     1       6.978   7.342  17.215  0.00  0.00    +0.000 HD
ENDROOT
BRANCH   4   7
ATOM      7  O   UNL     1       4.925   6.446  16.270  0.00  0.00    +0.000 OA
ATOM      8  H   UNL     1       5.468   7.158  16.659  0.00  0.00    +0.000 HD
ENDBRANCH   4   7
BRANCH   4   9
ATOM      9  C   UNL     1       4.984   4.047  16.395  0.00  0.00    +0.000 C 
BRANCH   9  10
ATOM     10  C   UNL     1       3.825   3.956  17.345  0.00  0.00    +0.000 C 
ATOM     11  C   UNL     1       3.939   3.714  18.663  0.00  0.00    +0.000 C 
BRANCH  11  12
ATOM     12  C   UNL     1       2.855   3.531  19.572  0.00  0.00    +0.000 A 
ATOM     13  C   UNL     1       2.805   2.800  20.788  0.00  0.00    +0.000 A 
ATOM     14  C   UNL     1       1.535   2.970  21.288  0.00  0.00    +0.000 A 
ATOM     15  O   UNL     1       0.798   3.755  20.459  0.00  0.00    +0.000 OA
ATOM     16  C   UNL     1       1.607   4.092  19.418  0.00  0.00    +0.000 A 
ENDBRANCH  11  12
ENDBRANCH   9  10
ENDBRANCH   4   9
TORSDOF 4
ENDMDL
MODEL 9
REMARK VINA RESULT:      -5.6      5.345      8.271
REMARK  Name = 
REMARK  4 active torsions:
REMARK  status: ('A' for Active; 'I' for Inactive)
REMARK    1  A    between atoms: N_4  and  O_5
REMARK    2  A    between atoms: N_4  and  C_6
REMARK    3  A    between atoms: C_6  and  C_7
REMARK    4  A    between atoms: C_8  and  C_9
REMARK                            x       y       z     vdW  Elec       q    Type
REMARK                         _______ _______ _______ _____ _____    ______ ____
ROOT
ATOM      1  N   UNL     1       7.345   5.169  14.647  0.00  0.00    +0.000 N 
ATOM      2  C   UNL     1       7.160   5.225  16.000  0.00  0.00    +0.000 C 
ATOM      3  O   UNL     1       7.837   4.527  16.743  0.00  0.00    +0.000 OA
ATOM      4  N   UNL     1       6.180   6.088  16.397  0.00  0.00    +0.000 N 
ATOM      5  H   UNL     1       8.148   4.605  14.395  0.00  0.00    +0.000 HD
ATOM      6  H   UNL     1       7.317   6.068  14.178  0.00  0.00    +0.000 HD
ENDROOT
BRANCH   4   7
ATOM      7  O   UNL     1       5.324   6.667  15.434  0.00  0.00    +0.000 OA
ATOM      8  H   UNL     1       5.296   5.969  14.752  0.00  0.00    +0.000 HD
ENDBRANCH   4   7
BRANCH   4   9
ATOM      9  C   UNL     1       5.690   6.195  17.762  0.00  0.00    +0.000 C 
BRANCH   9  10
ATOM     10  C   UNL     1       4.768   5.054  18.085  0.00  0.00    +0.000 C 
ATOM     11  C   UNL     1       3.442   5.065  17.867  0.00  0.00    +0.000 C 
BRANCH  11  12
ATOM     12  C   UNL     1       2.529   4.036  18.248  0.00  0.00    +0.000 A 
ATOM     13  C   UNL     1       1.474   4.064  19.197  0.00  0.00    +0.000 A 
ATOM     14  C   UNL     1       0.885   2.822  19.157  0.00  0.00    +0.000 A 
ATOM     15  O   UNL     1       1.509   2.028  18.248  0.00  0.00    +0.000 OA
ATOM     16  C   UNL     1       2.508   2.773  17.699  0.00  0.00    +0.000 A 
ENDBRANCH  11  12
ENDBRANCH   9  10
ENDBRANCH   4   9
TORSDOF 4
ENDMDL
