MODEL 1
REMARK VINA RESULT:      -6.6      0.000      0.000
REMARK  Name = 
REMARK  6 active torsions:
REMARK  status: ('A' for Active; 'I' for Inactive)
REMARK    1  A    between atoms: C_1  and  C_2
REMARK    2  A    between atoms: C_2  and  C_3
REMARK    3  A    between atoms: C_3  and  N_4
REMARK    4  A    between atoms: C_8  and  C_9
REMARK    5  A    between atoms: C_9  and  C_10
REMARK    6  A    between atoms: N_24  and  C_25
REMARK                            x       y       z     vdW  Elec       q    Type
REMARK                         _______ _______ _______ _____ _____    ______ ____
ROOT
ATOM      1  N   UNL     1      -2.876  11.304  19.023  0.00  0.00    +0.000 N 
ATOM      2  C   UNL     1      -4.086  11.998  19.238  0.00  0.00    +0.000 A 
ATOM      3  C   UNL     1      -5.364  11.830  18.689  0.00  0.00    +0.000 A 
ATOM      4  C   UNL     1      -6.409  12.621  19.176  0.00  0.00    +0.000 A 
ATOM      5  C   UNL     1      -6.204  13.561  20.189  0.00  0.00    +0.000 A 
ATOM      6  C   UNL     1      -4.904  13.785  20.662  0.00  0.00    +0.000 A 
ATOM      7  C   UNL     1      -3.828  13.053  20.122  0.00  0.00    +0.000 A 
ATOM      8  C   UNL     1      -2.448  13.080  20.125  0.00  0.00    +0.000 A 
ATOM      9  C   UNL     1      -1.582  13.997  20.715  0.00  0.00    +0.000 A 
ATOM     10  C   UNL     1      -0.079  13.760  20.443  0.00  0.00    +0.000 A 
ATOM     11  C   UNL     1       0.344  12.433  19.760  0.00  0.00    +0.000 A 
ATOM     12  C   UNL     1      -0.592  11.638  20.407  0.00  0.00    +0.000 A 
ATOM     13  C   UNL     1      -1.887  11.881  19.847  0.00  0.00    +0.000 A 
ATOM     14  C   UNL     1       0.091  10.430  20.955  0.00  0.00    +0.000 C 
ATOM     15  C   UNL     1      -0.204   9.653  19.767  0.00  0.00    +0.000 C 
ATOM     16  C   UNL     1       0.769  10.070  18.813  0.00  0.00    +0.000 A 
ATOM     17  N   UNL     1       0.978   9.075  17.996  0.00  0.00    +0.000 NA
ATOM     18  N   UNL     1       2.264   9.243  17.889  0.00  0.00    +0.000 N 
ATOM     19  C   UNL     1       2.882   7.950  17.587  0.00  0.00    +0.000 C 
ATOM     20  C   UNL     1       2.415  10.680  17.966  0.00  0.00    +0.000 A 
ATOM     21  C   UNL     1       1.477  11.494  18.782  0.00  0.00    +0.000 A 
ATOM     22  C   UNL     1       0.445  14.515  21.640  0.00  0.00    +0.000 C 
ATOM     23  O   UNL     1       1.516  14.515  22.238  0.00  0.00    +0.000 OA
ATOM     24  N   UNL     1      -0.647  15.252  22.223  0.00  0.00    +0.000 N 
ATOM     25  C   UNL     1      -1.960  14.839  21.845  0.00  0.00    +0.000 C 
ATOM     26  H   UNL     1      -0.533  15.696  23.127  0.00  0.00    +0.000 HD
ENDROOT
BRANCH   5  27
ATOM     27  C   UNL     1      -7.381  14.331  20.697  0.00  0.00    +0.000 C 
ATOM     28  C   UNL     1      -7.916  15.527  19.940  0.00  0.00    +0.000 C 
ATOM     29  O   UNL     1      -7.916  13.989  21.751  0.00  0.00    +0.000 OA
ENDBRANCH   5  27
BRANCH   1  30
ATOM     30  C   UNL     1      -2.684  10.474  17.828  0.00  0.00    +0.000 C 
BRANCH  30  32
ATOM     31  C   UNL     1      -2.888  10.210  15.362  0.00  0.00    +0.000 C 
ATOM     32  C   UNL     1      -2.528  11.181  16.485  0.00  0.00    +0.000 C 
ENDBRANCH  30  32
ENDBRANCH   1  30
TORSDOF 3
ENDMDL
MODEL 2
REMARK VINA RESULT:      -6.6      2.394      5.091
REMARK  Name = 
REMARK  6 active torsions:
REMARK  status: ('A' for Active; 'I' for Inactive)
REMARK    1  A    between atoms: C_1  and  C_2
REMARK    2  A    between atoms: C_2  and  C_3
REMARK    3  A    between atoms: C_3  and  N_4
REMARK    4  A    between atoms: C_8  and  C_9
REMARK    5  A    between atoms: C_9  and  C_10
REMARK    6  A    between atoms: N_24  and  C_25
REMARK                            x       y       z     vdW  Elec       q    Type
REMARK                         _______ _______ _______ _____ _____    ______ ____
ROOT
ATOM      1  N   UNL     1      -1.716  14.195  20.579  0.00  0.00    +0.000 N 
ATOM      2  C   UNL     1      -2.995  13.616  20.433  0.00  0.00    +0.000 A 
ATOM      3  C   UNL     1      -4.241  13.968  20.966  0.00  0.00    +0.000 A 
ATOM      4  C   UNL     1      -5.369  13.249  20.558  0.00  0.00    +0.000 A 
ATOM      5  C   UNL     1      -5.275  12.203  19.638  0.00  0.00    +0.000 A 
ATOM      6  C   UNL     1      -4.012  11.800  19.185  0.00  0.00    +0.000 A 
ATOM      7  C   UNL     1      -2.859  12.461  19.651  0.00  0.00    +0.000 A 
ATOM      8  C   UNL     1      -1.489  12.289  19.649  0.00  0.00    +0.000 A 
ATOM      9  C   UNL     1      -0.732  11.235  19.145  0.00  0.00    +0.000 A 
ATOM     10  C   UNL     1       0.791  11.336  19.391  0.00  0.00    +0.000 A 
ATOM     11  C   UNL     1       1.360  12.670  19.945  0.00  0.00    +0.000 A 
ATOM     12  C   UNL     1       0.504  13.495  19.227  0.00  0.00    +0.000 A 
ATOM     13  C   UNL     1      -0.803  13.443  19.811  0.00  0.00    +0.000 A 
ATOM     14  C   UNL     1       1.303  14.567  18.567  0.00  0.00    +0.000 C 
ATOM     15  C   UNL     1       1.105  15.478  19.677  0.00  0.00    +0.000 C 
ATOM     16  C   UNL     1       2.041  15.052  20.664  0.00  0.00    +0.000 A 
ATOM     17  N   UNL     1       2.362  16.092  21.384  0.00  0.00    +0.000 NA
ATOM     18  N   UNL     1       3.626  15.800  21.503  0.00  0.00    +0.000 N 
ATOM     19  C   UNL     1       4.378  17.043  21.680  0.00  0.00    +0.000 C 
ATOM     20  C   UNL     1       3.624  14.354  21.562  0.00  0.00    +0.000 A 
ATOM     21  C   UNL     1       2.596  13.571  20.828  0.00  0.00    +0.000 A 
ATOM     22  C   UNL     1       1.219  10.421  18.270  0.00  0.00    +0.000 C 
ATOM     23  O   UNL     1       2.278  10.252  17.672  0.00  0.00    +0.000 OA
ATOM     24  N   UNL     1       0.050   9.753  17.760  0.00  0.00    +0.000 N 
ATOM     25  C   UNL     1      -1.209  10.335  18.101  0.00  0.00    +0.000 C 
ATOM     26  H   UNL     1       0.105   9.217  16.902  0.00  0.00    +0.000 HD
ENDROOT
BRANCH   5  27
ATOM     27  C   UNL     1      -6.533  11.516  19.207  0.00  0.00    +0.000 C 
ATOM     28  C   UNL     1      -7.431  10.831  20.213  0.00  0.00    +0.000 C 
ATOM     29  O   UNL     1      -6.835  11.506  18.014  0.00  0.00    +0.000 OA
ENDBRANCH   5  27
BRANCH   1  30
ATOM     30  C   UNL     1      -1.424  15.109  21.690  0.00  0.00    +0.000 C 
BRANCH  30  32
ATOM     31  C   UNL     1      -1.435  13.343  23.443  0.00  0.00    +0.000 C 
ATOM     32  C   UNL     1      -0.675  14.550  22.896  0.00  0.00    +0.000 C 
ENDBRANCH  30  32
ENDBRANCH   1  30
TORSDOF 3
ENDMDL
MODEL 3
REMARK VINA RESULT:      -6.5      2.711      6.154
REMARK  Name = 
REMARK  6 active torsions:
REMARK  status: ('A' for Active; 'I' for Inactive)
REMARK    1  A    between atoms: C_1  and  C_2
REMARK    2  A    between atoms: C_2  and  C_3
REMARK    3  A    between atoms: C_3  and  N_4
REMARK    4  A    between atoms: C_8  and  C_9
REMARK    5  A    between atoms: C_9  and  C_10
REMARK    6  A    between atoms: N_24  and  C_25
REMARK                            x       y       z     vdW  Elec       q    Type
REMARK                         _______ _______ _______ _____ _____    ______ ____
ROOT
ATOM      1  N   UNL     1      -3.896  12.587  19.023  0.00  0.00    +0.000 N 
ATOM      2  C   UNL     1      -3.982  11.911  17.787  0.00  0.00    +0.000 A 
ATOM      3  C   UNL     1      -5.020  11.815  16.851  0.00  0.00    +0.000 A 
ATOM      4  C   UNL     1      -4.774  11.142  15.650  0.00  0.00    +0.000 A 
ATOM      5  C   UNL     1      -3.528  10.576  15.370  0.00  0.00    +0.000 A 
ATOM      6  C   UNL     1      -2.530  10.598  16.353  0.00  0.00    +0.000 A 
ATOM      7  C   UNL     1      -2.790  11.200  17.600  0.00  0.00    +0.000 A 
ATOM      8  C   UNL     1      -2.227  11.269  18.858  0.00  0.00    +0.000 A 
ATOM      9  C   UNL     1      -1.087  10.640  19.353  0.00  0.00    +0.000 A 
ATOM     10  C   UNL     1      -0.793  10.885  20.851  0.00  0.00    +0.000 A 
ATOM     11  C   UNL     1      -1.622  11.963  21.597  0.00  0.00    +0.000 A 
ATOM     12  C   UNL     1      -1.683  12.853  20.533  0.00  0.00    +0.000 A 
ATOM     13  C   UNL     1      -2.611  12.360  19.559  0.00  0.00    +0.000 A 
ATOM     14  C   UNL     1      -1.310  14.213  21.014  0.00  0.00    +0.000 C 
ATOM     15  C   UNL     1      -2.692  14.565  21.272  0.00  0.00    +0.000 C 
ATOM     16  C   UNL     1      -2.997  13.943  22.518  0.00  0.00    +0.000 A 
ATOM     17  N   UNL     1      -3.925  14.651  23.100  0.00  0.00    +0.000 NA
ATOM     18  N   UNL     1      -3.450  14.547  24.307  0.00  0.00    +0.000 N 
ATOM     19  C   UNL     1      -3.861  15.723  25.075  0.00  0.00    +0.000 C 
ATOM     20  C   UNL     1      -2.880  13.216  24.322  0.00  0.00    +0.000 A 
ATOM     21  C   UNL     1      -2.301  12.631  23.085  0.00  0.00    +0.000 A 
ATOM     22  C   UNL     1       0.683  10.571  20.801  0.00  0.00    +0.000 C 
ATOM     23  O   UNL     1       1.628  10.829  21.539  0.00  0.00    +0.000 OA
ATOM     24  N   UNL     1       0.976   9.977  19.522  0.00  0.00    +0.000 N 
ATOM     25  C   UNL     1      -0.005  10.162  18.500  0.00  0.00    +0.000 C 
ATOM     26  H   UNL     1       1.938   9.842  19.234  0.00  0.00    +0.000 HD
ENDROOT
BRANCH   5  27
ATOM     27  C   UNL     1      -3.324   9.920  14.041  0.00  0.00    +0.000 C 
ATOM     28  C   UNL     1      -4.496   9.611  13.136  0.00  0.00    +0.000 C 
ATOM     29  O   UNL     1      -2.184   9.623  13.684  0.00  0.00    +0.000 OA
ENDBRANCH   5  27
BRANCH   1  30
ATOM     30  C   UNL     1      -5.107  13.020  19.732  0.00  0.00    +0.000 C 
BRANCH  30  32
ATOM     31  C   UNL     1      -6.860  11.297  20.113  0.00  0.00    +0.000 C 
ATOM     32  C   UNL     1      -5.712  12.069  20.759  0.00  0.00    +0.000 C 
ENDBRANCH  30  32
ENDBRANCH   1  30
TORSDOF 3
ENDMDL
MODEL 4
REMARK VINA RESULT:      -6.4      2.430      4.495
REMARK  Name = 
REMARK  6 active torsions:
REMARK  status: ('A' for Active; 'I' for Inactive)
REMARK    1  A    between atoms: C_1  and  C_2
REMARK    2  A    between atoms: C_2  and  C_3
REMARK    3  A    between atoms: C_3  and  N_4
REMARK    4  A    between atoms: C_8  and  C_9
REMARK    5  A    between atoms: C_9  and  C_10
REMARK    6  A    between atoms: N_24  and  C_25
REMARK                            x       y       z     vdW  Elec       q    Type
REMARK                         _______ _______ _______ _____ _____    ______ ____
ROOT
ATOM      1  N   UNL     1      -1.626  12.826  21.597  0.00  0.00    +0.000 N 
ATOM      2  C   UNL     1      -2.498  13.530  22.454  0.00  0.00    +0.000 A 
ATOM      3  C   UNL     1      -2.374  13.914  23.796  0.00  0.00    +0.000 A 
ATOM      4  C   UNL     1      -3.381  14.703  24.360  0.00  0.00    +0.000 A 
ATOM      5  C   UNL     1      -4.492  15.112  23.619  0.00  0.00    +0.000 A 
ATOM      6  C   UNL     1      -4.650  14.643  22.308  0.00  0.00    +0.000 A 
ATOM      7  C   UNL     1      -3.685  13.781  21.753  0.00  0.00    +0.000 A 
ATOM      8  C   UNL     1      -3.536  12.956  20.656  0.00  0.00    +0.000 A 
ATOM      9  C   UNL     1      -4.446  12.657  19.645  0.00  0.00    +0.000 A 
ATOM     10  C   UNL     1      -3.964  11.617  18.606  0.00  0.00    +0.000 A 
ATOM     11  C   UNL     1      -2.474  11.186  18.634  0.00  0.00    +0.000 A 
ATOM     12  C   UNL     1      -1.972  12.440  18.955  0.00  0.00    +0.000 A 
ATOM     13  C   UNL     1      -2.244  12.719  20.333  0.00  0.00    +0.000 A 
ATOM     14  C   UNL     1      -0.843  12.762  18.036  0.00  0.00    +0.000 C 
ATOM     15  C   UNL     1       0.139  12.231  18.961  0.00  0.00    +0.000 C 
ATOM     16  C   UNL     1       0.076  10.818  18.781  0.00  0.00    +0.000 A 
ATOM     17  N   UNL     1       1.249  10.327  19.073  0.00  0.00    +0.000 NA
ATOM     18  N   UNL     1       1.274   9.438  18.122  0.00  0.00    +0.000 N 
ATOM     19  C   UNL     1       2.669   9.174  17.766  0.00  0.00    +0.000 C 
ATOM     20  C   UNL     1      -0.112   9.038  18.010  0.00  0.00    +0.000 A 
ATOM     21  C   UNL     1      -1.202  10.009  18.292  0.00  0.00    +0.000 A 
ATOM     22  C   UNL     1      -4.898  12.024  17.494  0.00  0.00    +0.000 C 
ATOM     23  O   UNL     1      -4.898  11.844  16.279  0.00  0.00    +0.000 OA
ATOM     24  N   UNL     1      -5.880  12.929  18.034  0.00  0.00    +0.000 N 
ATOM     25  C   UNL     1      -5.562  13.526  19.292  0.00  0.00    +0.000 C 
ATOM     26  H   UNL     1      -6.499  13.436  17.413  0.00  0.00    +0.000 HD
ENDROOT
BRANCH   5  27
ATOM     27  C   UNL     1      -5.500  16.001  24.275  0.00  0.00    +0.000 C 
ATOM     28  C   UNL     1      -5.073  17.237  25.036  0.00  0.00    +0.000 C 
ATOM     29  O   UNL     1      -6.695  15.716  24.199  0.00  0.00    +0.000 OA
ENDBRANCH   5  27
BRANCH   1  30
ATOM     30  C   UNL     1      -0.529  12.014  22.138  0.00  0.00    +0.000 C 
BRANCH  30  32
ATOM     31  C   UNL     1      -0.361   9.533  22.201  0.00  0.00    +0.000 C 
ATOM     32  C   UNL     1      -0.891  10.765  22.933  0.00  0.00    +0.000 C 
ENDBRANCH  30  32
ENDBRANCH   1  30
TORSDOF 3
ENDMDL
MODEL 5
REMARK VINA RESULT:      -6.4      3.121      6.827
REMARK  Name = 
REMARK  6 active torsions:
REMARK  status: ('A' for Active; 'I' for Inactive)
REMARK    1  A    between atoms: C_1  and  C_2
REMARK    2  A    between atoms: C_2  and  C_3
REMARK    3  A    between atoms: C_3  and  N_4
REMARK    4  A    between atoms: C_8  and  C_9
REMARK    5  A    between atoms: C_9  and  C_10
REMARK    6  A    between atoms: N_24  and  C_25
REMARK                            x       y       z     vdW  Elec       q    Type
REMARK                         _______ _______ _______ _____ _____    ______ ____
ROOT
ATOM      1  N   UNL     1      -1.953  12.950  20.532  0.00  0.00    +0.000 N 
ATOM      2  C   UNL     1      -2.076  12.358  19.257  0.00  0.00    +0.000 A 
ATOM      3  C   UNL     1      -1.160  12.216  18.206  0.00  0.00    +0.000 A 
ATOM      4  C   UNL     1      -1.547  11.483  17.080  0.00  0.00    +0.000 A 
ATOM      5  C   UNL     1      -2.811  10.896  16.987  0.00  0.00    +0.000 A 
ATOM      6  C   UNL     1      -3.748  11.125  18.002  0.00  0.00    +0.000 A 
ATOM      7  C   UNL     1      -3.401  11.930  19.105  0.00  0.00    +0.000 A 
ATOM      8  C   UNL     1      -4.018  12.562  20.166  0.00  0.00    +0.000 A 
ATOM      9  C   UNL     1      -5.372  12.636  20.485  0.00  0.00    +0.000 A 
ATOM     10  C   UNL     1      -5.716  13.507  21.715  0.00  0.00    +0.000 A 
ATOM     11  C   UNL     1      -4.552  14.014  22.606  0.00  0.00    +0.000 A 
ATOM     12  C   UNL     1      -3.785  12.862  22.503  0.00  0.00    +0.000 A 
ATOM     13  C   UNL     1      -3.186  12.808  21.203  0.00  0.00    +0.000 A 
ATOM     14  C   UNL     1      -3.344  12.447  23.866  0.00  0.00    +0.000 C 
ATOM     15  C   UNL     1      -2.098  13.179  23.749  0.00  0.00    +0.000 C 
ATOM     16  C   UNL     1      -2.450  14.535  24.011  0.00  0.00    +0.000 A 
ATOM     17  N   UNL     1      -1.402  15.129  24.510  0.00  0.00    +0.000 NA
ATOM     18  N   UNL     1      -2.046  15.843  25.389  0.00  0.00    +0.000 N 
ATOM     19  C   UNL     1      -1.153  16.115  26.516  0.00  0.00    +0.000 C 
ATOM     20  C   UNL     1      -3.292  16.145  24.717  0.00  0.00    +0.000 A 
ATOM     21  C   UNL     1      -3.880  15.181  23.750  0.00  0.00    +0.000 A 
ATOM     22  C   UNL     1      -7.047  12.868  22.025  0.00  0.00    +0.000 C 
ATOM     23  O   UNL     1      -7.760  12.838  23.024  0.00  0.00    +0.000 OA
ATOM     24  N   UNL     1      -7.410  12.019  20.919  0.00  0.00    +0.000 N 
ATOM     25  C   UNL     1      -6.355  11.663  20.025  0.00  0.00    +0.000 C 
ATOM     26  H   UNL     1      -8.193  11.381  21.005  0.00  0.00    +0.000 HD
ENDROOT
BRANCH   5  27
ATOM     27  C   UNL     1      -3.132  10.081  15.774  0.00  0.00    +0.000 C 
ATOM     28  C   UNL     1      -3.896  10.678  14.613  0.00  0.00    +0.000 C 
ATOM     29  O   UNL     1      -2.773   8.905  15.726  0.00  0.00    +0.000 OA
ENDBRANCH   5  27
BRANCH   1  30
ATOM     30  C   UNL     1      -0.871  13.899  20.823  0.00  0.00    +0.000 C 
BRANCH  30  32
ATOM     31  C   UNL     1      -1.754  16.224  20.776  0.00  0.00    +0.000 C 
ATOM     32  C   UNL     1      -0.855  15.219  20.059  0.00  0.00    +0.000 C 
ENDBRANCH  30  32
ENDBRANCH   1  30
TORSDOF 3
ENDMDL
MODEL 6
REMARK VINA RESULT:      -6.3      2.623      7.855
REMARK  Name = 
REMARK  6 active torsions:
REMARK  status: ('A' for Active; 'I' for Inactive)
REMARK    1  A    between atoms: C_1  and  C_2
REMARK    2  A    between atoms: C_2  and  C_3
REMARK    3  A    between atoms: C_3  and  N_4
REMARK    4  A    between atoms: C_8  and  C_9
REMARK    5  A    between atoms: C_9  and  C_10
REMARK    6  A    between atoms: N_24  and  C_25
REMARK                            x       y       z     vdW  Elec       q    Type
REMARK                         _______ _______ _______ _____ _____    ______ ____
ROOT
ATOM      1  N   UNL     1      -1.913  13.121  21.012  0.00  0.00    +0.000 N 
ATOM      2  C   UNL     1      -0.897  12.330  20.433  0.00  0.00    +0.000 A 
ATOM      3  C   UNL     1       0.492  12.324  20.611  0.00  0.00    +0.000 A 
ATOM      4  C   UNL     1       1.244  11.341  19.960  0.00  0.00    +0.000 A 
ATOM      5  C   UNL     1       0.641  10.376  19.149  0.00  0.00    +0.000 A 
ATOM      6  C   UNL     1      -0.736  10.452  18.904  0.00  0.00    +0.000 A 
ATOM      7  C   UNL     1      -1.494  11.486  19.487  0.00  0.00    +0.000 A 
ATOM      8  C   UNL     1      -2.750  12.047  19.370  0.00  0.00    +0.000 A 
ATOM      9  C   UNL     1      -3.778  11.737  18.483  0.00  0.00    +0.000 A 
ATOM     10  C   UNL     1      -5.033  12.634  18.584  0.00  0.00    +0.000 A 
ATOM     11  C   UNL     1      -5.141  13.616  19.780  0.00  0.00    +0.000 A 
ATOM     12  C   UNL     1      -4.564  12.764  20.712  0.00  0.00    +0.000 A 
ATOM     13  C   UNL     1      -3.151  12.702  20.483  0.00  0.00    +0.000 A 
ATOM     14  C   UNL     1      -5.419  12.728  21.933  0.00  0.00    +0.000 C 
ATOM     15  C   UNL     1      -4.661  13.789  22.567  0.00  0.00    +0.000 C 
ATOM     16  C   UNL     1      -5.147  14.987  21.966  0.00  0.00    +0.000 A 
ATOM     17  N   UNL     1      -5.002  15.953  22.831  0.00  0.00    +0.000 NA
ATOM     18  N   UNL     1      -6.127  16.553  22.567  0.00  0.00    +0.000 N 
ATOM     19  C   UNL     1      -6.570  17.266  23.766  0.00  0.00    +0.000 C 
ATOM     20  C   UNL     1      -6.289  16.337  21.145  0.00  0.00    +0.000 A 
ATOM     21  C   UNL     1      -5.770  15.098  20.508  0.00  0.00    +0.000 A 
ATOM     22  C   UNL     1      -6.003  11.662  17.958  0.00  0.00    +0.000 C 
ATOM     23  O   UNL     1      -7.227  11.564  17.966  0.00  0.00    +0.000 OA
ATOM     24  N   UNL     1      -5.249  10.581  17.377  0.00  0.00    +0.000 N 
ATOM     25  C   UNL     1      -3.899  10.443  17.822  0.00  0.00    +0.000 C 
ATOM     26  H   UNL     1      -5.726   9.750  17.048  0.00  0.00    +0.000 HD
ENDROOT
BRANCH   5  27
ATOM     27  C   UNL     1       1.505   9.323  18.530  0.00  0.00    +0.000 C 
ATOM     28  C   UNL     1       1.930   8.102  19.315  0.00  0.00    +0.000 C 
ATOM     29  O   UNL     1       1.879   9.458  17.365  0.00  0.00    +0.000 OA
ENDBRANCH   5  27
BRANCH   1  30
ATOM     30  C   UNL     1      -1.594  14.397  21.665  0.00  0.00    +0.000 C 
BRANCH  30  32
ATOM     31  C   UNL     1      -0.852  15.799  19.749  0.00  0.00    +0.000 C 
ATOM     32  C   UNL     1      -1.862  15.682  20.889  0.00  0.00    +0.000 C 
ENDBRANCH  30  32
ENDBRANCH   1  30
TORSDOF 3
ENDMDL
MODEL 7
REMARK VINA RESULT:      -6.3      2.886      4.928
REMARK  Name = 
REMARK  6 active torsions:
REMARK  status: ('A' for Active; 'I' for Inactive)
REMARK    1  A    between atoms: C_1  and  C_2
REMARK    2  A    between atoms: C_2  and  C_3
REMARK    3  A    between atoms: C_3  and  N_4
REMARK    4  A    between atoms: C_8  and  C_9
REMARK    5  A    between atoms: C_9  and  C_10
REMARK    6  A    between atoms: N_24  and  C_25
REMARK                            x       y       z     vdW  Elec       q    Type
REMARK                         _______ _______ _______ _____ _____    ______ ____
ROOT
ATOM      1  N   UNL     1      -1.616  13.810  21.844  0.00  0.00    +0.000 N 
ATOM      2  C   UNL     1      -2.822  13.546  22.528  0.00  0.00    +0.000 A 
ATOM      3  C   UNL     1      -3.188  13.724  23.868  0.00  0.00    +0.000 A 
ATOM      4  C   UNL     1      -4.510  13.459  24.239  0.00  0.00    +0.000 A 
ATOM      5  C   UNL     1      -5.459  13.029  23.309  0.00  0.00    +0.000 A 
ATOM      6  C   UNL     1      -5.057  12.765  21.993  0.00  0.00    +0.000 A 
ATOM      7  C   UNL     1      -3.710  12.948  21.624  0.00  0.00    +0.000 A 
ATOM      8  C   UNL     1      -2.868  12.637  20.575  0.00  0.00    +0.000 A 
ATOM      9  C   UNL     1      -3.129  11.907  19.418  0.00  0.00    +0.000 A 
ATOM     10  C   UNL     1      -1.914  11.684  18.488  0.00  0.00    +0.000 A 
ATOM     11  C   UNL     1      -0.607  12.465  18.785  0.00  0.00    +0.000 A 
ATOM     12  C   UNL     1      -1.233  13.637  19.185  0.00  0.00    +0.000 A 
ATOM     13  C   UNL     1      -1.792  13.452  20.491  0.00  0.00    +0.000 A 
ATOM     14  C   UNL     1      -0.601  14.790  18.481  0.00  0.00    +0.000 C 
ATOM     15  C   UNL     1       0.328  15.021  19.570  0.00  0.00    +0.000 C 
ATOM     16  C   UNL     1       1.346  14.040  19.388  0.00  0.00    +0.000 A 
ATOM     17  N   UNL     1       2.452  14.517  19.888  0.00  0.00    +0.000 NA
ATOM     18  N   UNL     1       3.241  14.054  18.961  0.00  0.00    +0.000 N 
ATOM     19  C   UNL     1       4.410  14.929  18.862  0.00  0.00    +0.000 C 
ATOM     20  C   UNL     1       2.624  12.795  18.604  0.00  0.00    +0.000 A 
ATOM     21  C   UNL     1       1.149  12.629  18.681  0.00  0.00    +0.000 A 
ATOM     22  C   UNL     1      -2.697  11.428  17.224  0.00  0.00    +0.000 C 
ATOM     23  O   UNL     1      -2.413  11.462  16.030  0.00  0.00    +0.000 OA
ATOM     24  N   UNL     1      -4.084  11.262  17.576  0.00  0.00    +0.000 N 
ATOM     25  C   UNL     1      -4.468  11.735  18.867  0.00  0.00    +0.000 C 
ATOM     26  H   UNL     1      -4.792  11.239  16.851  0.00  0.00    +0.000 HD
ENDROOT
BRANCH   5  27
ATOM     27  C   UNL     1      -6.867  12.818  23.770  0.00  0.00    +0.000 C 
ATOM     28  C   UNL     1      -7.746  13.988  24.152  0.00  0.00    +0.000 C 
ATOM     29  O   UNL     1      -7.311  11.673  23.844  0.00  0.00    +0.000 OA
ENDBRANCH   5  27
BRANCH   1  30
ATOM     30  C   UNL     1      -0.356  13.982  22.576  0.00  0.00    +0.000 C 
BRANCH  30  32
ATOM     31  C   UNL     1      -1.003  16.384  22.522  0.00  0.00    +0.000 C 
ATOM     32  C   UNL     1      -0.030  15.369  23.121  0.00  0.00    +0.000 C 
ENDBRANCH  30  32
ENDBRANCH   1  30
TORSDOF 3
ENDMDL
MODEL 8
REMARK VINA RESULT:      -6.3      8.145     11.470
REMARK  Name = 
REMARK  6 active torsions:
REMARK  status: ('A' for Active; 'I' for Inactive)
REMARK    1  A    between atoms: C_1  and  C_2
REMARK    2  A    between atoms: C_2  and  C_3
REMARK    3  A    between atoms: C_3  and  N_4
REMARK    4  A    between atoms: C_8  and  C_9
REMARK    5  A    between atoms: C_9  and  C_10
REMARK    6  A    between atoms: N_24  and  C_25
REMARK                            x       y       z     vdW  Elec       q    Type
REMARK                         _______ _______ _______ _____ _____    ______ ____
ROOT
ATOM      1  N   UNL     1       8.899  14.279  21.803  0.00  0.00    +0.000 N 
ATOM      2  C   UNL     1       8.249  13.350  22.644  0.00  0.00    +0.000 A 
ATOM      3  C   UNL     1       8.750  12.337  23.471  0.00  0.00    +0.000 A 
ATOM      4  C   UNL     1       7.852  11.628  24.275  0.00  0.00    +0.000 A 
ATOM      5  C   UNL     1       6.484  11.912  24.271  0.00  0.00    +0.000 A 
ATOM      6  C   UNL     1       5.986  12.862  23.371  0.00  0.00    +0.000 A 
ATOM      7  C   UNL     1       6.867  13.526  22.495  0.00  0.00    +0.000 A 
ATOM      8  C   UNL     1       6.810  14.327  21.373  0.00  0.00    +0.000 A 
ATOM      9  C   UNL     1       5.701  14.746  20.641  0.00  0.00    +0.000 A 
ATOM     10  C   UNL     1       6.018  15.580  19.378  0.00  0.00    +0.000 A 
ATOM     11  C   UNL     1       7.475  16.070  19.166  0.00  0.00    +0.000 A 
ATOM     12  C   UNL     1       7.731  16.329  20.506  0.00  0.00    +0.000 A 
ATOM     13  C   UNL     1       7.913  15.089  21.200  0.00  0.00    +0.000 A 
ATOM     14  C   UNL     1       8.334  17.686  20.632  0.00  0.00    +0.000 C 
ATOM     15  C   UNL     1       9.682  17.157  20.569  0.00  0.00    +0.000 C 
ATOM     16  C   UNL     1       9.911  16.919  19.183  0.00  0.00    +0.000 A 
ATOM     17  N   UNL     1      11.193  17.030  18.967  0.00  0.00    +0.000 NA
ATOM     18  N   UNL     1      11.093  17.636  17.818  0.00  0.00    +0.000 N 
ATOM     19  C   UNL     1      12.284  18.464  17.621  0.00  0.00    +0.000 C 
ATOM     20  C   UNL     1       9.906  17.046  17.238  0.00  0.00    +0.000 A 
ATOM     21  C   UNL     1       8.787  16.596  18.107  0.00  0.00    +0.000 A 
ATOM     22  C   UNL     1       4.675  16.260  19.267  0.00  0.00    +0.000 C 
ATOM     23  O   UNL     1       4.283  17.269  18.688  0.00  0.00    +0.000 OA
ATOM     24  N   UNL     1       3.763  15.613  20.175  0.00  0.00    +0.000 N 
ATOM     25  C   UNL     1       4.355  14.809  21.196  0.00  0.00    +0.000 C 
ATOM     26  H   UNL     1       2.857  16.025  20.363  0.00  0.00    +0.000 HD
ENDROOT
BRANCH   5  27
ATOM     27  C   UNL     1       5.594  11.149  25.200  0.00  0.00    +0.000 C 
ATOM     28  C   UNL     1       5.762  11.248  26.700  0.00  0.00    +0.000 C 
ATOM     29  O   UNL     1       4.715  10.424  24.732  0.00  0.00    +0.000 OA
ENDBRANCH   5  27
BRANCH   1  30
ATOM     30  C   UNL     1      10.281  14.059  21.362  0.00  0.00    +0.000 C 
BRANCH  30  32
ATOM     31  C   UNL     1      10.334  11.893  20.139  0.00  0.00    +0.000 C 
ATOM     32  C   UNL     1      10.501  13.405  20.001  0.00  0.00    +0.000 C 
ENDBRANCH  30  32
ENDBRANCH   1  30
TORSDOF 3
ENDMDL
MODEL 9
REMARK VINA RESULT:      -6.2      3.266      7.868
REMARK  Name = 
REMARK  6 active torsions:
REMARK  status: ('A' for Active; 'I' for Inactive)
REMARK    1  A    between atoms: C_1  and  C_2
REMARK    2  A    between atoms: C_2  and  C_3
REMARK    3  A    between atoms: C_3  and  N_4
REMARK    4  A    between atoms: C_8  and  C_9
REMARK    5  A    between atoms: C_9  and  C_10
REMARK    6  A    between atoms: N_24  and  C_25
REMARK                            x       y       z     vdW  Elec       q    Type
REMARK                         _______ _______ _______ _____ _____    ______ ____
ROOT
ATOM      1  N   UNL     1       0.643  15.268  21.079  0.00  0.00    +0.000 N 
ATOM      2  C   UNL     1       1.833  15.803  20.540  0.00  0.00    +0.000 A 
ATOM      3  C   UNL     1       2.423  17.067  20.663  0.00  0.00    +0.000 A 
ATOM      4  C   UNL     1       3.677  17.277  20.083  0.00  0.00    +0.000 A 
ATOM      5  C   UNL     1       4.344  16.262  19.394  0.00  0.00    +0.000 A 
ATOM      6  C   UNL     1       3.702  15.032  19.198  0.00  0.00    +0.000 A 
ATOM      7  C   UNL     1       2.403  14.833  19.706  0.00  0.00    +0.000 A 
ATOM      8  C   UNL     1       1.367  13.929  19.584  0.00  0.00    +0.000 A 
ATOM      9  C   UNL     1       1.268  12.801  18.773  0.00  0.00    +0.000 A 
ATOM     10  C   UNL     1      -0.086  12.058  18.835  0.00  0.00    +0.000 A 
ATOM     11  C   UNL     1      -1.103  12.470  19.933  0.00  0.00    +0.000 A 
ATOM     12  C   UNL     1      -0.155  12.702  20.920  0.00  0.00    +0.000 A 
ATOM     13  C   UNL     1       0.525  13.931  20.643  0.00  0.00    +0.000 A 
ATOM     14  C   UNL     1      -0.577  12.010  22.172  0.00  0.00    +0.000 C 
ATOM     15  C   UNL     1      -1.252  13.193  22.668  0.00  0.00    +0.000 C 
ATOM     16  C   UNL     1      -2.496  13.217  21.972  0.00  0.00    +0.000 A 
ATOM     17  N   UNL     1      -3.365  13.825  22.732  0.00  0.00    +0.000 NA
ATOM     18  N   UNL     1      -4.370  13.045  22.455  0.00  0.00    +0.000 N 
ATOM     19  C   UNL     1      -5.288  13.041  23.594  0.00  0.00    +0.000 C 
ATOM     20  C   UNL     1      -4.142  12.697  21.068  0.00  0.00    +0.000 A 
ATOM     21  C   UNL     1      -2.759  12.589  20.535  0.00  0.00    +0.000 A 
ATOM     22  C   UNL     1       0.416  10.722  18.346  0.00  0.00    +0.000 C 
ATOM     23  O   UNL     1      -0.022   9.577  18.412  0.00  0.00    +0.000 OA
ATOM     24  N   UNL     1       1.755  10.897  17.845  0.00  0.00    +0.000 N 
ATOM     25  C   UNL     1       2.428  12.091  18.247  0.00  0.00    +0.000 C 
ATOM     26  H   UNL     1       2.322  10.089  17.618  0.00  0.00    +0.000 HD
ENDROOT
BRANCH   5  27
ATOM     27  C   UNL     1       5.708  16.545  18.848  0.00  0.00    +0.000 C 
ATOM     28  C   UNL     1       6.560  15.439  18.266  0.00  0.00    +0.000 C 
ATOM     29  O   UNL     1       6.142  17.696  18.879  0.00  0.00    +0.000 OA
ENDBRANCH   5  27
BRANCH   1  30
ATOM     30  C   UNL     1      -0.415  16.147  21.590  0.00  0.00    +0.000 C 
BRANCH  30  32
ATOM     31  C   UNL     1      -1.175  16.951  19.362  0.00  0.00    +0.000 C 
ATOM     32  C   UNL     1      -1.634  16.388  20.706  0.00  0.00    +0.000 C 
ENDBRANCH  30  32
ENDBRANCH   1  30
TORSDOF 3
ENDMDL
