MODEL 1
REMARK VINA RESULT:      -8.1      0.000      0.000
REMARK  Name = 
REMARK  7 active torsions:
REMARK  status: ('A' for Active; 'I' for Inactive)
REMARK    1  A    between atoms: C_1  and  N_2
REMARK    2  A    between atoms: C_3  and  C_5
REMARK    3  A    between atoms: C_9  and  N_10
REMARK    4  A    between atoms: C_15  and  N_16
REMARK    5  A    between atoms: C_18  and  O_19
REMARK    6  A    between atoms: O_19  and  C_20
REMARK    7  A    between atoms: C_25  and  C_26
REMARK                            x       y       z     vdW  Elec       q    Type
REMARK                         _______ _______ _______ _____ _____    ______ ____
ROOT
ATOM      1  N   UNL     1       3.792   5.472  19.023  0.00  0.00    +0.000 N 
ATOM      2  C   UNL     1       3.065   6.670  19.085  0.00  0.00    +0.000 A 
ATOM      3  N   UNL     1       3.192   7.547  18.071  0.00  0.00    +0.000 NA
ATOM      4  C   UNL     1       2.467   8.667  18.129  0.00  0.00    +0.000 A 
ATOM      5  C   UNL     1       1.612   8.944  19.158  0.00  0.00    +0.000 A 
ATOM      6  C   UNL     1       1.537   8.005  20.170  0.00  0.00    +0.000 A 
ATOM      7  N   UNL     1       2.269   6.868  20.147  0.00  0.00    +0.000 NA
ATOM      8  H   UNL     1       3.703   4.975  19.901  0.00  0.00    +0.000 HD
ENDROOT
BRANCH   1  13
ATOM      9  C   UNL     1       6.286   4.970  16.298  0.00  0.00    +0.000 A 
ATOM     10  C   UNL     1       7.466   4.860  17.039  0.00  0.00    +0.000 A 
ATOM     11  C   UNL     1       7.429   4.995  18.429  0.00  0.00    +0.000 A 
ATOM     12  C   UNL     1       6.213   5.226  19.082  0.00  0.00    +0.000 A 
ATOM     13  C   UNL     1       5.020   5.305  18.357  0.00  0.00    +0.000 A 
ATOM     14  C   UNL     1       5.081   5.232  16.960  0.00  0.00    +0.000 A 
BRANCH   9  17
ATOM     15  C   UNL     1       5.862   3.313  12.922  0.00  0.00    +0.000 C 
ATOM     16  N   UNL     1       5.816   3.616  14.328  0.00  0.00    +0.000 N 
ATOM     17  C   UNL     1       6.328   4.802  14.819  0.00  0.00    +0.000 C 
ATOM     18  O   UNL     1       6.824   5.669  14.109  0.00  0.00    +0.000 OA
ATOM     19  H   UNL     1       5.626   2.858  14.971  0.00  0.00    +0.000 HD
ENDBRANCH   9  17
ENDBRANCH   1  13
BRANCH   6  20
ATOM     20  N   UNL     1       0.672   8.286  21.259  0.00  0.00    +0.000 N 
ATOM     21  C   UNL     1      -0.664   8.795  21.147  0.00  0.00    +0.000 C 
ATOM     22  C   UNL     1      -0.348   9.843  22.222  0.00  0.00    +0.000 C 
ATOM     23  C   UNL     1       1.031   9.180  22.324  0.00  0.00    +0.000 C 
BRANCH  22  24
ATOM     24  O   UNL     1      -0.410  11.216  21.766  0.00  0.00    +0.000 OA
BRANCH  24  25
ATOM     25  C   UNL     1      -1.128  12.135  22.487  0.00  0.00    +0.000 A 
ATOM     26  C   UNL     1      -0.525  13.384  22.624  0.00  0.00    +0.000 A 
ATOM     27  C   UNL     1      -1.159  14.394  23.350  0.00  0.00    +0.000 A 
ATOM     28  C   UNL     1      -2.398  14.157  23.952  0.00  0.00    +0.000 A 
ATOM     29 CL   UNL     1      -3.111  15.454  24.840  0.00  0.00    +0.000 Cl
ATOM     30  C   UNL     1      -3.017  12.904  23.826  0.00  0.00    +0.000 A 
ATOM     31  C   UNL     1      -4.341  12.554  24.448  0.00  0.00    +0.000 C 
ATOM     32  C   UNL     1      -2.370  11.902  23.077  0.00  0.00    +0.000 A 
ENDBRANCH  24  25
ENDBRANCH  22  24
ENDBRANCH   6  20
TORSDOF 5
ENDMDL
MODEL 2
REMARK VINA RESULT:      -7.8      4.482      9.737
REMARK  Name = 
REMARK  7 active torsions:
REMARK  status: ('A' for Active; 'I' for Inactive)
REMARK    1  A    between atoms: C_1  and  N_2
REMARK    2  A    between atoms: C_3  and  C_5
REMARK    3  A    between atoms: C_9  and  N_10
REMARK    4  A    between atoms: C_15  and  N_16
REMARK    5  A    between atoms: C_18  and  O_19
REMARK    6  A    between atoms: O_19  and  C_20
REMARK    7  A    between atoms: C_25  and  C_26
REMARK                            x       y       z     vdW  Elec       q    Type
REMARK                         _______ _______ _______ _____ _____    ______ ____
ROOT
ATOM      1  N   UNL     1       0.708   9.247  21.006  0.00  0.00    +0.000 N 
ATOM      2  C   UNL     1       1.290   8.170  20.321  0.00  0.00    +0.000 A 
ATOM      3  N   UNL     1       1.929   8.421  19.162  0.00  0.00    +0.000 NA
ATOM      4  C   UNL     1       2.507   7.390  18.541  0.00  0.00    +0.000 A 
ATOM      5  C   UNL     1       2.479   6.116  19.035  0.00  0.00    +0.000 A 
ATOM      6  C   UNL     1       1.798   5.929  20.224  0.00  0.00    +0.000 A 
ATOM      7  N   UNL     1       1.190   6.950  20.869  0.00  0.00    +0.000 NA
ATOM      8  H   UNL     1       0.157   8.899  21.781  0.00  0.00    +0.000 HD
ENDROOT
BRANCH   1  13
ATOM      9  C   UNL     1      -1.291  11.541  18.851  0.00  0.00    +0.000 A 
ATOM     10  C   UNL     1      -0.666  12.762  19.116  0.00  0.00    +0.000 A 
ATOM     11  C   UNL     1       0.383  12.821  20.037  0.00  0.00    +0.000 A 
ATOM     12  C   UNL     1       0.819  11.658  20.684  0.00  0.00    +0.000 A 
ATOM     13  C   UNL     1       0.225  10.423  20.403  0.00  0.00    +0.000 A 
ATOM     14  C   UNL     1      -0.867  10.391  19.527  0.00  0.00    +0.000 A 
BRANCH   9  17
ATOM     15  C   UNL     1      -3.008  11.002  15.522  0.00  0.00    +0.000 C 
ATOM     16  N   UNL     1      -2.043  11.041  16.588  0.00  0.00    +0.000 N 
ATOM     17  C   UNL     1      -2.392  11.480  17.851  0.00  0.00    +0.000 C 
ATOM     18  O   UNL     1      -3.525  11.838  18.152  0.00  0.00    +0.000 OA
ATOM     19  H   UNL     1      -1.063  10.972  16.345  0.00  0.00    +0.000 HD
ENDBRANCH   9  17
ENDBRANCH   1  13
BRANCH   6  20
ATOM     20  N   UNL     1       1.738   4.608  20.740  0.00  0.00    +0.000 N 
ATOM     21  C   UNL     1       2.687   4.026  21.642  0.00  0.00    +0.000 C 
ATOM     22  C   UNL     1       2.752   2.774  20.758  0.00  0.00    +0.000 C 
ATOM     23  C   UNL     1       1.676   3.447  19.896  0.00  0.00    +0.000 C 
BRANCH  22  24
ATOM     24  O   UNL     1       4.045   2.523  20.157  0.00  0.00    +0.000 OA
BRANCH  24  25
ATOM     25  C   UNL     1       4.455   3.287  19.094  0.00  0.00    +0.000 A 
ATOM     26  C   UNL     1       3.857   2.975  17.874  0.00  0.00    +0.000 A 
ATOM     27  C   UNL     1       4.209   3.678  16.721  0.00  0.00    +0.000 A 
ATOM     28  C   UNL     1       5.168   4.692  16.779  0.00  0.00    +0.000 A 
ATOM     29 CL   UNL     1       5.554   5.507  15.306  0.00  0.00    +0.000 Cl
ATOM     30  C   UNL     1       5.781   5.017  17.999  0.00  0.00    +0.000 A 
ATOM     31  C   UNL     1       6.830   6.083  18.155  0.00  0.00    +0.000 C 
ATOM     32  C   UNL     1       5.403   4.308  19.155  0.00  0.00    +0.000 A 
ENDBRANCH  24  25
ENDBRANCH  22  24
ENDBRANCH   6  20
TORSDOF 5
ENDMDL
MODEL 3
REMARK VINA RESULT:      -7.7      3.571      9.929
REMARK  Name = 
REMARK  7 active torsions:
REMARK  status: ('A' for Active; 'I' for Inactive)
REMARK    1  A    between atoms: C_1  and  N_2
REMARK    2  A    between atoms: C_3  and  C_5
REMARK    3  A    between atoms: C_9  and  N_10
REMARK    4  A    between atoms: C_15  and  N_16
REMARK    5  A    between atoms: C_18  and  O_19
REMARK    6  A    between atoms: O_19  and  C_20
REMARK    7  A    between atoms: C_25  and  C_26
REMARK                            x       y       z     vdW  Elec       q    Type
REMARK                         _______ _______ _______ _____ _____    ______ ____
ROOT
ATOM      1  N   UNL     1       1.211   8.160  21.651  0.00  0.00    +0.000 N 
ATOM      2  C   UNL     1       1.626   7.621  20.425  0.00  0.00    +0.000 A 
ATOM      3  N   UNL     1       1.819   8.462  19.390  0.00  0.00    +0.000 NA
ATOM      4  C   UNL     1       2.247   7.936  18.239  0.00  0.00    +0.000 A 
ATOM      5  C   UNL     1       2.496   6.602  18.082  0.00  0.00    +0.000 A 
ATOM      6  C   UNL     1       2.267   5.795  19.181  0.00  0.00    +0.000 A 
ATOM      7  N   UNL     1       1.821   6.295  20.355  0.00  0.00    +0.000 NA
ATOM      8  H   UNL     1       0.982   7.411  22.292  0.00  0.00    +0.000 HD
ENDROOT
BRANCH   1  13
ATOM      9  C   UNL     1      -0.321  11.484  20.942  0.00  0.00    +0.000 A 
ATOM     10  C   UNL     1      -0.972  11.737  22.153  0.00  0.00    +0.000 A 
ATOM     11  C   UNL     1      -0.932  10.786  23.176  0.00  0.00    +0.000 A 
ATOM     12  C   UNL     1      -0.230   9.588  22.997  0.00  0.00    +0.000 A 
ATOM     13  C   UNL     1       0.454   9.337  21.803  0.00  0.00    +0.000 A 
ATOM     14  C   UNL     1       0.350  10.270  20.765  0.00  0.00    +0.000 A 
BRANCH   9  17
ATOM     15  C   UNL     1      -0.171  14.899  19.319  0.00  0.00    +0.000 C 
ATOM     16  N   UNL     1      -0.107  13.813  20.261  0.00  0.00    +0.000 N 
ATOM     17  C   UNL     1      -0.348  12.511  19.865  0.00  0.00    +0.000 C 
ATOM     18  O   UNL     1      -0.605  12.193  18.709  0.00  0.00    +0.000 OA
ATOM     19  H   UNL     1      -0.121  14.038  21.247  0.00  0.00    +0.000 HD
ENDBRANCH   9  17
ENDBRANCH   1  13
BRANCH   6  20
ATOM     20  N   UNL     1       2.499   4.404  19.028  0.00  0.00    +0.000 N 
ATOM     21  C   UNL     1       3.732   3.731  19.313  0.00  0.00    +0.000 C 
ATOM     22  C   UNL     1       3.642   3.008  17.963  0.00  0.00    +0.000 C 
ATOM     23  C   UNL     1       2.293   3.715  17.784  0.00  0.00    +0.000 C 
BRANCH  22  24
ATOM     24  O   UNL     1       4.705   3.327  17.033  0.00  0.00    +0.000 OA
BRANCH  24  25
ATOM     25  C   UNL     1       5.469   4.447  17.239  0.00  0.00    +0.000 A 
ATOM     26  C   UNL     1       5.248   5.490  16.341  0.00  0.00    +0.000 A 
ATOM     27  C   UNL     1       5.979   6.673  16.446  0.00  0.00    +0.000 A 
ATOM     28  C   UNL     1       6.945   6.818  17.446  0.00  0.00    +0.000 A 
ATOM     29 CL   UNL     1       7.812   8.310  17.503  0.00  0.00    +0.000 Cl
ATOM     30  C   UNL     1       7.181   5.777  18.357  0.00  0.00    +0.000 A 
ATOM     31  C   UNL     1       8.206   5.838  19.456  0.00  0.00    +0.000 C 
ATOM     32  C   UNL     1       6.423   4.595  18.245  0.00  0.00    +0.000 A 
ENDBRANCH  24  25
ENDBRANCH  22  24
ENDBRANCH   6  20
TORSDOF 5
ENDMDL
MODEL 4
REMARK VINA RESULT:      -7.7      4.084      9.846
REMARK  Name = 
REMARK  7 active torsions:
REMARK  status: ('A' for Active; 'I' for Inactive)
REMARK    1  A    between atoms: C_1  and  N_2
REMARK    2  A    between atoms: C_3  and  C_5
REMARK    3  A    between atoms: C_9  and  N_10
REMARK    4  A    between atoms: C_15  and  N_16
REMARK    5  A    between atoms: C_18  and  O_19
REMARK    6  A    between atoms: O_19  and  C_20
REMARK    7  A    between atoms: C_25  and  C_26
REMARK                            x       y       z     vdW  Elec       q    Type
REMARK                         _______ _______ _______ _____ _____    ______ ____
ROOT
ATOM      1  N   UNL     1       1.321   9.817  17.689  0.00  0.00    +0.000 N 
ATOM      2  C   UNL     1       1.977   8.719  18.265  0.00  0.00    +0.000 A 
ATOM      3  N   UNL     1       1.490   8.214  19.414  0.00  0.00    +0.000 NA
ATOM      4  C   UNL     1       2.105   7.147  19.930  0.00  0.00    +0.000 A 
ATOM      5  C   UNL     1       3.187   6.559  19.339  0.00  0.00    +0.000 A 
ATOM      6  C   UNL     1       3.642   7.134  18.167  0.00  0.00    +0.000 A 
ATOM      7  N   UNL     1       3.049   8.223  17.628  0.00  0.00    +0.000 NA
ATOM      8  H   UNL     1       1.866  10.169  16.912  0.00  0.00    +0.000 HD
ENDROOT
BRANCH   1  13
ATOM      9  C   UNL     1      -1.531  11.861  18.949  0.00  0.00    +0.000 A 
ATOM     10  C   UNL     1      -0.856  12.795  19.740  0.00  0.00    +0.000 A 
ATOM     11  C   UNL     1       0.531  12.713  19.881  0.00  0.00    +0.000 A 
ATOM     12  C   UNL     1       1.248  11.707  19.222  0.00  0.00    +0.000 A 
ATOM     13  C   UNL     1       0.590  10.786  18.401  0.00  0.00    +0.000 A 
ATOM     14  C   UNL     1      -0.807  10.842  18.321  0.00  0.00    +0.000 A 
BRANCH   9  17
ATOM     15  C   UNL     1      -4.889  11.935  17.207  0.00  0.00    +0.000 C 
ATOM     16  N   UNL     1      -3.488  11.790  17.501  0.00  0.00    +0.000 N 
ATOM     17  C   UNL     1      -3.007  11.968  18.784  0.00  0.00    +0.000 C 
ATOM     18  O   UNL     1      -3.723  12.231  19.743  0.00  0.00    +0.000 OA
ATOM     19  H   UNL     1      -2.838  11.795  16.726  0.00  0.00    +0.000 HD
ENDBRANCH   9  17
ENDBRANCH   1  13
BRANCH   6  20
ATOM     20  N   UNL     1       4.780   6.550  17.553  0.00  0.00    +0.000 N 
ATOM     21  C   UNL     1       4.771   5.806  16.328  0.00  0.00    +0.000 C 
ATOM     22  C   UNL     1       5.618   4.713  16.993  0.00  0.00    +0.000 C 
ATOM     23  C   UNL     1       5.636   5.617  18.231  0.00  0.00    +0.000 C 
BRANCH  22  24
ATOM     24  O   UNL     1       4.966   3.425  17.102  0.00  0.00    +0.000 OA
BRANCH  24  25
ATOM     25  C   UNL     1       4.072   3.204  18.118  0.00  0.00    +0.000 A 
ATOM     26  C   UNL     1       4.640   2.975  19.369  0.00  0.00    +0.000 A 
ATOM     27  C   UNL     1       3.826   2.724  20.474  0.00  0.00    +0.000 A 
ATOM     28  C   UNL     1       2.436   2.693  20.333  0.00  0.00    +0.000 A 
ATOM     29 CL   UNL     1       1.500   2.368  21.747  0.00  0.00    +0.000 Cl
ATOM     30  C   UNL     1       1.848   2.920  19.079  0.00  0.00    +0.000 A 
ATOM     31  C   UNL     1       0.365   2.894  18.829  0.00  0.00    +0.000 C 
ATOM     32  C   UNL     1       2.684   3.187  17.978  0.00  0.00    +0.000 A 
ENDBRANCH  24  25
ENDBRANCH  22  24
ENDBRANCH   6  20
TORSDOF 5
ENDMDL
MODEL 5
REMARK VINA RESULT:      -7.6      2.650      3.876
REMARK  Name = 
REMARK  7 active torsions:
REMARK  status: ('A' for Active; 'I' for Inactive)
REMARK    1  A    between atoms: C_1  and  N_2
REMARK    2  A    between atoms: C_3  and  C_5
REMARK    3  A    between atoms: C_9  and  N_10
REMARK    4  A    between atoms: C_15  and  N_16
REMARK    5  A    between atoms: C_18  and  O_19
REMARK    6  A    between atoms: O_19  and  C_20
REMARK    7  A    between atoms: C_25  and  C_26
REMARK                            x       y       z     vdW  Elec       q    Type
REMARK                         _______ _______ _______ _____ _____    ______ ____
ROOT
ATOM      1  N   UNL     1       3.068   8.170  17.708  0.00  0.00    +0.000 N 
ATOM      2  C   UNL     1       2.212   8.540  18.756  0.00  0.00    +0.000 A 
ATOM      3  N   UNL     1       2.182   7.768  19.859  0.00  0.00    +0.000 NA
ATOM      4  C   UNL     1       1.388   8.154  20.861  0.00  0.00    +0.000 A 
ATOM      5  C   UNL     1       0.624   9.285  20.808  0.00  0.00    +0.000 A 
ATOM      6  C   UNL     1       0.695  10.025  19.642  0.00  0.00    +0.000 A 
ATOM      7  N   UNL     1       1.479   9.653  18.605  0.00  0.00    +0.000 NA
ATOM      8  H   UNL     1       2.892   8.757  16.903  0.00  0.00    +0.000 HD
ENDROOT
BRANCH   1  13
ATOM      9  C   UNL     1       3.197   4.444  17.698  0.00  0.00    +0.000 A 
ATOM     10  C   UNL     1       4.341   4.223  16.927  0.00  0.00    +0.000 A 
ATOM     11  C   UNL     1       5.034   5.307  16.383  0.00  0.00    +0.000 A 
ATOM     12  C   UNL     1       4.593   6.615  16.621  0.00  0.00    +0.000 A 
ATOM     13  C   UNL     1       3.470   6.852  17.419  0.00  0.00    +0.000 A 
ATOM     14  C   UNL     1       2.749   5.754  17.902  0.00  0.00    +0.000 A 
BRANCH   9  17
ATOM     15  C   UNL     1       1.380   2.375  20.294  0.00  0.00    +0.000 C 
ATOM     16  N   UNL     1       2.031   3.449  19.591  0.00  0.00    +0.000 N 
ATOM     17  C   UNL     1       2.476   3.285  18.294  0.00  0.00    +0.000 C 
ATOM     18  O   UNL     1       2.332   2.248  17.656  0.00  0.00    +0.000 OA
ATOM     19  H   UNL     1       2.370   4.234  20.132  0.00  0.00    +0.000 HD
ENDBRANCH   9  17
ENDBRANCH   1  13
BRANCH   6  20
ATOM     20  N   UNL     1      -0.110  11.191  19.560  0.00  0.00    +0.000 N 
ATOM     21  C   UNL     1      -0.049  12.307  20.459  0.00  0.00    +0.000 C 
ATOM     22  C   UNL     1      -1.578  12.283  20.582  0.00  0.00    +0.000 C 
ATOM     23  C   UNL     1      -1.545  11.145  19.554  0.00  0.00    +0.000 C 
BRANCH  22  24
ATOM     24  O   UNL     1      -2.074  11.986  21.909  0.00  0.00    +0.000 OA
BRANCH  24  25
ATOM     25  C   UNL     1      -3.317  12.431  22.280  0.00  0.00    +0.000 A 
ATOM     26  C   UNL     1      -3.501  12.604  23.650  0.00  0.00    +0.000 A 
ATOM     27  C   UNL     1      -4.732  13.039  24.144  0.00  0.00    +0.000 A 
ATOM     28  C   UNL     1      -5.791  13.296  23.268  0.00  0.00    +0.000 A 
ATOM     29 CL   UNL     1      -7.283  13.822  23.960  0.00  0.00    +0.000 Cl
ATOM     30  C   UNL     1      -5.623  13.124  21.886  0.00  0.00    +0.000 A 
ATOM     31  C   UNL     1      -6.707  13.364  20.872  0.00  0.00    +0.000 C 
ATOM     32  C   UNL     1      -4.370  12.699  21.404  0.00  0.00    +0.000 A 
ENDBRANCH  24  25
ENDBRANCH  22  24
ENDBRANCH   6  20
TORSDOF 5
ENDMDL
MODEL 6
REMARK VINA RESULT:      -7.6      3.177      3.793
REMARK  Name = 
REMARK  7 active torsions:
REMARK  status: ('A' for Active; 'I' for Inactive)
REMARK    1  A    between atoms: C_1  and  N_2
REMARK    2  A    between atoms: C_3  and  C_5
REMARK    3  A    between atoms: C_9  and  N_10
REMARK    4  A    between atoms: C_15  and  N_16
REMARK    5  A    between atoms: C_18  and  O_19
REMARK    6  A    between atoms: O_19  and  C_20
REMARK    7  A    between atoms: C_25  and  C_26
REMARK                            x       y       z     vdW  Elec       q    Type
REMARK                         _______ _______ _______ _____ _____    ______ ____
ROOT
ATOM      1  N   UNL     1       1.982   6.054  20.471  0.00  0.00    +0.000 N 
ATOM      2  C   UNL     1       1.879   7.278  19.794  0.00  0.00    +0.000 A 
ATOM      3  N   UNL     1       2.245   7.323  18.498  0.00  0.00    +0.000 NA
ATOM      4  C   UNL     1       2.107   8.488  17.859  0.00  0.00    +0.000 A 
ATOM      5  C   UNL     1       1.613   9.610  18.461  0.00  0.00    +0.000 A 
ATOM      6  C   UNL     1       1.266   9.495  19.795  0.00  0.00    +0.000 A 
ATOM      7  N   UNL     1       1.407   8.334  20.473  0.00  0.00    +0.000 NA
ATOM      8  H   UNL     1       1.802   6.196  21.457  0.00  0.00    +0.000 HD
ENDROOT
BRANCH   1  13
ATOM      9  C   UNL     1       4.936   4.284  19.043  0.00  0.00    +0.000 A 
ATOM     10  C   UNL     1       4.690   2.976  19.469  0.00  0.00    +0.000 A 
ATOM     11  C   UNL     1       3.571   2.701  20.260  0.00  0.00    +0.000 A 
ATOM     12  C   UNL     1       2.689   3.729  20.614  0.00  0.00    +0.000 A 
ATOM     13  C   UNL     1       2.905   5.036  20.167  0.00  0.00    +0.000 A 
ATOM     14  C   UNL     1       4.064   5.307  19.430  0.00  0.00    +0.000 A 
BRANCH   9  17
ATOM     15  C   UNL     1       6.908   5.116  15.922  0.00  0.00    +0.000 C 
ATOM     16  N   UNL     1       5.845   4.886  16.865  0.00  0.00    +0.000 N 
ATOM     17  C   UNL     1       6.117   4.566  18.182  0.00  0.00    +0.000 C 
ATOM     18  O   UNL     1       7.253   4.479  18.635  0.00  0.00    +0.000 OA
ATOM     19  H   UNL     1       4.914   4.728  16.502  0.00  0.00    +0.000 HD
ENDBRANCH   9  17
ENDBRANCH   1  13
BRANCH   6  20
ATOM     20  N   UNL     1       0.773  10.657  20.442  0.00  0.00    +0.000 N 
ATOM     21  C   UNL     1      -0.594  10.886  20.809  0.00  0.00    +0.000 C 
ATOM     22  C   UNL     1      -0.519  12.288  20.192  0.00  0.00    +0.000 C 
ATOM     23  C   UNL     1       0.957  11.979  19.911  0.00  0.00    +0.000 C 
BRANCH  22  24
ATOM     24  O   UNL     1      -1.396  12.499  19.059  0.00  0.00    +0.000 OA
BRANCH  24  25
ATOM     25  C   UNL     1      -2.742  12.277  19.197  0.00  0.00    +0.000 A 
ATOM     26  C   UNL     1      -3.318  11.486  18.204  0.00  0.00    +0.000 A 
ATOM     27  C   UNL     1      -4.685  11.205  18.235  0.00  0.00    +0.000 A 
ATOM     28  C   UNL     1      -5.487  11.722  19.256  0.00  0.00    +0.000 A 
ATOM     29 CL   UNL     1      -7.169  11.336  19.217  0.00  0.00    +0.000 Cl
ATOM     30  C   UNL     1      -4.924  12.522  20.262  0.00  0.00    +0.000 A 
ATOM     31  C   UNL     1      -5.710  13.130  21.390  0.00  0.00    +0.000 C 
ATOM     32  C   UNL     1      -3.540  12.782  20.224  0.00  0.00    +0.000 A 
ENDBRANCH  24  25
ENDBRANCH  22  24
ENDBRANCH   6  20
TORSDOF 5
ENDMDL
MODEL 7
REMARK VINA RESULT:      -7.6      2.140      3.130
REMARK  Name = 
REMARK  7 active torsions:
REMARK  status: ('A' for Active; 'I' for Inactive)
REMARK    1  A    between atoms: C_1  and  N_2
REMARK    2  A    between atoms: C_3  and  C_5
REMARK    3  A    between atoms: C_9  and  N_10
REMARK    4  A    between atoms: C_15  and  N_16
REMARK    5  A    between atoms: C_18  and  O_19
REMARK    6  A    between atoms: O_19  and  C_20
REMARK    7  A    between atoms: C_25  and  C_26
REMARK                            x       y       z     vdW  Elec       q    Type
REMARK                         _______ _______ _______ _____ _____    ______ ____
ROOT
ATOM      1  N   UNL     1       1.941   6.269  19.638  0.00  0.00    +0.000 N 
ATOM      2  C   UNL     1       1.743   7.629  19.358  0.00  0.00    +0.000 A 
ATOM      3  N   UNL     1       1.835   8.038  18.078  0.00  0.00    +0.000 NA
ATOM      4  C   UNL     1       1.610   9.330  17.825  0.00  0.00    +0.000 A 
ATOM      5  C   UNL     1       1.289  10.231  18.800  0.00  0.00    +0.000 A 
ATOM      6  C   UNL     1       1.222   9.746  20.093  0.00  0.00    +0.000 A 
ATOM      7  N   UNL     1       1.459   8.447  20.383  0.00  0.00    +0.000 NA
ATOM      8  H   UNL     1       1.973   6.130  20.640  0.00  0.00    +0.000 HD
ENDROOT
BRANCH   1  13
ATOM      9  C   UNL     1       4.949   4.633  18.162  0.00  0.00    +0.000 A 
ATOM     10  C   UNL     1       4.350   3.724  17.286  0.00  0.00    +0.000 A 
ATOM     11  C   UNL     1       2.957   3.632  17.224  0.00  0.00    +0.000 A 
ATOM     12  C   UNL     1       2.160   4.459  18.025  0.00  0.00    +0.000 A 
ATOM     13  C   UNL     1       2.746   5.396  18.882  0.00  0.00    +0.000 A 
ATOM     14  C   UNL     1       4.142   5.431  18.980  0.00  0.00    +0.000 A 
BRANCH   9  17
ATOM     15  C   UNL     1       8.383   5.507  19.488  0.00  0.00    +0.000 C 
ATOM     16  N   UNL     1       6.967   5.291  19.356  0.00  0.00    +0.000 N 
ATOM     17  C   UNL     1       6.433   4.742  18.206  0.00  0.00    +0.000 C 
ATOM     18  O   UNL     1       7.111   4.388  17.249  0.00  0.00    +0.000 OA
ATOM     19  H   UNL     1       6.353   5.761  20.009  0.00  0.00    +0.000 HD
ENDBRANCH   9  17
ENDBRANCH   1  13
BRANCH   6  20
ATOM     20  N   UNL     1       0.914  10.673  21.122  0.00  0.00    +0.000 N 
ATOM     21  C   UNL     1      -0.162  10.544  22.061  0.00  0.00    +0.000 C 
ATOM     22  C   UNL     1      -0.567  11.998  21.789  0.00  0.00    +0.000 C 
ATOM     23  C   UNL     1       0.654  12.062  20.864  0.00  0.00    +0.000 C 
BRANCH  22  24
ATOM     24  O   UNL     1      -1.878  12.160  21.195  0.00  0.00    +0.000 OA
BRANCH  24  25
ATOM     25  C   UNL     1      -2.863  12.803  21.900  0.00  0.00    +0.000 A 
ATOM     26  C   UNL     1      -4.155  12.631  21.406  0.00  0.00    +0.000 A 
ATOM     27  C   UNL     1      -5.235  13.251  22.035  0.00  0.00    +0.000 A 
ATOM     28  C   UNL     1      -5.029  14.055  23.159  0.00  0.00    +0.000 A 
ATOM     29 CL   UNL     1      -6.417  14.793  23.873  0.00  0.00    +0.000 Cl
ATOM     30  C   UNL     1      -3.735  14.240  23.668  0.00  0.00    +0.000 A 
ATOM     31  C   UNL     1      -3.416  15.096  24.863  0.00  0.00    +0.000 C 
ATOM     32  C   UNL     1      -2.658  13.595  23.030  0.00  0.00    +0.000 A 
ENDBRANCH  24  25
ENDBRANCH  22  24
ENDBRANCH   6  20
TORSDOF 5
ENDMDL
MODEL 8
REMARK VINA RESULT:      -7.6      3.260      4.176
REMARK  Name = 
REMARK  7 active torsions:
REMARK  status: ('A' for Active; 'I' for Inactive)
REMARK    1  A    between atoms: C_1  and  N_2
REMARK    2  A    between atoms: C_3  and  C_5
REMARK    3  A    between atoms: C_9  and  N_10
REMARK    4  A    between atoms: C_15  and  N_16
REMARK    5  A    between atoms: C_18  and  O_19
REMARK    6  A    between atoms: O_19  and  C_20
REMARK    7  A    between atoms: C_25  and  C_26
REMARK                            x       y       z     vdW  Elec       q    Type
REMARK                         _______ _______ _______ _____ _____    ______ ____
ROOT
ATOM      1  N   UNL     1       3.705   7.223  17.715  0.00  0.00    +0.000 N 
ATOM      2  C   UNL     1       2.800   7.361  18.778  0.00  0.00    +0.000 A 
ATOM      3  N   UNL     1       2.758   6.390  19.711  0.00  0.00    +0.000 NA
ATOM      4  C   UNL     1       1.915   6.554  20.734  0.00  0.00    +0.000 A 
ATOM      5  C   UNL     1       1.115   7.653  20.866  0.00  0.00    +0.000 A 
ATOM      6  C   UNL     1       1.201   8.605  19.868  0.00  0.00    +0.000 A 
ATOM      7  N   UNL     1       2.034   8.462  18.812  0.00  0.00    +0.000 NA
ATOM      8  H   UNL     1       3.537   7.949  17.030  0.00  0.00    +0.000 HD
ENDROOT
BRANCH   1  13
ATOM      9  C   UNL     1       5.513   4.747  15.594  0.00  0.00    +0.000 A 
ATOM     10  C   UNL     1       4.992   3.548  16.087  0.00  0.00    +0.000 A 
ATOM     11  C   UNL     1       4.079   3.569  17.145  0.00  0.00    +0.000 A 
ATOM     12  C   UNL     1       3.675   4.789  17.702  0.00  0.00    +0.000 A 
ATOM     13  C   UNL     1       4.163   5.998  17.196  0.00  0.00    +0.000 A 
ATOM     14  C   UNL     1       5.124   5.957  16.179  0.00  0.00    +0.000 A 
BRANCH   9  17
ATOM     15  C   UNL     1       6.961   3.793  12.230  0.00  0.00    +0.000 C 
ATOM     16  N   UNL     1       6.091   3.949  13.366  0.00  0.00    +0.000 N 
ATOM     17  C   UNL     1       6.466   4.718  14.451  0.00  0.00    +0.000 C 
ATOM     18  O   UNL     1       7.529   5.327  14.512  0.00  0.00    +0.000 OA
ATOM     19  H   UNL     1       5.318   3.304  13.464  0.00  0.00    +0.000 HD
ENDBRANCH   9  17
ENDBRANCH   1  13
BRANCH   6  20
ATOM     20  N   UNL     1       0.360   9.743  19.977  0.00  0.00    +0.000 N 
ATOM     21  C   UNL     1      -0.307  10.390  18.885  0.00  0.00    +0.000 C 
ATOM     22  C   UNL     1       0.181  11.750  19.400  0.00  0.00    +0.000 C 
ATOM     23  C   UNL     1       0.794  10.975  20.574  0.00  0.00    +0.000 C 
BRANCH  22  24
ATOM     24  O   UNL     1       1.079  12.450  18.506  0.00  0.00    +0.000 OA
BRANCH  24  25
ATOM     25  C   UNL     1       1.148  13.819  18.555  0.00  0.00    +0.000 A 
ATOM     26  C   UNL     1      -0.069  14.468  18.754  0.00  0.00    +0.000 A 
ATOM     27  C   UNL     1      -0.121  15.861  18.806  0.00  0.00    +0.000 A 
ATOM     28  C   UNL     1       1.045  16.616  18.651  0.00  0.00    +0.000 A 
ATOM     29 CL   UNL     1       0.893  18.335  18.719  0.00  0.00    +0.000 Cl
ATOM     30  C   UNL     1       2.278  15.979  18.448  0.00  0.00    +0.000 A 
ATOM     31  C   UNL     1       3.580  16.707  18.259  0.00  0.00    +0.000 C 
ATOM     32  C   UNL     1       2.314  14.571  18.413  0.00  0.00    +0.000 A 
ENDBRANCH  24  25
ENDBRANCH  22  24
ENDBRANCH   6  20
TORSDOF 5
ENDMDL
MODEL 9
REMARK VINA RESULT:      -7.6      2.231      3.089
REMARK  Name = 
REMARK  7 active torsions:
REMARK  status: ('A' for Active; 'I' for Inactive)
REMARK    1  A    between atoms: C_1  and  N_2
REMARK    2  A    between atoms: C_3  and  C_5
REMARK    3  A    between atoms: C_9  and  N_10
REMARK    4  A    between atoms: C_15  and  N_16
REMARK    5  A    between atoms: C_18  and  O_19
REMARK    6  A    between atoms: O_19  and  C_20
REMARK    7  A    between atoms: C_25  and  C_26
REMARK                            x       y       z     vdW  Elec       q    Type
REMARK                         _______ _______ _______ _____ _____    ______ ____
ROOT
ATOM      1  N   UNL     1       1.741   6.509  20.584  0.00  0.00    +0.000 N 
ATOM      2  C   UNL     1       1.736   7.647  19.765  0.00  0.00    +0.000 A 
ATOM      3  N   UNL     1       1.996   7.491  18.452  0.00  0.00    +0.000 NA
ATOM      4  C   UNL     1       1.952   8.580  17.681  0.00  0.00    +0.000 A 
ATOM      5  C   UNL     1       1.653   9.821  18.167  0.00  0.00    +0.000 A 
ATOM      6  C   UNL     1       1.407   9.911  19.524  0.00  0.00    +0.000 A 
ATOM      7  N   UNL     1       1.457   8.830  20.334  0.00  0.00    +0.000 NA
ATOM      8  H   UNL     1       1.662   6.788  21.554  0.00  0.00    +0.000 HD
ENDROOT
BRANCH   1  13
ATOM      9  C   UNL     1       4.262   4.176  19.131  0.00  0.00    +0.000 A 
ATOM     10  C   UNL     1       3.947   2.995  19.808  0.00  0.00    +0.000 A 
ATOM     11  C   UNL     1       2.933   2.993  20.769  0.00  0.00    +0.000 A 
ATOM     12  C   UNL     1       2.221   4.167  21.044  0.00  0.00    +0.000 A 
ATOM     13  C   UNL     1       2.502   5.348  20.350  0.00  0.00    +0.000 A 
ATOM     14  C   UNL     1       3.564   5.350  19.438  0.00  0.00    +0.000 A 
BRANCH   9  17
ATOM     15  C   UNL     1       7.718   4.478  17.620  0.00  0.00    +0.000 C 
ATOM     16  N   UNL     1       6.614   4.399  18.540  0.00  0.00    +0.000 N 
ATOM     17  C   UNL     1       5.328   4.167  18.092  0.00  0.00    +0.000 C 
ATOM     18  O   UNL     1       5.045   3.993  16.912  0.00  0.00    +0.000 OA
ATOM     19  H   UNL     1       6.753   4.749  19.479  0.00  0.00    +0.000 HD
ENDBRANCH   9  17
ENDBRANCH   1  13
BRANCH   6  20
ATOM     20  N   UNL     1       1.117  11.197  20.051  0.00  0.00    +0.000 N 
ATOM     21  C   UNL     1       0.519  11.455  21.328  0.00  0.00    +0.000 C 
ATOM     22  C   UNL     1      -0.459  12.434  20.665  0.00  0.00    +0.000 C 
ATOM     23  C   UNL     1       0.296  12.151  19.360  0.00  0.00    +0.000 C 
BRANCH  22  24
ATOM     24  O   UNL     1      -1.851  12.045  20.743  0.00  0.00    +0.000 OA
BRANCH  24  25
ATOM     25  C   UNL     1      -2.700  12.737  21.568  0.00  0.00    +0.000 A 
ATOM     26  C   UNL     1      -3.064  14.005  21.117  0.00  0.00    +0.000 A 
ATOM     27  C   UNL     1      -3.913  14.805  21.883  0.00  0.00    +0.000 A 
ATOM     28  C   UNL     1      -4.398  14.345  23.110  0.00  0.00    +0.000 A 
ATOM     29 CL   UNL     1      -5.436  15.399  24.000  0.00  0.00    +0.000 Cl
ATOM     30  C   UNL     1      -4.040  13.072  23.579  0.00  0.00    +0.000 A 
ATOM     31  C   UNL     1      -4.503  12.498  24.890  0.00  0.00    +0.000 C 
ATOM     32  C   UNL     1      -3.195  12.271  22.786  0.00  0.00    +0.000 A 
ENDBRANCH  24  25
ENDBRANCH  22  24
ENDBRANCH   6  20
TORSDOF 5
ENDMDL
