MODEL 1
REMARK VINA RESULT:      -7.3      0.000      0.000
REMARK  Name = 
REMARK  2 active torsions:
REMARK  status: ('A' for Active; 'I' for Inactive)
REMARK    1  A    between atoms: C_7  and  C_8
REMARK    2  A    between atoms: C_14  and  N_15
REMARK                            x       y       z     vdW  Elec       q    Type
REMARK                         _______ _______ _______ _____ _____    ______ ____
ROOT
ATOM      1  C   UNL     1       2.671   7.020  18.220  0.00  0.00    +0.000 A 
ATOM      2  C   UNL     1       2.395   8.062  17.426  0.00  0.00    +0.000 A 
ATOM      3  O   UNL     1       1.798   9.241  17.805  0.00  0.00    +0.000 OA
ATOM      4  C   UNL     1       1.356   9.343  19.101  0.00  0.00    +0.000 A 
ATOM      5  C   UNL     1       0.683  10.511  19.455  0.00  0.00    +0.000 A 
ATOM      6  C   UNL     1       0.212  10.676  20.762  0.00  0.00    +0.000 A 
ATOM      7  C   UNL     1       0.410   9.655  21.707  0.00  0.00    +0.000 A 
ATOM      8  C   UNL     1       1.084   8.482  21.358  0.00  0.00    +0.000 A 
ATOM      9  C   UNL     1       1.564   8.343  20.051  0.00  0.00    +0.000 A 
ATOM     10  C   UNL     1       2.319   7.143  19.663  0.00  0.00    +0.000 A 
ATOM     11  O   UNL     1       2.645   6.299  20.492  0.00  0.00    +0.000 OA
ENDROOT
BRANCH   1  18
ATOM     12  O   UNL     1       7.673   4.389  15.844  0.00  0.00    +0.000 OA
ATOM     13  C   UNL     1       6.697   4.982  16.263  0.00  0.00    +0.000 C 
ATOM     14  N   UNL     1       6.644   6.295  16.592  0.00  0.00    +0.000 N 
ATOM     15  C   UNL     1       5.525   6.752  17.222  0.00  0.00    +0.000 C 
ATOM     16  O   UNL     1       5.447   7.846  17.752  0.00  0.00    +0.000 OA
ATOM     17  C   UNL     1       4.491   5.677  17.250  0.00  0.00    +0.000 C 
ATOM     18  C   UNL     1       3.240   5.786  17.721  0.00  0.00    +0.000 C 
ATOM     19  S   UNL     1       5.152   4.220  16.597  0.00  0.00    +0.000 S 
ATOM     20  H   UNL     1       7.465   6.873  16.533  0.00  0.00    +0.000 HD
ENDBRANCH   1  18
BRANCH   7  21
ATOM     21  N   UNL     1      -0.088   9.825  23.078  0.00  0.00    +0.000 N 
ATOM     22  O   UNL     1       0.662   9.488  24.005  0.00  0.00    +0.000 OA
ATOM     23  O   UNL     1      -1.227  10.286  23.227  0.00  0.00    +0.000 OA
ENDBRANCH   7  21
TORSDOF 2
ENDMDL
MODEL 2
REMARK VINA RESULT:      -7.2      4.739      8.346
REMARK  Name = 
REMARK  2 active torsions:
REMARK  status: ('A' for Active; 'I' for Inactive)
REMARK    1  A    between atoms: C_7  and  C_8
REMARK    2  A    between atoms: C_14  and  N_15
REMARK                            x       y       z     vdW  Elec       q    Type
REMARK                         _______ _______ _______ _____ _____    ______ ____
ROOT
ATOM      1  C   UNL     1       4.670   5.565  18.226  0.00  0.00    +0.000 A 
ATOM      2  C   UNL     1       5.944   5.958  18.355  0.00  0.00    +0.000 A 
ATOM      3  O   UNL     1       6.922   5.885  17.391  0.00  0.00    +0.000 OA
ATOM      4  C   UNL     1       6.602   5.274  16.204  0.00  0.00    +0.000 A 
ATOM      5  C   UNL     1       7.621   5.136  15.262  0.00  0.00    +0.000 A 
ATOM      6  C   UNL     1       7.355   4.525  14.032  0.00  0.00    +0.000 A 
ATOM      7  C   UNL     1       6.064   4.043  13.758  0.00  0.00    +0.000 A 
ATOM      8  C   UNL     1       5.039   4.180  14.698  0.00  0.00    +0.000 A 
ATOM      9  C   UNL     1       5.318   4.809  15.916  0.00  0.00    +0.000 A 
ATOM     10  C   UNL     1       4.252   5.011  16.907  0.00  0.00    +0.000 A 
ATOM     11  O   UNL     1       3.083   4.744  16.649  0.00  0.00    +0.000 OA
ENDROOT
BRANCH   1  18
ATOM     12  O   UNL     1       1.583   2.248  22.355  0.00  0.00    +0.000 OA
ATOM     13  C   UNL     1       2.179   2.842  21.476  0.00  0.00    +0.000 C 
ATOM     14  N   UNL     1       3.022   2.288  20.572  0.00  0.00    +0.000 N 
ATOM     15  C   UNL     1       3.746   3.125  19.778  0.00  0.00    +0.000 C 
ATOM     16  O   UNL     1       4.680   2.760  19.086  0.00  0.00    +0.000 OA
ATOM     17  C   UNL     1       3.292   4.531  19.982  0.00  0.00    +0.000 C 
ATOM     18  C   UNL     1       3.723   5.614  19.319  0.00  0.00    +0.000 C 
ATOM     19  S   UNL     1       2.114   4.580  21.247  0.00  0.00    +0.000 S 
ATOM     20  H   UNL     1       3.235   1.306  20.603  0.00  0.00    +0.000 HD
ENDBRANCH   1  18
BRANCH   7  21
ATOM     21  N   UNL     1       5.786   3.398  12.469  0.00  0.00    +0.000 N 
ATOM     22  O   UNL     1       4.619   3.429  12.054  0.00  0.00    +0.000 OA
ATOM     23  O   UNL     1       6.729   2.857  11.878  0.00  0.00    +0.000 OA
ENDBRANCH   7  21
TORSDOF 2
ENDMDL
MODEL 3
REMARK VINA RESULT:      -6.9      3.510      7.433
REMARK  Name = 
REMARK  2 active torsions:
REMARK  status: ('A' for Active; 'I' for Inactive)
REMARK    1  A    between atoms: C_7  and  C_8
REMARK    2  A    between atoms: C_14  and  N_15
REMARK                            x       y       z     vdW  Elec       q    Type
REMARK                         _______ _______ _______ _____ _____    ______ ____
ROOT
ATOM      1  C   UNL     1       1.233   9.617  19.396  0.00  0.00    +0.000 A 
ATOM      2  C   UNL     1       1.738   9.892  18.186  0.00  0.00    +0.000 A 
ATOM      3  O   UNL     1       2.504   9.053  17.411  0.00  0.00    +0.000 OA
ATOM      4  C   UNL     1       2.869   7.845  17.951  0.00  0.00    +0.000 A 
ATOM      5  C   UNL     1       3.709   7.034  17.189  0.00  0.00    +0.000 A 
ATOM      6  C   UNL     1       4.113   5.789  17.683  0.00  0.00    +0.000 A 
ATOM      7  C   UNL     1       3.678   5.369  18.951  0.00  0.00    +0.000 A 
ATOM      8  C   UNL     1       2.836   6.177  19.719  0.00  0.00    +0.000 A 
ATOM      9  C   UNL     1       2.428   7.411  19.201  0.00  0.00    +0.000 A 
ATOM     10  C   UNL     1       1.504   8.264  19.962  0.00  0.00    +0.000 A 
ATOM     11  O   UNL     1       0.982   7.872  21.000  0.00  0.00    +0.000 OA
ENDROOT
BRANCH   1  18
ATOM     12  O   UNL     1      -3.968  12.838  19.785  0.00  0.00    +0.000 OA
ATOM     13  C   UNL     1      -2.936  12.215  19.620  0.00  0.00    +0.000 C 
ATOM     14  N   UNL     1      -2.677  11.360  18.602  0.00  0.00    +0.000 N 
ATOM     15  C   UNL     1      -1.544  10.607  18.673  0.00  0.00    +0.000 C 
ATOM     16  O   UNL     1      -1.313   9.662  17.939  0.00  0.00    +0.000 OA
ATOM     17  C   UNL     1      -0.720  11.047  19.835  0.00  0.00    +0.000 C 
ATOM     18  C   UNL     1       0.494  10.587  20.174  0.00  0.00    +0.000 C 
ATOM     19  S   UNL     1      -1.578  12.252  20.729  0.00  0.00    +0.000 S 
ATOM     20  H   UNL     1      -3.377  11.160  17.908  0.00  0.00    +0.000 HD
ENDBRANCH   1  18
BRANCH   7  21
ATOM     21  N   UNL     1       4.106   4.064  19.472  0.00  0.00    +0.000 N 
ATOM     22  O   UNL     1       3.248   3.358  20.021  0.00  0.00    +0.000 OA
ATOM     23  O   UNL     1       5.295   3.750  19.339  0.00  0.00    +0.000 OA
ENDBRANCH   7  21
TORSDOF 2
ENDMDL
MODEL 4
REMARK VINA RESULT:      -6.9      1.695      2.532
REMARK  Name = 
REMARK  2 active torsions:
REMARK  status: ('A' for Active; 'I' for Inactive)
REMARK    1  A    between atoms: C_7  and  C_8
REMARK    2  A    between atoms: C_14  and  N_15
REMARK                            x       y       z     vdW  Elec       q    Type
REMARK                         _______ _______ _______ _____ _____    ______ ____
ROOT
ATOM      1  C   UNL     1       2.688   6.120  18.457  0.00  0.00    +0.000 A 
ATOM      2  C   UNL     1       2.299   5.529  19.594  0.00  0.00    +0.000 A 
ATOM      3  O   UNL     1       1.638   6.128  20.640  0.00  0.00    +0.000 OA
ATOM      4  C   UNL     1       1.425   7.482  20.567  0.00  0.00    +0.000 A 
ATOM      5  C   UNL     1       0.823   8.094  21.666  0.00  0.00    +0.000 A 
ATOM      6  C   UNL     1       0.576   9.471  21.649  0.00  0.00    +0.000 A 
ATOM      7  C   UNL     1       0.948  10.231  20.527  0.00  0.00    +0.000 A 
ATOM      8  C   UNL     1       1.551   9.623  19.423  0.00  0.00    +0.000 A 
ATOM      9  C   UNL     1       1.774   8.243  19.450  0.00  0.00    +0.000 A 
ATOM     10  C   UNL     1       2.362   7.564  18.287  0.00  0.00    +0.000 A 
ATOM     11  O   UNL     1       2.561   8.161  17.233  0.00  0.00    +0.000 OA
ENDROOT
BRANCH   1  18
ATOM     12  O   UNL     1       8.237   4.106  16.802  0.00  0.00    +0.000 OA
ATOM     13  C   UNL     1       7.176   4.581  17.160  0.00  0.00    +0.000 C 
ATOM     14  N   UNL     1       6.952   5.246  18.319  0.00  0.00    +0.000 N 
ATOM     15  C   UNL     1       5.664   5.545  18.644  0.00  0.00    +0.000 C 
ATOM     16  O   UNL     1       5.320   5.945  19.743  0.00  0.00    +0.000 OA
ATOM     17  C   UNL     1       4.764   5.203  17.505  0.00  0.00    +0.000 C 
ATOM     18  C   UNL     1       3.444   5.427  17.435  0.00  0.00    +0.000 C 
ATOM     19  S   UNL     1       5.679   4.431  16.258  0.00  0.00    +0.000 S 
ATOM     20  H   UNL     1       7.687   5.362  18.995  0.00  0.00    +0.000 HD
ENDBRANCH   1  18
BRANCH   7  21
ATOM     21  N   UNL     1       0.692  11.677  20.511  0.00  0.00    +0.000 N 
ATOM     22  O   UNL     1       0.409  12.196  19.421  0.00  0.00    +0.000 OA
ATOM     23  O   UNL     1       0.782  12.292  21.581  0.00  0.00    +0.000 OA
ENDBRANCH   7  21
TORSDOF 2
ENDMDL
MODEL 5
REMARK VINA RESULT:      -6.8      3.854      4.874
REMARK  Name = 
REMARK  2 active torsions:
REMARK  status: ('A' for Active; 'I' for Inactive)
REMARK    1  A    between atoms: C_7  and  C_8
REMARK    2  A    between atoms: C_14  and  N_15
REMARK                            x       y       z     vdW  Elec       q    Type
REMARK                         _______ _______ _______ _____ _____    ______ ____
ROOT
ATOM      1  C   UNL     1       5.335   6.056  17.306  0.00  0.00    +0.000 A 
ATOM      2  C   UNL     1       4.400   7.012  17.376  0.00  0.00    +0.000 A 
ATOM      3  O   UNL     1       3.342   7.056  18.252  0.00  0.00    +0.000 OA
ATOM      4  C   UNL     1       3.160   5.980  19.085  0.00  0.00    +0.000 A 
ATOM      5  C   UNL     1       2.040   5.998  19.916  0.00  0.00    +0.000 A 
ATOM      6  C   UNL     1       1.802   4.932  20.789  0.00  0.00    +0.000 A 
ATOM      7  C   UNL     1       2.689   3.842  20.816  0.00  0.00    +0.000 A 
ATOM      8  C   UNL     1       3.813   3.819  19.986  0.00  0.00    +0.000 A 
ATOM      9  C   UNL     1       4.044   4.902  19.131  0.00  0.00    +0.000 A 
ATOM     10  C   UNL     1       5.242   4.932  18.280  0.00  0.00    +0.000 A 
ATOM     11  O   UNL     1       6.117   4.077  18.381  0.00  0.00    +0.000 OA
ENDROOT
BRANCH   1  18
ATOM     12  O   UNL     1       7.194   3.633  11.990  0.00  0.00    +0.000 OA
ATOM     13  C   UNL     1       6.799   4.032  13.069  0.00  0.00    +0.000 C 
ATOM     14  N   UNL     1       5.641   3.672  13.675  0.00  0.00    +0.000 N 
ATOM     15  C   UNL     1       5.266   4.356  14.791  0.00  0.00    +0.000 C 
ATOM     16  O   UNL     1       4.159   4.272  15.295  0.00  0.00    +0.000 OA
ATOM     17  C   UNL     1       6.360   5.279  15.208  0.00  0.00    +0.000 C 
ATOM     18  C   UNL     1       6.378   6.054  16.302  0.00  0.00    +0.000 C 
ATOM     19  S   UNL     1       7.634   5.230  14.041  0.00  0.00    +0.000 S 
ATOM     20  H   UNL     1       4.999   3.045  13.223  0.00  0.00    +0.000 HD
ENDBRANCH   1  18
BRANCH   7  21
ATOM     21  N   UNL     1       2.438   2.721  21.730  0.00  0.00    +0.000 N 
ATOM     22  O   UNL     1       3.384   1.959  21.975  0.00  0.00    +0.000 OA
ATOM     23  O   UNL     1       1.297   2.598  22.194  0.00  0.00    +0.000 OA
ENDBRANCH   7  21
TORSDOF 2
ENDMDL
MODEL 6
REMARK VINA RESULT:      -6.7      3.705      7.608
REMARK  Name = 
REMARK  2 active torsions:
REMARK  status: ('A' for Active; 'I' for Inactive)
REMARK    1  A    between atoms: C_7  and  C_8
REMARK    2  A    between atoms: C_14  and  N_15
REMARK                            x       y       z     vdW  Elec       q    Type
REMARK                         _______ _______ _______ _____ _____    ______ ____
ROOT
ATOM      1  C   UNL     1       0.920  10.369  19.611  0.00  0.00    +0.000 A 
ATOM      2  C   UNL     1       1.465  10.596  18.410  0.00  0.00    +0.000 A 
ATOM      3  O   UNL     1       2.169   9.691  17.650  0.00  0.00    +0.000 OA
ATOM      4  C   UNL     1       2.422   8.459  18.199  0.00  0.00    +0.000 A 
ATOM      5  C   UNL     1       3.202   7.575  17.453  0.00  0.00    +0.000 A 
ATOM      6  C   UNL     1       3.490   6.303  17.958  0.00  0.00    +0.000 A 
ATOM      7  C   UNL     1       3.001   5.927  19.220  0.00  0.00    +0.000 A 
ATOM      8  C   UNL     1       2.218   6.808  19.971  0.00  0.00    +0.000 A 
ATOM      9  C   UNL     1       1.925   8.069  19.443  0.00  0.00    +0.000 A 
ATOM     10  C   UNL     1       1.065   9.001  20.186  0.00  0.00    +0.000 A 
ATOM     11  O   UNL     1       0.494   8.659  21.217  0.00  0.00    +0.000 OA
ENDROOT
BRANCH   1  18
ATOM     12  O   UNL     1      -4.266  13.570  20.283  0.00  0.00    +0.000 OA
ATOM     13  C   UNL     1      -3.247  12.943  20.061  0.00  0.00    +0.000 C 
ATOM     14  N   UNL     1      -3.087  11.997  19.104  0.00  0.00    +0.000 N 
ATOM     15  C   UNL     1      -1.939  11.264  19.117  0.00  0.00    +0.000 C 
ATOM     16  O   UNL     1      -1.774  10.256  18.452  0.00  0.00    +0.000 OA
ATOM     17  C   UNL     1      -0.999  11.819  20.133  0.00  0.00    +0.000 C 
ATOM     18  C   UNL     1       0.253  11.403  20.374  0.00  0.00    +0.000 C 
ATOM     19  S   UNL     1      -1.775  13.096  21.003  0.00  0.00    +0.000 S 
ATOM     20  H   UNL     1      -3.856  11.727  18.516  0.00  0.00    +0.000 HD
ENDBRANCH   1  18
BRANCH   7  21
ATOM     21  N   UNL     1       3.307   4.592  19.752  0.00  0.00    +0.000 N 
ATOM     22  O   UNL     1       4.166   3.924  19.160  0.00  0.00    +0.000 OA
ATOM     23  O   UNL     1       2.685   4.213  20.752  0.00  0.00    +0.000 OA
ENDBRANCH   7  21
TORSDOF 2
ENDMDL
MODEL 7
REMARK VINA RESULT:      -6.6      3.099      8.494
REMARK  Name = 
REMARK  2 active torsions:
REMARK  status: ('A' for Active; 'I' for Inactive)
REMARK    1  A    between atoms: C_7  and  C_8
REMARK    2  A    between atoms: C_14  and  N_15
REMARK                            x       y       z     vdW  Elec       q    Type
REMARK                         _______ _______ _______ _____ _____    ______ ____
ROOT
ATOM      1  C   UNL     1       4.896   5.136  17.896  0.00  0.00    +0.000 A 
ATOM      2  C   UNL     1       6.031   5.847  17.865  0.00  0.00    +0.000 A 
ATOM      3  O   UNL     1       6.882   5.977  16.793  0.00  0.00    +0.000 OA
ATOM      4  C   UNL     1       6.603   5.245  15.666  0.00  0.00    +0.000 A 
ATOM      5  C   UNL     1       7.514   5.324  14.612  0.00  0.00    +0.000 A 
ATOM      6  C   UNL     1       7.282   4.604  13.435  0.00  0.00    +0.000 A 
ATOM      7  C   UNL     1       6.139   3.795  13.327  0.00  0.00    +0.000 A 
ATOM      8  C   UNL     1       5.223   3.713  14.380  0.00  0.00    +0.000 A 
ATOM      9  C   UNL     1       5.461   4.454  15.542  0.00  0.00    +0.000 A 
ATOM     10  C   UNL     1       4.495   4.427  16.648  0.00  0.00    +0.000 A 
ATOM     11  O   UNL     1       3.413   3.858  16.537  0.00  0.00    +0.000 OA
ENDROOT
BRANCH   1  18
ATOM     12  O   UNL     1       0.583   7.740  21.389  0.00  0.00    +0.000 OA
ATOM     13  C   UNL     1       1.475   7.304  20.686  0.00  0.00    +0.000 C 
ATOM     14  N   UNL     1       1.953   7.881  19.557  0.00  0.00    +0.000 N 
ATOM     15  C   UNL     1       2.824   7.165  18.793  0.00  0.00    +0.000 C 
ATOM     16  O   UNL     1       3.152   7.484  17.664  0.00  0.00    +0.000 OA
ATOM     17  C   UNL     1       3.203   5.910  19.505  0.00  0.00    +0.000 C 
ATOM     18  C   UNL     1       4.095   4.997  19.093  0.00  0.00    +0.000 C 
ATOM     19  S   UNL     1       2.289   5.775  20.966  0.00  0.00    +0.000 S 
ATOM     20  H   UNL     1       1.549   8.732  19.206  0.00  0.00    +0.000 HD
ENDBRANCH   1  18
BRANCH   7  21
ATOM     21  N   UNL     1       5.897   3.035  12.094  0.00  0.00    +0.000 N 
ATOM     22  O   UNL     1       4.752   3.061  11.621  0.00  0.00    +0.000 OA
ATOM     23  O   UNL     1       6.847   2.411  11.605  0.00  0.00    +0.000 OA
ENDBRANCH   7  21
TORSDOF 2
ENDMDL
MODEL 8
REMARK VINA RESULT:      -6.5      3.443      7.210
REMARK  Name = 
REMARK  2 active torsions:
REMARK  status: ('A' for Active; 'I' for Inactive)
REMARK    1  A    between atoms: C_7  and  C_8
REMARK    2  A    between atoms: C_14  and  N_15
REMARK                            x       y       z     vdW  Elec       q    Type
REMARK                         _______ _______ _______ _____ _____    ______ ____
ROOT
ATOM      1  C   UNL     1       2.040   8.122  19.354  0.00  0.00    +0.000 A 
ATOM      2  C   UNL     1       2.660   8.402  18.200  0.00  0.00    +0.000 A 
ATOM      3  O   UNL     1       3.366   7.518  17.418  0.00  0.00    +0.000 OA
ATOM      4  C   UNL     1       3.535   6.242  17.893  0.00  0.00    +0.000 A 
ATOM      5  C   UNL     1       4.317   5.375  17.130  0.00  0.00    +0.000 A 
ATOM      6  C   UNL     1       4.523   4.060  17.560  0.00  0.00    +0.000 A 
ATOM      7  C   UNL     1       3.949   3.624  18.766  0.00  0.00    +0.000 A 
ATOM      8  C   UNL     1       3.164   4.488  19.535  0.00  0.00    +0.000 A 
ATOM      9  C   UNL     1       2.954   5.794  19.080  0.00  0.00    +0.000 A 
ATOM     10  C   UNL     1       2.096   6.713  19.839  0.00  0.00    +0.000 A 
ATOM     11  O   UNL     1       1.455   6.330  20.814  0.00  0.00    +0.000 OA
ENDROOT
BRANCH   1  18
ATOM     12  O   UNL     1      -2.096  12.646  19.307  0.00  0.00    +0.000 OA
ATOM     13  C   UNL     1      -1.247  11.779  19.237  0.00  0.00    +0.000 C 
ATOM     14  N   UNL     1      -0.934  11.058  18.133  0.00  0.00    +0.000 N 
ATOM     15  C   UNL     1      -0.089  10.000  18.279  0.00  0.00    +0.000 C 
ATOM     16  O   UNL     1       0.096   9.159  17.416  0.00  0.00    +0.000 OA
ATOM     17  C   UNL     1       0.460   9.982  19.665  0.00  0.00    +0.000 C 
ATOM     18  C   UNL     1       1.377   9.132  20.150  0.00  0.00    +0.000 C 
ATOM     19  S   UNL     1      -0.288  11.230  20.599  0.00  0.00    +0.000 S 
ATOM     20  H   UNL     1      -1.439  11.191  17.274  0.00  0.00    +0.000 HD
ENDBRANCH   1  18
BRANCH   7  21
ATOM     21  N   UNL     1       4.169   2.245  19.220  0.00  0.00    +0.000 N 
ATOM     22  O   UNL     1       4.871   2.079  20.228  0.00  0.00    +0.000 OA
ATOM     23  O   UNL     1       3.647   1.331  18.568  0.00  0.00    +0.000 OA
ENDBRANCH   7  21
TORSDOF 2
ENDMDL
MODEL 9
REMARK VINA RESULT:      -6.5      3.736      7.416
REMARK  Name = 
REMARK  2 active torsions:
REMARK  status: ('A' for Active; 'I' for Inactive)
REMARK    1  A    between atoms: C_7  and  C_8
REMARK    2  A    between atoms: C_14  and  N_15
REMARK                            x       y       z     vdW  Elec       q    Type
REMARK                         _______ _______ _______ _____ _____    ______ ____
ROOT
ATOM      1  C   UNL     1       1.276   9.955  19.727  0.00  0.00    +0.000 A 
ATOM      2  C   UNL     1       1.782   9.953  18.487  0.00  0.00    +0.000 A 
ATOM      3  O   UNL     1       2.290   8.866  17.815  0.00  0.00    +0.000 OA
ATOM      4  C   UNL     1       2.376   7.679  18.498  0.00  0.00    +0.000 A 
ATOM      5  C   UNL     1       2.964   6.602  17.835  0.00  0.00    +0.000 A 
ATOM      6  C   UNL     1       3.077   5.364  18.477  0.00  0.00    +0.000 A 
ATOM      7  C   UNL     1       2.606   5.217  19.792  0.00  0.00    +0.000 A 
ATOM      8  C   UNL     1       2.015   6.292  20.461  0.00  0.00    +0.000 A 
ATOM      9  C   UNL     1       1.895   7.517  19.798  0.00  0.00    +0.000 A 
ATOM     10  C   UNL     1       1.236   8.654  20.455  0.00  0.00    +0.000 A 
ATOM     11  O   UNL     1       0.677   8.527  21.541  0.00  0.00    +0.000 OA
ENDROOT
BRANCH   1  18
ATOM     12  O   UNL     1      -3.405  13.853  20.422  0.00  0.00    +0.000 OA
ATOM     13  C   UNL     1      -2.496  13.076  20.196  0.00  0.00    +0.000 C 
ATOM     14  N   UNL     1      -2.557  11.993  19.386  0.00  0.00    +0.000 N 
ATOM     15  C   UNL     1      -1.505  11.128  19.395  0.00  0.00    +0.000 C 
ATOM     16  O   UNL     1      -1.533  10.024  18.880  0.00  0.00    +0.000 OA
ATOM     17  C   UNL     1      -0.394  11.696  20.212  0.00  0.00    +0.000 C 
ATOM     18  C   UNL     1       0.824  11.162  20.385  0.00  0.00    +0.000 C 
ATOM     19  S   UNL     1      -0.914  13.171  20.948  0.00  0.00    +0.000 S 
ATOM     20  H   UNL     1      -3.416  11.743  18.927  0.00  0.00    +0.000 HD
ENDBRANCH   1  18
BRANCH   7  21
ATOM     21  N   UNL     1       2.728   3.919  20.468  0.00  0.00    +0.000 N 
ATOM     22  O   UNL     1       2.246   3.819  21.605  0.00  0.00    +0.000 OA
ATOM     23  O   UNL     1       3.308   3.006  19.867  0.00  0.00    +0.000 OA
ENDBRANCH   7  21
TORSDOF 2
ENDMDL
