MODEL 1
REMARK VINA RESULT:      -8.9      0.000      0.000
REMARK  Name = 
REMARK  9 active torsions:
REMARK  status: ('A' for Active; 'I' for Inactive)
REMARK    1  A    between atoms: C_1  and  C_2
REMARK    2  A    between atoms: C_2  and  C_3
REMARK    3  A    between atoms: C_2  and  C_4
REMARK    4  A    between atoms: C_2  and  C_5
REMARK    5  A    between atoms: C_8  and  C_9
REMARK    6  A    between atoms: C_9  and  N_10
REMARK    7  A    between atoms: C_11  and  C_13
REMARK    8  A    between atoms: C_13  and  N_14
REMARK    9  A    between atoms: N_17  and  C_18
REMARK                            x       y       z     vdW  Elec       q    Type
REMARK                         _______ _______ _______ _____ _____    ______ ____
ROOT
ATOM      1  C   UNL     1       1.803   3.069  18.669  0.00  0.00    +0.000 C 
ATOM      2  C   UNL     1       3.150   2.308  18.710  0.00  0.00    +0.000 C 
ATOM      3  C   UNL     1       4.352   3.258  18.611  0.00  0.00    +0.000 C 
ATOM      4  N   UNL     1       4.141   4.067  17.420  0.00  0.00    +0.000 N 
ATOM      5  C   UNL     1       2.997   4.966  17.482  0.00  0.00    +0.000 C 
ATOM      6  C   UNL     1       1.747   4.086  17.513  0.00  0.00    +0.000 C 
ENDROOT
BRANCH   4   7
ATOM      7  C   UNL     1       5.207   4.392  16.607  0.00  0.00    +0.000 A 
ATOM      8  N   UNL     1       5.404   3.735  15.434  0.00  0.00    +0.000 NA
ATOM      9  C   UNL     1       6.442   4.092  14.651  0.00  0.00    +0.000 A 
ATOM     10  N   UNL     1       7.352   5.060  14.857  0.00  0.00    +0.000 NA
ATOM     11  C   UNL     1       7.101   5.714  16.000  0.00  0.00    +0.000 A 
ATOM     12  N   UNL     1       7.836   6.769  16.470  0.00  0.00    +0.000 N 
ATOM     13  C   UNL     1       7.291   7.237  17.637  0.00  0.00    +0.000 A 
ATOM     14  C   UNL     1       6.181   6.470  17.911  0.00  0.00    +0.000 A 
ATOM     15  C   UNL     1       6.079   5.468  16.898  0.00  0.00    +0.000 A 
ATOM     16  H   UNL     1       8.648   7.140  15.999  0.00  0.00    +0.000 HD
ENDBRANCH   4   7
BRANCH   1  18
ATOM     17  N   UNL     1       1.862   5.161  19.967  0.00  0.00    +0.000 N 
ATOM     18  C   UNL     1       1.603   3.813  20.020  0.00  0.00    +0.000 C 
ATOM     19  O   UNL     1       1.151   3.283  21.032  0.00  0.00    +0.000 OA
ATOM     20  H   UNL     1       2.605   5.422  19.329  0.00  0.00    +0.000 HD
BRANCH  17  21
ATOM     21  C   UNL     1       1.641   5.979  21.132  0.00  0.00    +0.000 C 
BRANCH  21  25
ATOM     22  C   UNL     1       0.627  10.004  19.871  0.00  0.00    +0.000 A 
ATOM     23  C   UNL     1       1.511   9.203  19.131  0.00  0.00    +0.000 A 
ATOM     24  C   UNL     1       1.844   7.915  19.549  0.00  0.00    +0.000 A 
ATOM     25  C   UNL     1       1.313   7.387  20.730  0.00  0.00    +0.000 A 
ATOM     26  C   UNL     1       0.447   8.173  21.489  0.00  0.00    +0.000 A 
ATOM     27  C   UNL     1       0.112   9.463  21.066  0.00  0.00    +0.000 A 
BRANCH  22  29
ATOM     28  C   UNL     1       1.355  12.192  18.727  0.00  0.00    +0.000 C 
ATOM     29  C   UNL     1       0.208  11.408  19.405  0.00  0.00    +0.000 C 
ATOM     30  C   UNL     1      -0.275  12.242  20.609  0.00  0.00    +0.000 C 
ATOM     31  C   UNL     1      -0.939  11.301  18.376  0.00  0.00    +0.000 C 
ENDBRANCH  22  29
ENDBRANCH  21  25
ENDBRANCH  17  21
ENDBRANCH   1  18
BRANCH   1  32
ATOM     32  N   UNL     1       0.702   2.067  18.502  0.00  0.00    +0.000 NA
ATOM     33  H   UNL     1       0.635   1.513  19.357  0.00  0.00    +0.000 HD
ATOM     34  H   UNL     1       0.991   1.394  17.790  0.00  0.00    +0.000 HD
ENDBRANCH   1  32
TORSDOF 6
ENDMDL
MODEL 2
REMARK VINA RESULT:      -8.4      4.686      9.922
REMARK  Name = 
REMARK  9 active torsions:
REMARK  status: ('A' for Active; 'I' for Inactive)
REMARK    1  A    between atoms: C_1  and  C_2
REMARK    2  A    between atoms: C_2  and  C_3
REMARK    3  A    between atoms: C_2  and  C_4
REMARK    4  A    between atoms: C_2  and  C_5
REMARK    5  A    between atoms: C_8  and  C_9
REMARK    6  A    between atoms: C_9  and  N_10
REMARK    7  A    between atoms: C_11  and  C_13
REMARK    8  A    between atoms: C_13  and  N_14
REMARK    9  A    between atoms: N_17  and  C_18
REMARK                            x       y       z     vdW  Elec       q    Type
REMARK                         _______ _______ _______ _____ _____    ______ ____
ROOT
ATOM      1  C   UNL     1       0.573  11.540  19.953  0.00  0.00    +0.000 C 
ATOM      2  C   UNL     1      -0.558  10.571  20.377  0.00  0.00    +0.000 C 
ATOM      3  C   UNL     1      -1.562  10.326  19.243  0.00  0.00    +0.000 C 
ATOM      4  N   UNL     1      -2.013  11.636  18.800  0.00  0.00    +0.000 N 
ATOM      5  C   UNL     1      -0.986  12.462  18.177  0.00  0.00    +0.000 C 
ATOM      6  C   UNL     1       0.024  12.807  19.272  0.00  0.00    +0.000 C 
ENDROOT
BRANCH   4   7
ATOM      7  C   UNL     1      -3.333  11.834  18.455  0.00  0.00    +0.000 A 
ATOM      8  N   UNL     1      -3.784  11.480  17.224  0.00  0.00    +0.000 NA
ATOM      9  C   UNL     1      -5.086  11.665  16.925  0.00  0.00    +0.000 A 
ATOM     10  N   UNL     1      -6.061  12.160  17.707  0.00  0.00    +0.000 NA
ATOM     11  C   UNL     1      -5.590  12.458  18.925  0.00  0.00    +0.000 A 
ATOM     12  N   UNL     1      -6.347  12.956  19.952  0.00  0.00    +0.000 N 
ATOM     13  C   UNL     1      -5.575  13.109  21.074  0.00  0.00    +0.000 A 
ATOM     14  C   UNL     1      -4.301  12.692  20.757  0.00  0.00    +0.000 A 
ATOM     15  C   UNL     1      -4.291  12.319  19.378  0.00  0.00    +0.000 A 
ATOM     16  H   UNL     1      -7.333  13.157  19.874  0.00  0.00    +0.000 HD
ENDBRANCH   4   7
BRANCH   1  18
ATOM     17  N   UNL     1       1.496   9.432  19.076  0.00  0.00    +0.000 N 
ATOM     18  C   UNL     1       1.529  10.801  18.973  0.00  0.00    +0.000 C 
ATOM     19  O   UNL     1       2.185  11.366  18.102  0.00  0.00    +0.000 OA
ATOM     20  H   UNL     1       1.334   9.084  20.014  0.00  0.00    +0.000 HD
BRANCH  17  21
ATOM     21  C   UNL     1       2.276   8.626  18.172  0.00  0.00    +0.000 C 
BRANCH  21  25
ATOM     22  C   UNL     1       2.411   4.541  19.625  0.00  0.00    +0.000 A 
ATOM     23  C   UNL     1       2.033   5.606  20.458  0.00  0.00    +0.000 A 
ATOM     24  C   UNL     1       2.005   6.919  19.989  0.00  0.00    +0.000 A 
ATOM     25  C   UNL     1       2.367   7.214  18.671  0.00  0.00    +0.000 A 
ATOM     26  C   UNL     1       2.763   6.174  17.833  0.00  0.00    +0.000 A 
ATOM     27  C   UNL     1       2.787   4.858  18.305  0.00  0.00    +0.000 A 
BRANCH  22  29
ATOM     28  C   UNL     1       1.536   2.155  19.222  0.00  0.00    +0.000 C 
ATOM     29  C   UNL     1       2.403   3.080  20.106  0.00  0.00    +0.000 C 
ATOM     30  C   UNL     1       1.849   3.000  21.542  0.00  0.00    +0.000 C 
ATOM     31  C   UNL     1       3.838   2.512  20.088  0.00  0.00    +0.000 C 
ENDBRANCH  22  29
ENDBRANCH  21  25
ENDBRANCH  17  21
ENDBRANCH   1  18
BRANCH   1  32
ATOM     32  N   UNL     1       1.344  11.928  21.177  0.00  0.00    +0.000 NA
ATOM     33  H   UNL     1       1.995  12.674  20.928  0.00  0.00    +0.000 HD
ATOM     34  H   UNL     1       1.948  11.144  21.433  0.00  0.00    +0.000 HD
ENDBRANCH   1  32
TORSDOF 6
ENDMDL
MODEL 3
REMARK VINA RESULT:      -8.3      4.682      9.887
REMARK  Name = 
REMARK  9 active torsions:
REMARK  status: ('A' for Active; 'I' for Inactive)
REMARK    1  A    between atoms: C_1  and  C_2
REMARK    2  A    between atoms: C_2  and  C_3
REMARK    3  A    between atoms: C_2  and  C_4
REMARK    4  A    between atoms: C_2  and  C_5
REMARK    5  A    between atoms: C_8  and  C_9
REMARK    6  A    between atoms: C_9  and  N_10
REMARK    7  A    between atoms: C_11  and  C_13
REMARK    8  A    between atoms: C_13  and  N_14
REMARK    9  A    between atoms: N_17  and  C_18
REMARK                            x       y       z     vdW  Elec       q    Type
REMARK                         _______ _______ _______ _____ _____    ______ ____
ROOT
ATOM      1  C   UNL     1       0.607  11.579  19.914  0.00  0.00    +0.000 C 
ATOM      2  C   UNL     1      -0.520  10.624  20.377  0.00  0.00    +0.000 C 
ATOM      3  C   UNL     1      -1.534  10.345  19.259  0.00  0.00    +0.000 C 
ATOM      4  N   UNL     1      -1.988  11.642  18.781  0.00  0.00    +0.000 N 
ATOM      5  C   UNL     1      -0.967  12.447  18.124  0.00  0.00    +0.000 C 
ATOM      6  C   UNL     1       0.053  12.826  19.200  0.00  0.00    +0.000 C 
ENDROOT
BRANCH   4   7
ATOM      7  C   UNL     1      -3.311  11.829  18.442  0.00  0.00    +0.000 A 
ATOM      8  N   UNL     1      -3.764  11.474  17.211  0.00  0.00    +0.000 NA
ATOM      9  C   UNL     1      -5.069  11.649  16.918  0.00  0.00    +0.000 A 
ATOM     10  N   UNL     1      -6.045  12.134  17.705  0.00  0.00    +0.000 NA
ATOM     11  C   UNL     1      -5.572  12.432  18.922  0.00  0.00    +0.000 A 
ATOM     12  N   UNL     1      -6.329  12.920  19.953  0.00  0.00    +0.000 N 
ATOM     13  C   UNL     1      -5.554  13.077  21.072  0.00  0.00    +0.000 A 
ATOM     14  C   UNL     1      -4.278  12.672  20.749  0.00  0.00    +0.000 A 
ATOM     15  C   UNL     1      -4.270  12.303  19.369  0.00  0.00    +0.000 A 
ATOM     16  H   UNL     1      -7.317  13.114  19.879  0.00  0.00    +0.000 HD
ENDBRANCH   4   7
BRANCH   1  18
ATOM     17  N   UNL     1       1.515   9.445  19.086  0.00  0.00    +0.000 N 
ATOM     18  C   UNL     1       1.555  10.811  18.948  0.00  0.00    +0.000 C 
ATOM     19  O   UNL     1       2.210  11.351  18.061  0.00  0.00    +0.000 OA
ATOM     20  H   UNL     1       1.356   9.122  20.034  0.00  0.00    +0.000 HD
BRANCH  17  21
ATOM     21  C   UNL     1       2.287   8.613  18.200  0.00  0.00    +0.000 C 
BRANCH  21  25
ATOM     22  C   UNL     1       2.444   4.509  19.596  0.00  0.00    +0.000 A 
ATOM     23  C   UNL     1       2.762   4.848  18.272  0.00  0.00    +0.000 A 
ATOM     24  C   UNL     1       2.696   6.167  17.825  0.00  0.00    +0.000 A 
ATOM     25  C   UNL     1       2.297   7.194  18.686  0.00  0.00    +0.000 A 
ATOM     26  C   UNL     1       1.960   6.877  20.001  0.00  0.00    +0.000 A 
ATOM     27  C   UNL     1       2.029   5.553  20.447  0.00  0.00    +0.000 A 
BRANCH  22  29
ATOM     28  C   UNL     1       3.985   2.491  20.015  0.00  0.00    +0.000 C 
ATOM     29  C   UNL     1       2.556   3.069  20.125  0.00  0.00    +0.000 C 
ATOM     30  C   UNL     1       1.618   2.140  19.328  0.00  0.00    +0.000 C 
ATOM     31  C   UNL     1       2.160   3.023  21.616  0.00  0.00    +0.000 C 
ENDBRANCH  22  29
ENDBRANCH  21  25
ENDBRANCH  17  21
ENDBRANCH   1  18
BRANCH   1  32
ATOM     32  N   UNL     1       1.389  12.004  21.119  0.00  0.00    +0.000 NA
ATOM     33  H   UNL     1       1.379  13.024  21.170  0.00  0.00    +0.000 HD
ATOM     34  H   UNL     1       2.371  11.771  20.958  0.00  0.00    +0.000 HD
ENDBRANCH   1  32
TORSDOF 6
ENDMDL
MODEL 4
REMARK VINA RESULT:      -8.2      0.808      1.739
REMARK  Name = 
REMARK  9 active torsions:
REMARK  status: ('A' for Active; 'I' for Inactive)
REMARK    1  A    between atoms: C_1  and  C_2
REMARK    2  A    between atoms: C_2  and  C_3
REMARK    3  A    between atoms: C_2  and  C_4
REMARK    4  A    between atoms: C_2  and  C_5
REMARK    5  A    between atoms: C_8  and  C_9
REMARK    6  A    between atoms: C_9  and  N_10
REMARK    7  A    between atoms: C_11  and  C_13
REMARK    8  A    between atoms: C_13  and  N_14
REMARK    9  A    between atoms: N_17  and  C_18
REMARK                            x       y       z     vdW  Elec       q    Type
REMARK                         _______ _______ _______ _____ _____    ______ ____
ROOT
ATOM      1  C   UNL     1       2.404   3.069  18.954  0.00  0.00    +0.000 C 
ATOM      2  C   UNL     1       3.881   2.775  19.311  0.00  0.00    +0.000 C 
ATOM      3  C   UNL     1       4.739   4.047  19.308  0.00  0.00    +0.000 C 
ATOM      4  N   UNL     1       4.536   4.679  18.014  0.00  0.00    +0.000 N 
ATOM      5  C   UNL     1       3.186   5.174  17.776  0.00  0.00    +0.000 C 
ATOM      6  C   UNL     1       2.276   3.948  17.696  0.00  0.00    +0.000 C 
ENDROOT
BRANCH   4   7
ATOM      7  C   UNL     1       5.594   5.276  17.362  0.00  0.00    +0.000 A 
ATOM      8  N   UNL     1       6.353   6.210  17.991  0.00  0.00    +0.000 NA
ATOM      9  C   UNL     1       7.395   6.759  17.334  0.00  0.00    +0.000 A 
ATOM     10  N   UNL     1       7.829   6.498  16.089  0.00  0.00    +0.000 NA
ATOM     11  C   UNL     1       7.085   5.543  15.515  0.00  0.00    +0.000 A 
ATOM     12  N   UNL     1       7.297   5.041  14.259  0.00  0.00    +0.000 N 
ATOM     13  C   UNL     1       6.391   4.048  13.991  0.00  0.00    +0.000 A 
ATOM     14  C   UNL     1       5.591   3.909  15.103  0.00  0.00    +0.000 A 
ATOM     15  C   UNL     1       5.997   4.888  16.061  0.00  0.00    +0.000 A 
ATOM     16  H   UNL     1       8.030   5.362  13.644  0.00  0.00    +0.000 HD
ENDBRANCH   4   7
BRANCH   1  18
ATOM     17  N   UNL     1       1.887   5.152  20.162  0.00  0.00    +0.000 N 
ATOM     18  C   UNL     1       1.728   3.788  20.157  0.00  0.00    +0.000 C 
ATOM     19  O   UNL     1       1.020   3.218  20.983  0.00  0.00    +0.000 OA
ATOM     20  H   UNL     1       2.772   5.474  19.787  0.00  0.00    +0.000 HD
BRANCH  17  21
ATOM     21  C   UNL     1       1.245   5.944  21.179  0.00  0.00    +0.000 C 
BRANCH  21  25
ATOM     22  C   UNL     1       0.965  10.068  19.863  0.00  0.00    +0.000 A 
ATOM     23  C   UNL     1       1.678   9.108  19.127  0.00  0.00    +0.000 A 
ATOM     24  C   UNL     1       1.776   7.787  19.563  0.00  0.00    +0.000 A 
ATOM     25  C   UNL     1       1.173   7.383  20.758  0.00  0.00    +0.000 A 
ATOM     26  C   UNL     1       0.475   8.324  21.512  0.00  0.00    +0.000 A 
ATOM     27  C   UNL     1       0.376   9.647  21.072  0.00  0.00    +0.000 A 
BRANCH  22  29
ATOM     28  C   UNL     1       1.994  12.013  18.528  0.00  0.00    +0.000 C 
ATOM     29  C   UNL     1       0.802  11.518  19.378  0.00  0.00    +0.000 C 
ATOM     30  C   UNL     1       0.670  12.467  20.587  0.00  0.00    +0.000 C 
ATOM     31  C   UNL     1      -0.463  11.642  18.502  0.00  0.00    +0.000 C 
ENDBRANCH  22  29
ENDBRANCH  21  25
ENDBRANCH  17  21
ENDBRANCH   1  18
BRANCH   1  32
ATOM     32  N   UNL     1       1.708   1.763  18.720  0.00  0.00    +0.000 NA
ATOM     33  H   UNL     1       1.029   1.618  19.469  0.00  0.00    +0.000 HD
ATOM     34  H   UNL     1       2.389   1.012  18.851  0.00  0.00    +0.000 HD
ENDBRANCH   1  32
TORSDOF 6
ENDMDL
MODEL 5
REMARK VINA RESULT:      -8.2      0.740      1.176
REMARK  Name = 
REMARK  9 active torsions:
REMARK  status: ('A' for Active; 'I' for Inactive)
REMARK    1  A    between atoms: C_1  and  C_2
REMARK    2  A    between atoms: C_2  and  C_3
REMARK    3  A    between atoms: C_2  and  C_4
REMARK    4  A    between atoms: C_2  and  C_5
REMARK    5  A    between atoms: C_8  and  C_9
REMARK    6  A    between atoms: C_9  and  N_10
REMARK    7  A    between atoms: C_11  and  C_13
REMARK    8  A    between atoms: C_13  and  N_14
REMARK    9  A    between atoms: N_17  and  C_18
REMARK                            x       y       z     vdW  Elec       q    Type
REMARK                         _______ _______ _______ _____ _____    ______ ____
ROOT
ATOM      1  C   UNL     1       2.238   2.632  18.762  0.00  0.00    +0.000 C 
ATOM      2  C   UNL     1       3.721   2.300  19.053  0.00  0.00    +0.000 C 
ATOM      3  C   UNL     1       4.643   3.497  18.786  0.00  0.00    +0.000 C 
ATOM      4  N   UNL     1       4.369   3.934  17.426  0.00  0.00    +0.000 N 
ATOM      5  C   UNL     1       3.032   4.475  17.212  0.00  0.00    +0.000 C 
ATOM      6  C   UNL     1       2.054   3.314  17.393  0.00  0.00    +0.000 C 
ENDROOT
BRANCH   4   7
ATOM      7  C   UNL     1       5.400   4.353  16.612  0.00  0.00    +0.000 A 
ATOM      8  N   UNL     1       5.618   3.753  15.413  0.00  0.00    +0.000 NA
ATOM      9  C   UNL     1       6.621   4.201  14.629  0.00  0.00    +0.000 A 
ATOM     10  N   UNL     1       7.475   5.213  14.861  0.00  0.00    +0.000 NA
ATOM     11  C   UNL     1       7.203   5.808  16.030  0.00  0.00    +0.000 A 
ATOM     12  N   UNL     1       7.880   6.888  16.531  0.00  0.00    +0.000 N 
ATOM     13  C   UNL     1       7.327   7.279  17.722  0.00  0.00    +0.000 A 
ATOM     14  C   UNL     1       6.269   6.436  17.981  0.00  0.00    +0.000 A 
ATOM     15  C   UNL     1       6.211   5.468  16.932  0.00  0.00    +0.000 A 
ATOM     16  H   UNL     1       8.661   7.324  16.063  0.00  0.00    +0.000 HD
ENDBRANCH   4   7
BRANCH   1  18
ATOM     17  N   UNL     1       2.634   4.453  20.372  0.00  0.00    +0.000 N 
ATOM     18  C   UNL     1       1.703   3.571  19.881  0.00  0.00    +0.000 C 
ATOM     19  O   UNL     1       0.528   3.610  20.237  0.00  0.00    +0.000 OA
ATOM     20  H   UNL     1       3.582   4.095  20.395  0.00  0.00    +0.000 HD
BRANCH  17  21
ATOM     21  C   UNL     1       2.247   5.429  21.358  0.00  0.00    +0.000 C 
BRANCH  21  25
ATOM     22  C   UNL     1       1.218   9.231  19.540  0.00  0.00    +0.000 A 
ATOM     23  C   UNL     1       0.694   8.845  20.784  0.00  0.00    +0.000 A 
ATOM     24  C   UNL     1       1.017   7.615  21.356  0.00  0.00    +0.000 A 
ATOM     25  C   UNL     1       1.868   6.722  20.698  0.00  0.00    +0.000 A 
ATOM     26  C   UNL     1       2.386   7.079  19.454  0.00  0.00    +0.000 A 
ATOM     27  C   UNL     1       2.063   8.314  18.884  0.00  0.00    +0.000 A 
BRANCH  22  29
ATOM     28  C   UNL     1       2.014  11.078  17.935  0.00  0.00    +0.000 C 
ATOM     29  C   UNL     1       0.915  10.601  18.912  0.00  0.00    +0.000 C 
ATOM     30  C   UNL     1       0.780  11.670  20.015  0.00  0.00    +0.000 C 
ATOM     31  C   UNL     1      -0.405  10.534  18.113  0.00  0.00    +0.000 C 
ENDBRANCH  22  29
ENDBRANCH  21  25
ENDBRANCH  17  21
ENDBRANCH   1  18
BRANCH   1  32
ATOM     32  N   UNL     1       1.455   1.355  18.789  0.00  0.00    +0.000 NA
ATOM     33  H   UNL     1       1.032   1.253  19.713  0.00  0.00    +0.000 HD
ATOM     34  H   UNL     1       2.116   0.577  18.730  0.00  0.00    +0.000 HD
ENDBRANCH   1  32
TORSDOF 6
ENDMDL
MODEL 6
REMARK VINA RESULT:      -8.1      4.688     10.079
REMARK  Name = 
REMARK  9 active torsions:
REMARK  status: ('A' for Active; 'I' for Inactive)
REMARK    1  A    between atoms: C_1  and  C_2
REMARK    2  A    between atoms: C_2  and  C_3
REMARK    3  A    between atoms: C_2  and  C_4
REMARK    4  A    between atoms: C_2  and  C_5
REMARK    5  A    between atoms: C_8  and  C_9
REMARK    6  A    between atoms: C_9  and  N_10
REMARK    7  A    between atoms: C_11  and  C_13
REMARK    8  A    between atoms: C_13  and  N_14
REMARK    9  A    between atoms: N_17  and  C_18
REMARK                            x       y       z     vdW  Elec       q    Type
REMARK                         _______ _______ _______ _____ _____    ______ ____
ROOT
ATOM      1  C   UNL     1      -0.276  11.118  18.643  0.00  0.00    +0.000 C 
ATOM      2  C   UNL     1      -0.235  12.665  18.609  0.00  0.00    +0.000 C 
ATOM      3  C   UNL     1       0.373  13.254  19.889  0.00  0.00    +0.000 C 
ATOM      4  N   UNL     1      -0.375  12.685  21.000  0.00  0.00    +0.000 N 
ATOM      5  C   UNL     1      -0.218  11.247  21.175  0.00  0.00    +0.000 C 
ATOM      6  C   UNL     1      -0.868  10.583  19.961  0.00  0.00    +0.000 C 
ENDROOT
BRANCH   4   7
ATOM      7  C   UNL     1      -0.687  13.464  22.094  0.00  0.00    +0.000 A 
ATOM      8  N   UNL     1       0.103  14.512  22.443  0.00  0.00    +0.000 NA
ATOM      9  C   UNL     1      -0.242  15.269  23.505  0.00  0.00    +0.000 A 
ATOM     10  N   UNL     1      -1.315  15.146  24.305  0.00  0.00    +0.000 NA
ATOM     11  C   UNL     1      -2.093  14.131  23.906  0.00  0.00    +0.000 A 
ATOM     12  N   UNL     1      -3.272  13.772  24.504  0.00  0.00    +0.000 N 
ATOM     13  C   UNL     1      -3.842  12.726  23.828  0.00  0.00    +0.000 A 
ATOM     14  C   UNL     1      -3.014  12.416  22.772  0.00  0.00    +0.000 A 
ATOM     15  C   UNL     1      -1.875  13.277  22.841  0.00  0.00    +0.000 A 
ATOM     16  H   UNL     1      -3.652  14.238  25.315  0.00  0.00    +0.000 HD
ENDBRANCH   4   7
BRANCH   1  18
ATOM     17  N   UNL     1       1.260   9.201  18.476  0.00  0.00    +0.000 N 
ATOM     18  C   UNL     1       1.169  10.571  18.467  0.00  0.00    +0.000 C 
ATOM     19  O   UNL     1       2.144  11.281  18.233  0.00  0.00    +0.000 OA
ATOM     20  H   UNL     1       0.594   8.739  19.085  0.00  0.00    +0.000 HD
BRANCH  17  21
ATOM     21  C   UNL     1       2.532   8.566  18.246  0.00  0.00    +0.000 C 
BRANCH  21  25
ATOM     22  C   UNL     1       2.565   4.440  19.584  0.00  0.00    +0.000 A 
ATOM     23  C   UNL     1       2.984   4.797  18.293  0.00  0.00    +0.000 A 
ATOM     24  C   UNL     1       2.958   6.124  17.864  0.00  0.00    +0.000 A 
ATOM     25  C   UNL     1       2.499   7.139  18.709  0.00  0.00    +0.000 A 
ATOM     26  C   UNL     1       2.062   6.803  19.989  0.00  0.00    +0.000 A 
ATOM     27  C   UNL     1       2.092   5.473  20.418  0.00  0.00    +0.000 A 
BRANCH  22  29
ATOM     28  C   UNL     1       2.187   2.847  21.570  0.00  0.00    +0.000 C 
ATOM     29  C   UNL     1       2.630   2.991  20.096  0.00  0.00    +0.000 C 
ATOM     30  C   UNL     1       4.074   2.459  19.993  0.00  0.00    +0.000 C 
ATOM     31  C   UNL     1       1.702   2.092  19.253  0.00  0.00    +0.000 C 
ENDBRANCH  22  29
ENDBRANCH  21  25
ENDBRANCH  17  21
ENDBRANCH   1  18
BRANCH   1  32
ATOM     32  N   UNL     1      -1.114  10.644  17.495  0.00  0.00    +0.000 NA
ATOM     33  H   UNL     1      -1.830  11.347  17.303  0.00  0.00    +0.000 HD
ATOM     34  H   UNL     1      -1.643   9.826  17.804  0.00  0.00    +0.000 HD
ENDBRANCH   1  32
TORSDOF 6
ENDMDL
MODEL 7
REMARK VINA RESULT:      -8.1      4.887     10.359
REMARK  Name = 
REMARK  9 active torsions:
REMARK  status: ('A' for Active; 'I' for Inactive)
REMARK    1  A    between atoms: C_1  and  C_2
REMARK    2  A    between atoms: C_2  and  C_3
REMARK    3  A    between atoms: C_2  and  C_4
REMARK    4  A    between atoms: C_2  and  C_5
REMARK    5  A    between atoms: C_8  and  C_9
REMARK    6  A    between atoms: C_9  and  N_10
REMARK    7  A    between atoms: C_11  and  C_13
REMARK    8  A    between atoms: C_13  and  N_14
REMARK    9  A    between atoms: N_17  and  C_18
REMARK                            x       y       z     vdW  Elec       q    Type
REMARK                         _______ _______ _______ _____ _____    ______ ____
ROOT
ATOM      1  C   UNL     1      -0.599  11.458  18.827  0.00  0.00    +0.000 C 
ATOM      2  C   UNL     1      -0.588  13.003  18.922  0.00  0.00    +0.000 C 
ATOM      3  C   UNL     1      -0.061  13.494  20.278  0.00  0.00    +0.000 C 
ATOM      4  N   UNL     1      -0.854  12.823  21.296  0.00  0.00    +0.000 N 
ATOM      5  C   UNL     1      -0.677  11.378  21.361  0.00  0.00    +0.000 C 
ATOM      6  C   UNL     1      -1.248  10.807  20.062  0.00  0.00    +0.000 C 
ENDROOT
BRANCH   4   7
ATOM      7  C   UNL     1      -1.240  13.503  22.432  0.00  0.00    +0.000 A 
ATOM      8  N   UNL     1      -0.404  14.401  23.015  0.00  0.00    +0.000 NA
ATOM      9  C   UNL     1      -0.820  15.067  24.112  0.00  0.00    +0.000 A 
ATOM     10  N   UNL     1      -2.005  14.984  24.741  0.00  0.00    +0.000 NA
ATOM     11  C   UNL     1      -2.818  14.123  24.114  0.00  0.00    +0.000 A 
ATOM     12  N   UNL     1      -4.102  13.844  24.499  0.00  0.00    +0.000 N 
ATOM     13  C   UNL     1      -4.674  12.959  23.623  0.00  0.00    +0.000 A 
ATOM     14  C   UNL     1      -3.737  12.674  22.654  0.00  0.00    +0.000 A 
ATOM     15  C   UNL     1      -2.537  13.377  22.985  0.00  0.00    +0.000 A 
ATOM     16  H   UNL     1      -4.546  14.256  25.307  0.00  0.00    +0.000 HD
ENDBRANCH   4   7
BRANCH   1  18
ATOM     17  N   UNL     1       0.977   9.604  18.450  0.00  0.00    +0.000 N 
ATOM     18  C   UNL     1       0.865  10.952  18.686  0.00  0.00    +0.000 C 
ATOM     19  O   UNL     1       1.846  11.691  18.677  0.00  0.00    +0.000 OA
ATOM     20  H   UNL     1       0.266   9.037  18.900  0.00  0.00    +0.000 HD
BRANCH  17  21
ATOM     21  C   UNL     1       2.274   9.020  18.223  0.00  0.00    +0.000 C 
BRANCH  21  25
ATOM     22  C   UNL     1       2.246   4.930  19.666  0.00  0.00    +0.000 A 
ATOM     23  C   UNL     1       1.894   6.005  20.497  0.00  0.00    +0.000 A 
ATOM     24  C   UNL     1       1.919   7.319  20.032  0.00  0.00    +0.000 A 
ATOM     25  C   UNL     1       2.308   7.605  18.720  0.00  0.00    +0.000 A 
ATOM     26  C   UNL     1       2.678   6.553  17.883  0.00  0.00    +0.000 A 
ATOM     27  C   UNL     1       2.650   5.236  18.352  0.00  0.00    +0.000 A 
BRANCH  22  29
ATOM     28  C   UNL     1       2.116   3.333  21.680  0.00  0.00    +0.000 C 
ATOM     29  C   UNL     1       2.180   3.469  20.142  0.00  0.00    +0.000 C 
ATOM     30  C   UNL     1       3.426   2.700  19.661  0.00  0.00    +0.000 C 
ATOM     31  C   UNL     1       0.917   2.786  19.573  0.00  0.00    +0.000 C 
ENDBRANCH  22  29
ENDBRANCH  21  25
ENDBRANCH  17  21
ENDBRANCH   1  18
BRANCH   1  32
ATOM     32  N   UNL     1      -1.364  11.068  17.600  0.00  0.00    +0.000 NA
ATOM     33  H   UNL     1      -2.362  11.115  17.811  0.00  0.00    +0.000 HD
ATOM     34  H   UNL     1      -1.193  10.076  17.422  0.00  0.00    +0.000 HD
ENDBRANCH   1  32
TORSDOF 6
ENDMDL
MODEL 8
REMARK VINA RESULT:      -8.1      0.855      1.939
REMARK  Name = 
REMARK  9 active torsions:
REMARK  status: ('A' for Active; 'I' for Inactive)
REMARK    1  A    between atoms: C_1  and  C_2
REMARK    2  A    between atoms: C_2  and  C_3
REMARK    3  A    between atoms: C_2  and  C_4
REMARK    4  A    between atoms: C_2  and  C_5
REMARK    5  A    between atoms: C_8  and  C_9
REMARK    6  A    between atoms: C_9  and  N_10
REMARK    7  A    between atoms: C_11  and  C_13
REMARK    8  A    between atoms: C_13  and  N_14
REMARK    9  A    between atoms: N_17  and  C_18
REMARK                            x       y       z     vdW  Elec       q    Type
REMARK                         _______ _______ _______ _____ _____    ______ ____
ROOT
ATOM      1  C   UNL     1       2.053   3.622  18.957  0.00  0.00    +0.000 C 
ATOM      2  C   UNL     1       3.478   3.065  19.193  0.00  0.00    +0.000 C 
ATOM      3  C   UNL     1       4.533   4.179  19.228  0.00  0.00    +0.000 C 
ATOM      4  N   UNL     1       4.369   4.941  18.000  0.00  0.00    +0.000 N 
ATOM      5  C   UNL     1       3.109   5.665  17.889  0.00  0.00    +0.000 C 
ATOM      6  C   UNL     1       2.006   4.612  17.778  0.00  0.00    +0.000 C 
ENDROOT
BRANCH   4   7
ATOM      7  C   UNL     1       5.475   5.413  17.326  0.00  0.00    +0.000 A 
ATOM      8  N   UNL     1       6.330   6.283  17.926  0.00  0.00    +0.000 NA
ATOM      9  C   UNL     1       7.415   6.708  17.247  0.00  0.00    +0.000 A 
ATOM     10  N   UNL     1       7.809   6.374  16.007  0.00  0.00    +0.000 NA
ATOM     11  C   UNL     1       6.969   5.483  15.463  0.00  0.00    +0.000 A 
ATOM     12  N   UNL     1       7.117   4.932  14.218  0.00  0.00    +0.000 N 
ATOM     13  C   UNL     1       6.115   4.028  13.983  0.00  0.00    +0.000 A 
ATOM     14  C   UNL     1       5.315   3.997  15.104  0.00  0.00    +0.000 A 
ATOM     15  C   UNL     1       5.826   4.954  16.033  0.00  0.00    +0.000 A 
ATOM     16  H   UNL     1       7.874   5.162  13.591  0.00  0.00    +0.000 HD
ENDBRANCH   4   7
BRANCH   1  18
ATOM     17  N   UNL     1       1.699   5.703  20.224  0.00  0.00    +0.000 N 
ATOM     18  C   UNL     1       1.570   4.337  20.251  0.00  0.00    +0.000 C 
ATOM     19  O   UNL     1       1.020   3.759  21.186  0.00  0.00    +0.000 OA
ATOM     20  H   UNL     1       2.504   6.040  19.707  0.00  0.00    +0.000 HD
BRANCH  17  21
ATOM     21  C   UNL     1       1.217   6.491  21.329  0.00  0.00    +0.000 C 
BRANCH  21  25
ATOM     22  C   UNL     1       0.281  10.493  19.944  0.00  0.00    +0.000 A 
ATOM     23  C   UNL     1       1.172   9.663  19.246  0.00  0.00    +0.000 A 
ATOM     24  C   UNL     1       1.480   8.383  19.704  0.00  0.00    +0.000 A 
ATOM     25  C   UNL     1       0.915   7.892  20.885  0.00  0.00    +0.000 A 
ATOM     26  C   UNL     1       0.042   8.706  21.603  0.00  0.00    +0.000 A 
ATOM     27  C   UNL     1      -0.268   9.989  21.140  0.00  0.00    +0.000 A 
BRANCH  22  29
ATOM     28  C   UNL     1      -0.670  12.808  20.543  0.00  0.00    +0.000 C 
ATOM     29  C   UNL     1      -0.111  11.890  19.433  0.00  0.00    +0.000 C 
ATOM     30  C   UNL     1      -1.195  11.768  18.343  0.00  0.00    +0.000 C 
ATOM     31  C   UNL     1       1.124  12.598  18.836  0.00  0.00    +0.000 C 
ENDBRANCH  22  29
ENDBRANCH  21  25
ENDBRANCH  17  21
ENDBRANCH   1  18
BRANCH   1  32
ATOM     32  N   UNL     1       1.139   2.469  18.673  0.00  0.00    +0.000 NA
ATOM     33  H   UNL     1       0.356   2.507  19.327  0.00  0.00    +0.000 HD
ATOM     34  H   UNL     1       1.630   1.607  18.920  0.00  0.00    +0.000 HD
ENDBRANCH   1  32
TORSDOF 6
ENDMDL
MODEL 9
REMARK VINA RESULT:      -8.0      4.788     10.290
REMARK  Name = 
REMARK  9 active torsions:
REMARK  status: ('A' for Active; 'I' for Inactive)
REMARK    1  A    between atoms: C_1  and  C_2
REMARK    2  A    between atoms: C_2  and  C_3
REMARK    3  A    between atoms: C_2  and  C_4
REMARK    4  A    between atoms: C_2  and  C_5
REMARK    5  A    between atoms: C_8  and  C_9
REMARK    6  A    between atoms: C_9  and  N_10
REMARK    7  A    between atoms: C_11  and  C_13
REMARK    8  A    between atoms: C_13  and  N_14
REMARK    9  A    between atoms: N_17  and  C_18
REMARK                            x       y       z     vdW  Elec       q    Type
REMARK                         _______ _______ _______ _____ _____    ______ ____
ROOT
ATOM      1  C   UNL     1      -0.560  11.261  18.651  0.00  0.00    +0.000 C 
ATOM      2  C   UNL     1      -0.536  12.804  18.770  0.00  0.00    +0.000 C 
ATOM      3  C   UNL     1      -0.095  13.267  20.166  0.00  0.00    +0.000 C 
ATOM      4  N   UNL     1      -0.964  12.593  21.118  0.00  0.00    +0.000 N 
ATOM      5  C   UNL     1      -0.811  11.145  21.172  0.00  0.00    +0.000 C 
ATOM      6  C   UNL     1      -1.300  10.600  19.830  0.00  0.00    +0.000 C 
ENDROOT
BRANCH   4   7
ATOM      7  C   UNL     1      -1.417  13.262  22.235  0.00  0.00    +0.000 A 
ATOM      8  N   UNL     1      -0.569  14.023  22.974  0.00  0.00    +0.000 NA
ATOM      9  C   UNL     1      -1.048  14.684  24.048  0.00  0.00    +0.000 A 
ATOM     10  N   UNL     1      -2.308  14.717  24.516  0.00  0.00    +0.000 NA
ATOM     11  C   UNL     1      -3.124  13.992  23.739  0.00  0.00    +0.000 A 
ATOM     12  N   UNL     1      -4.471  13.853  23.941  0.00  0.00    +0.000 N 
ATOM     13  C   UNL     1      -5.019  13.086  22.946  0.00  0.00    +0.000 A 
ATOM     14  C   UNL     1      -4.000  12.734  22.088  0.00  0.00    +0.000 A 
ATOM     15  C   UNL     1      -2.782  13.269  22.611  0.00  0.00    +0.000 A 
ATOM     16  H   UNL     1      -4.968  14.279  24.709  0.00  0.00    +0.000 HD
ENDBRANCH   4   7
BRANCH   1  18
ATOM     17  N   UNL     1       1.022   9.377  18.757  0.00  0.00    +0.000 N 
ATOM     18  C   UNL     1       0.903  10.735  18.602  0.00  0.00    +0.000 C 
ATOM     19  O   UNL     1       1.874  11.442  18.341  0.00  0.00    +0.000 OA
ATOM     20  H   UNL     1       0.336   8.962  19.379  0.00  0.00    +0.000 HD
BRANCH  17  21
ATOM     21  C   UNL     1       2.316   8.753  18.654  0.00  0.00    +0.000 C 
BRANCH  21  25
ATOM     22  C   UNL     1       2.186   4.531  19.638  0.00  0.00    +0.000 A 
ATOM     23  C   UNL     1       2.523   4.975  18.349  0.00  0.00    +0.000 A 
ATOM     24  C   UNL     1       2.549   6.334  18.036  0.00  0.00    +0.000 A 
ATOM     25  C   UNL     1       2.227   7.296  18.998  0.00  0.00    +0.000 A 
ATOM     26  C   UNL     1       1.874   6.875  20.279  0.00  0.00    +0.000 A 
ATOM     27  C   UNL     1       1.851   5.512  20.592  0.00  0.00    +0.000 A 
BRANCH  22  29
ATOM     28  C   UNL     1       3.608   2.410  19.965  0.00  0.00    +0.000 C 
ATOM     29  C   UNL     1       2.198   3.041  20.021  0.00  0.00    +0.000 C 
ATOM     30  C   UNL     1       1.294   2.242  19.060  0.00  0.00    +0.000 C 
ATOM     31  C   UNL     1       1.678   2.864  21.463  0.00  0.00    +0.000 C 
ENDBRANCH  22  29
ENDBRANCH  21  25
ENDBRANCH  17  21
ENDBRANCH   1  18
BRANCH   1  32
ATOM     32  N   UNL     1      -1.246  10.899  17.369  0.00  0.00    +0.000 NA
ATOM     33  H   UNL     1      -2.250  11.041  17.486  0.00  0.00    +0.000 HD
ATOM     34  H   UNL     1      -1.152   9.890  17.233  0.00  0.00    +0.000 HD
ENDBRANCH   1  32
TORSDOF 6
ENDMDL
