MODEL 1
REMARK VINA RESULT:      -7.2      0.000      0.000
REMARK  Name = 
REMARK  6 active torsions:
REMARK  status: ('A' for Active; 'I' for Inactive)
REMARK    1  A    between atoms: C_1  and  N_2
REMARK    2  A    between atoms: N_2  and  C_3
REMARK    3  A    between atoms: N_6  and  C_7
REMARK    4  A    between atoms: N_10  and  C_11
REMARK    5  A    between atoms: C_15  and  C_16
REMARK    6  A    between atoms: C_19  and  C_20
REMARK                            x       y       z     vdW  Elec       q    Type
REMARK                         _______ _______ _______ _____ _____    ______ ____
ROOT
ATOM      1  C   UNL     1       4.947   4.651  18.458  0.00  0.00    +0.000 A 
ATOM      2  N   UNL     1       3.849   5.222  19.000  0.00  0.00    +0.000 NA
ATOM      3  C   UNL     1       3.375   6.357  18.469  0.00  0.00    +0.000 A 
ATOM      4  N   UNL     1       2.298   6.946  19.137  0.00  0.00    +0.000 N 
ATOM      5  N   UNL     1       3.928   6.950  17.408  0.00  0.00    +0.000 NA
ATOM      6  C   UNL     1       5.018   6.374  16.885  0.00  0.00    +0.000 A 
ATOM      7  C   UNL     1       5.580   5.215  17.369  0.00  0.00    +0.000 A 
ATOM      8  H   UNL     1       2.105   6.385  19.955  0.00  0.00    +0.000 HD
ENDROOT
BRANCH   4   9
ATOM      9  C   UNL     1       1.883   8.226  19.047  0.00  0.00    +0.000 A 
ATOM     10  C   UNL     1       1.975   9.111  17.956  0.00  0.00    +0.000 A 
ATOM     11  N   UNL     1       1.514  10.323  18.252  0.00  0.00    +0.000 NA
ATOM     12  N   UNL     1       1.194  10.242  19.559  0.00  0.00    +0.000 N 
ATOM     13  C   UNL     1       1.294   8.953  20.061  0.00  0.00    +0.000 A 
ATOM     14  C   UNL     1       0.881   8.517  21.419  0.00  0.00    +0.000 C 
BRANCH  12  15
ATOM     15  C   UNL     1       0.865  11.413  20.321  0.00  0.00    +0.000 C 
ATOM     16  C   UNL     1       1.002  12.728  19.526  0.00  0.00    +0.000 C 
ATOM     17  O   UNL     1      -0.325  13.143  19.958  0.00  0.00    +0.000 OA
ATOM     18  C   UNL     1      -0.632  11.751  20.247  0.00  0.00    +0.000 C 
ENDBRANCH  12  15
ENDBRANCH   4   9
BRANCH   7  19
ATOM     19  C   UNL     1       6.793   4.694  16.692  0.00  0.00    +0.000 C 
ATOM     20  F   UNL     1       7.816   4.324  17.509  0.00  0.00    +0.000 F 
ATOM     21  F   UNL     1       6.512   3.581  15.952  0.00  0.00    +0.000 F 
ATOM     22  F   UNL     1       7.322   5.586  15.807  0.00  0.00    +0.000 F 
ENDBRANCH   7  19
BRANCH   1  24
ATOM     23  C   UNL     1       4.501   2.615  19.688  0.00  0.00    +0.000 C 
ATOM     24  N   UNL     1       5.471   3.514  19.081  0.00  0.00    +0.000 N 
ATOM     25  H   UNL     1       6.130   3.020  18.481  0.00  0.00    +0.000 HD
ENDBRANCH   1  24
TORSDOF 4
ENDMDL
MODEL 2
REMARK VINA RESULT:      -7.2      2.581      3.541
REMARK  Name = 
REMARK  6 active torsions:
REMARK  status: ('A' for Active; 'I' for Inactive)
REMARK    1  A    between atoms: C_1  and  N_2
REMARK    2  A    between atoms: N_2  and  C_3
REMARK    3  A    between atoms: N_6  and  C_7
REMARK    4  A    between atoms: N_10  and  C_11
REMARK    5  A    between atoms: C_15  and  C_16
REMARK    6  A    between atoms: C_19  and  C_20
REMARK                            x       y       z     vdW  Elec       q    Type
REMARK                         _______ _______ _______ _____ _____    ______ ____
ROOT
ATOM      1  C   UNL     1       3.645   4.198  18.994  0.00  0.00    +0.000 A 
ATOM      2  N   UNL     1       3.673   5.473  19.441  0.00  0.00    +0.000 NA
ATOM      3  C   UNL     1       2.522   6.075  19.766  0.00  0.00    +0.000 A 
ATOM      4  N   UNL     1       2.612   7.422  20.126  0.00  0.00    +0.000 N 
ATOM      5  N   UNL     1       1.335   5.467  19.685  0.00  0.00    +0.000 NA
ATOM      6  C   UNL     1       1.324   4.206  19.237  0.00  0.00    +0.000 A 
ATOM      7  C   UNL     1       2.455   3.512  18.872  0.00  0.00    +0.000 A 
ATOM      8  H   UNL     1       3.580   7.698  20.029  0.00  0.00    +0.000 HD
ENDROOT
BRANCH   4   9
ATOM      9  C   UNL     1       1.617   8.333  20.136  0.00  0.00    +0.000 A 
ATOM     10  C   UNL     1       0.635   8.559  21.118  0.00  0.00    +0.000 A 
ATOM     11  N   UNL     1      -0.227   9.506  20.756  0.00  0.00    +0.000 NA
ATOM     12  N   UNL     1       0.155   9.838  19.508  0.00  0.00    +0.000 N 
ATOM     13  C   UNL     1       1.343   9.233  19.126  0.00  0.00    +0.000 A 
ATOM     14  C   UNL     1       2.089   9.503  17.871  0.00  0.00    +0.000 C 
BRANCH  12  15
ATOM     15  C   UNL     1      -0.662  10.675  18.675  0.00  0.00    +0.000 C 
ATOM     16  C   UNL     1      -1.966   9.998  18.205  0.00  0.00    +0.000 C 
ATOM     17  O   UNL     1      -2.737  11.160  18.625  0.00  0.00    +0.000 OA
ATOM     18  C   UNL     1      -1.634  11.537  19.495  0.00  0.00    +0.000 C 
ENDBRANCH  12  15
ENDBRANCH   4   9
BRANCH   7  19
ATOM     19  C   UNL     1       2.290   2.119  18.386  0.00  0.00    +0.000 C 
ATOM     20  F   UNL     1       3.117   1.194  18.944  0.00  0.00    +0.000 F 
ATOM     21  F   UNL     1       1.028   1.654  18.622  0.00  0.00    +0.000 F 
ATOM     22  F   UNL     1       2.463   2.012  17.037  0.00  0.00    +0.000 F 
ENDBRANCH   7  19
BRANCH   1  24
ATOM     23  C   UNL     1       5.444   4.174  17.375  0.00  0.00    +0.000 C 
ATOM     24  N   UNL     1       4.851   3.620  18.582  0.00  0.00    +0.000 N 
ATOM     25  H   UNL     1       5.522   3.555  19.346  0.00  0.00    +0.000 HD
ENDBRANCH   1  24
TORSDOF 4
ENDMDL
MODEL 3
REMARK VINA RESULT:      -7.1      3.137      4.162
REMARK  Name = 
REMARK  6 active torsions:
REMARK  status: ('A' for Active; 'I' for Inactive)
REMARK    1  A    between atoms: C_1  and  N_2
REMARK    2  A    between atoms: N_2  and  C_3
REMARK    3  A    between atoms: N_6  and  C_7
REMARK    4  A    between atoms: N_10  and  C_11
REMARK    5  A    between atoms: C_15  and  C_16
REMARK    6  A    between atoms: C_19  and  C_20
REMARK                            x       y       z     vdW  Elec       q    Type
REMARK                         _______ _______ _______ _____ _____    ______ ____
ROOT
ATOM      1  C   UNL     1       2.253   4.669  18.496  0.00  0.00    +0.000 A 
ATOM      2  N   UNL     1       2.369   6.011  18.598  0.00  0.00    +0.000 NA
ATOM      3  C   UNL     1       2.038   6.608  19.751  0.00  0.00    +0.000 A 
ATOM      4  N   UNL     1       2.088   8.005  19.757  0.00  0.00    +0.000 N 
ATOM      5  N   UNL     1       1.609   5.934  20.822  0.00  0.00    +0.000 NA
ATOM      6  C   UNL     1       1.496   4.605  20.702  0.00  0.00    +0.000 A 
ATOM      7  C   UNL     1       1.804   3.909  19.556  0.00  0.00    +0.000 A 
ATOM      8  H   UNL     1       2.344   8.303  18.827  0.00  0.00    +0.000 HD
ENDROOT
BRANCH   4   9
ATOM      9  C   UNL     1       1.474   8.839  20.622  0.00  0.00    +0.000 A 
ATOM     10  C   UNL     1       1.495   8.826  22.029  0.00  0.00    +0.000 A 
ATOM     11  N   UNL     1       0.717   9.770  22.551  0.00  0.00    +0.000 NA
ATOM     12  N   UNL     1       0.135  10.345  21.480  0.00  0.00    +0.000 N 
ATOM     13  C   UNL     1       0.649   9.890  20.276  0.00  0.00    +0.000 A 
ATOM     14  C   UNL     1       0.314  10.425  18.932  0.00  0.00    +0.000 C 
BRANCH  12  15
ATOM     15  C   UNL     1      -0.953  11.270  21.629  0.00  0.00    +0.000 C 
ATOM     16  C   UNL     1      -1.535  11.319  23.057  0.00  0.00    +0.000 C 
ATOM     17  O   UNL     1      -1.449  12.772  23.057  0.00  0.00    +0.000 OA
ATOM     18  C   UNL     1      -0.467  12.683  21.988  0.00  0.00    +0.000 C 
ENDBRANCH  12  15
ENDBRANCH   4   9
BRANCH   7  19
ATOM     19  C   UNL     1       1.623   2.436  19.566  0.00  0.00    +0.000 C 
ATOM     20  F   UNL     1       2.694   1.704  19.155  0.00  0.00    +0.000 F 
ATOM     21  F   UNL     1       1.341   1.977  20.821  0.00  0.00    +0.000 F 
ATOM     22  F   UNL     1       0.574   2.033  18.793  0.00  0.00    +0.000 F 
ENDBRANCH   7  19
BRANCH   1  24
ATOM     23  C   UNL     1       3.931   3.876  16.943  0.00  0.00    +0.000 C 
ATOM     24  N   UNL     1       2.525   4.080  17.256  0.00  0.00    +0.000 N 
ATOM     25  H   UNL     1       1.971   3.239  17.104  0.00  0.00    +0.000 HD
ENDBRANCH   1  24
TORSDOF 4
ENDMDL
MODEL 4
REMARK VINA RESULT:      -7.1      5.822      8.862
REMARK  Name = 
REMARK  6 active torsions:
REMARK  status: ('A' for Active; 'I' for Inactive)
REMARK    1  A    between atoms: C_1  and  N_2
REMARK    2  A    between atoms: N_2  and  C_3
REMARK    3  A    between atoms: N_6  and  C_7
REMARK    4  A    between atoms: N_10  and  C_11
REMARK    5  A    between atoms: C_15  and  C_16
REMARK    6  A    between atoms: C_19  and  C_20
REMARK                            x       y       z     vdW  Elec       q    Type
REMARK                         _______ _______ _______ _____ _____    ______ ____
ROOT
ATOM      1  C   UNL     1      -2.642  11.729  18.822  0.00  0.00    +0.000 A 
ATOM      2  N   UNL     1      -1.382  11.513  19.259  0.00  0.00    +0.000 NA
ATOM      3  C   UNL     1      -0.617  10.615  18.624  0.00  0.00    +0.000 A 
ATOM      4  N   UNL     1       0.638  10.369  19.186  0.00  0.00    +0.000 N 
ATOM      5  N   UNL     1      -1.036   9.928  17.558  0.00  0.00    +0.000 NA
ATOM      6  C   UNL     1      -2.288  10.151  17.140  0.00  0.00    +0.000 A 
ATOM      7  C   UNL     1      -3.147  11.046  17.736  0.00  0.00    +0.000 A 
ATOM      8  H   UNL     1       0.707  10.923  20.028  0.00  0.00    +0.000 HD
ENDROOT
BRANCH   4   9
ATOM      9  C   UNL     1       1.426   9.293  18.983  0.00  0.00    +0.000 A 
ATOM     10  C   UNL     1       2.198   8.962  17.853  0.00  0.00    +0.000 A 
ATOM     11  N   UNL     1       2.802   7.785  17.985  0.00  0.00    +0.000 NA
ATOM     12  N   UNL     1       2.359   7.320  19.170  0.00  0.00    +0.000 N 
ATOM     13  C   UNL     1       1.608   8.251  19.870  0.00  0.00    +0.000 A 
ATOM     14  C   UNL     1       1.098   8.090  21.255  0.00  0.00    +0.000 C 
BRANCH  12  15
ATOM     15  C   UNL     1       2.605   5.966  19.580  0.00  0.00    +0.000 C 
ATOM     16  C   UNL     1       2.334   4.924  18.475  0.00  0.00    +0.000 C 
ATOM     17  O   UNL     1       3.631   4.309  18.717  0.00  0.00    +0.000 OA
ATOM     18  C   UNL     1       4.065   5.546  19.346  0.00  0.00    +0.000 C 
ENDBRANCH  12  15
ENDBRANCH   4   9
BRANCH   7  19
ATOM     19  C   UNL     1      -4.511  11.185  17.167  0.00  0.00    +0.000 C 
ATOM     20  F   UNL     1      -4.956  12.460  16.997  0.00  0.00    +0.000 F 
ATOM     21  F   UNL     1      -4.597  10.613  15.930  0.00  0.00    +0.000 F 
ATOM     22  F   UNL     1      -5.458  10.554  17.919  0.00  0.00    +0.000 F 
ENDBRANCH   7  19
BRANCH   1  24
ATOM     23  C   UNL     1      -2.776  13.376  20.591  0.00  0.00    +0.000 C 
ATOM     24  N   UNL     1      -3.448  12.610  19.553  0.00  0.00    +0.000 N 
ATOM     25  H   UNL     1      -4.015  13.199  18.946  0.00  0.00    +0.000 HD
ENDBRANCH   1  24
TORSDOF 4
ENDMDL
MODEL 5
REMARK VINA RESULT:      -7.0      2.298      2.956
REMARK  Name = 
REMARK  6 active torsions:
REMARK  status: ('A' for Active; 'I' for Inactive)
REMARK    1  A    between atoms: C_1  and  N_2
REMARK    2  A    between atoms: N_2  and  C_3
REMARK    3  A    between atoms: N_6  and  C_7
REMARK    4  A    between atoms: N_10  and  C_11
REMARK    5  A    between atoms: C_15  and  C_16
REMARK    6  A    between atoms: C_19  and  C_20
REMARK                            x       y       z     vdW  Elec       q    Type
REMARK                         _______ _______ _______ _____ _____    ______ ____
ROOT
ATOM      1  C   UNL     1       3.994   4.292  18.198  0.00  0.00    +0.000 A 
ATOM      2  N   UNL     1       3.997   5.638  18.317  0.00  0.00    +0.000 NA
ATOM      3  C   UNL     1       2.905   6.254  18.787  0.00  0.00    +0.000 A 
ATOM      4  N   UNL     1       2.939   7.651  18.791  0.00  0.00    +0.000 N 
ATOM      5  N   UNL     1       1.805   5.595  19.165  0.00  0.00    +0.000 NA
ATOM      6  C   UNL     1       1.817   4.263  19.038  0.00  0.00    +0.000 A 
ATOM      7  C   UNL     1       2.890   3.548  18.556  0.00  0.00    +0.000 A 
ATOM      8  H   UNL     1       3.819   7.933  18.382  0.00  0.00    +0.000 HD
ENDROOT
BRANCH   4   9
ATOM      9  C   UNL     1       1.887   8.492  18.854  0.00  0.00    +0.000 A 
ATOM     10  C   UNL     1       1.259   9.203  17.815  0.00  0.00    +0.000 A 
ATOM     11  N   UNL     1       0.285   9.991  18.262  0.00  0.00    +0.000 NA
ATOM     12  N   UNL     1       0.335   9.846  19.601  0.00  0.00    +0.000 N 
ATOM     13  C   UNL     1       1.218   8.856  20.005  0.00  0.00    +0.000 A 
ATOM     14  C   UNL     1       1.395   8.368  21.396  0.00  0.00    +0.000 C 
BRANCH  12  15
ATOM     15  C   UNL     1      -0.415  10.705  20.473  0.00  0.00    +0.000 C 
ATOM     16  C   UNL     1       0.353  11.971  20.906  0.00  0.00    +0.000 C 
ATOM     17  O   UNL     1      -0.786  12.802  20.544  0.00  0.00    +0.000 OA
ATOM     18  C   UNL     1      -1.264  11.722  19.696  0.00  0.00    +0.000 C 
ENDBRANCH  12  15
ENDBRANCH   4   9
BRANCH   7  19
ATOM     19  C   UNL     1       2.758   2.072  18.464  0.00  0.00    +0.000 C 
ATOM     20  F   UNL     1       3.811   1.352  18.936  0.00  0.00    +0.000 F 
ATOM     21  F   UNL     1       1.678   1.623  19.169  0.00  0.00    +0.000 F 
ATOM     22  F   UNL     1       2.552   1.644  17.186  0.00  0.00    +0.000 F 
ENDBRANCH   7  19
BRANCH   1  24
ATOM     23  C   UNL     1       5.349   3.965  16.219  0.00  0.00    +0.000 C 
ATOM     24  N   UNL     1       5.116   3.681  17.627  0.00  0.00    +0.000 N 
ATOM     25  H   UNL     1       5.953   3.817  18.191  0.00  0.00    +0.000 HD
ENDBRANCH   1  24
TORSDOF 4
ENDMDL
MODEL 6
REMARK VINA RESULT:      -7.0      4.317      6.047
REMARK  Name = 
REMARK  6 active torsions:
REMARK  status: ('A' for Active; 'I' for Inactive)
REMARK    1  A    between atoms: C_1  and  N_2
REMARK    2  A    between atoms: N_2  and  C_3
REMARK    3  A    between atoms: N_6  and  C_7
REMARK    4  A    between atoms: N_10  and  C_11
REMARK    5  A    between atoms: C_15  and  C_16
REMARK    6  A    between atoms: C_19  and  C_20
REMARK                            x       y       z     vdW  Elec       q    Type
REMARK                         _______ _______ _______ _____ _____    ______ ____
ROOT
ATOM      1  C   UNL     1       7.420   5.131  13.747  0.00  0.00    +0.000 A 
ATOM      2  N   UNL     1       7.401   5.505  15.045  0.00  0.00    +0.000 NA
ATOM      3  C   UNL     1       6.599   4.857  15.899  0.00  0.00    +0.000 A 
ATOM      4  N   UNL     1       6.554   5.357  17.203  0.00  0.00    +0.000 N 
ATOM      5  N   UNL     1       5.820   3.835  15.531  0.00  0.00    +0.000 NA
ATOM      6  C   UNL     1       5.847   3.479  14.241  0.00  0.00    +0.000 A 
ATOM      7  C   UNL     1       6.633   4.094  13.292  0.00  0.00    +0.000 A 
ATOM      8  H   UNL     1       7.143   6.178  17.232  0.00  0.00    +0.000 HD
ENDROOT
BRANCH   4   9
ATOM      9  C   UNL     1       5.594   5.143  18.126  0.00  0.00    +0.000 A 
ATOM     10  C   UNL     1       5.553   4.181  19.152  0.00  0.00    +0.000 A 
ATOM     11  N   UNL     1       4.413   4.226  19.836  0.00  0.00    +0.000 NA
ATOM     12  N   UNL     1       3.687   5.168  19.203  0.00  0.00    +0.000 N 
ATOM     13  C   UNL     1       4.405   5.837  18.224  0.00  0.00    +0.000 A 
ATOM     14  C   UNL     1       3.930   7.012  17.451  0.00  0.00    +0.000 C 
BRANCH  12  15
ATOM     15  C   UNL     1       2.296   5.363  19.499  0.00  0.00    +0.000 C 
ATOM     16  C   UNL     1       1.408   4.157  19.127  0.00  0.00    +0.000 C 
ATOM     17  O   UNL     1       0.793   4.185  20.446  0.00  0.00    +0.000 OA
ATOM     18  C   UNL     1       1.942   4.933  20.931  0.00  0.00    +0.000 C 
ENDBRANCH  12  15
ENDBRANCH   4   9
BRANCH   7  19
ATOM     19  C   UNL     1       6.556   3.596  11.896  0.00  0.00    +0.000 C 
ATOM     20  F   UNL     1       6.969   4.464  10.933  0.00  0.00    +0.000 F 
ATOM     21  F   UNL     1       7.325   2.481  11.721  0.00  0.00    +0.000 F 
ATOM     22  F   UNL     1       5.293   3.218  11.545  0.00  0.00    +0.000 F 
ENDBRANCH   7  19
BRANCH   1  24
ATOM     23  C   UNL     1       9.610   6.008  13.206  0.00  0.00    +0.000 C 
ATOM     24  N   UNL     1       8.203   5.878  12.860  0.00  0.00    +0.000 N 
ATOM     25  H   UNL     1       8.070   5.583  11.894  0.00  0.00    +0.000 HD
ENDBRANCH   1  24
TORSDOF 4
ENDMDL
MODEL 7
REMARK VINA RESULT:      -7.0      2.110      2.894
REMARK  Name = 
REMARK  6 active torsions:
REMARK  status: ('A' for Active; 'I' for Inactive)
REMARK    1  A    between atoms: C_1  and  N_2
REMARK    2  A    between atoms: N_2  and  C_3
REMARK    3  A    between atoms: N_6  and  C_7
REMARK    4  A    between atoms: N_10  and  C_11
REMARK    5  A    between atoms: C_15  and  C_16
REMARK    6  A    between atoms: C_19  and  C_20
REMARK                            x       y       z     vdW  Elec       q    Type
REMARK                         _______ _______ _______ _____ _____    ______ ____
ROOT
ATOM      1  C   UNL     1       4.159   4.803  19.104  0.00  0.00    +0.000 A 
ATOM      2  N   UNL     1       3.803   5.839  19.893  0.00  0.00    +0.000 NA
ATOM      3  C   UNL     1       2.585   6.379  19.752  0.00  0.00    +0.000 A 
ATOM      4  N   UNL     1       2.318   7.508  20.531  0.00  0.00    +0.000 N 
ATOM      5  N   UNL     1       1.688   5.927  18.871  0.00  0.00    +0.000 NA
ATOM      6  C   UNL     1       2.058   4.902  18.093  0.00  0.00    +0.000 A 
ATOM      7  C   UNL     1       3.290   4.293  18.162  0.00  0.00    +0.000 A 
ATOM      8  H   UNL     1       3.158   7.725  21.047  0.00  0.00    +0.000 HD
ENDROOT
BRANCH   4   9
ATOM      9  C   UNL     1       1.357   8.432  20.324  0.00  0.00    +0.000 A 
ATOM     10  C   UNL     1       0.262   8.767  21.142  0.00  0.00    +0.000 A 
ATOM     11  N   UNL     1      -0.517   9.690  20.584  0.00  0.00    +0.000 NA
ATOM     12  N   UNL     1       0.035   9.896  19.372  0.00  0.00    +0.000 N 
ATOM     13  C   UNL     1       1.244   9.238  19.209  0.00  0.00    +0.000 A 
ATOM     14  C   UNL     1       2.157   9.375  18.046  0.00  0.00    +0.000 C 
BRANCH  12  15
ATOM     15  C   UNL     1      -0.640  10.665  18.365  0.00  0.00    +0.000 C 
ATOM     16  C   UNL     1      -1.915   9.987  17.819  0.00  0.00    +0.000 C 
ATOM     17  O   UNL     1      -2.670  11.216  18.020  0.00  0.00    +0.000 OA
ATOM     18  C   UNL     1      -1.656  11.647  18.969  0.00  0.00    +0.000 C 
ENDBRANCH  12  15
ENDBRANCH   4   9
BRANCH   7  19
ATOM     19  C   UNL     1       3.563   3.170  17.231  0.00  0.00    +0.000 C 
ATOM     20  F   UNL     1       3.814   1.965  17.812  0.00  0.00    +0.000 F 
ATOM     21  F   UNL     1       2.507   2.946  16.395  0.00  0.00    +0.000 F 
ATOM     22  F   UNL     1       4.623   3.418  16.409  0.00  0.00    +0.000 F 
ENDBRANCH   7  19
BRANCH   1  24
ATOM     23  C   UNL     1       6.529   5.275  18.979  0.00  0.00    +0.000 C 
ATOM     24  N   UNL     1       5.465   4.312  19.213  0.00  0.00    +0.000 N 
ATOM     25  H   UNL     1       5.603   3.788  20.076  0.00  0.00    +0.000 HD
ENDBRANCH   1  24
TORSDOF 4
ENDMDL
MODEL 8
REMARK VINA RESULT:      -6.8      2.870      3.605
REMARK  Name = 
REMARK  6 active torsions:
REMARK  status: ('A' for Active; 'I' for Inactive)
REMARK    1  A    between atoms: C_1  and  N_2
REMARK    2  A    between atoms: N_2  and  C_3
REMARK    3  A    between atoms: N_6  and  C_7
REMARK    4  A    between atoms: N_10  and  C_11
REMARK    5  A    between atoms: C_15  and  C_16
REMARK    6  A    between atoms: C_19  and  C_20
REMARK                            x       y       z     vdW  Elec       q    Type
REMARK                         _______ _______ _______ _____ _____    ______ ____
ROOT
ATOM      1  C   UNL     1       3.498   4.558  19.696  0.00  0.00    +0.000 A 
ATOM      2  N   UNL     1       3.504   5.856  19.323  0.00  0.00    +0.000 NA
ATOM      3  C   UNL     1       2.483   6.643  19.685  0.00  0.00    +0.000 A 
ATOM      4  N   UNL     1       2.504   7.947  19.183  0.00  0.00    +0.000 N 
ATOM      5  N   UNL     1       1.455   6.209  20.419  0.00  0.00    +0.000 NA
ATOM      6  C   UNL     1       1.462   4.919  20.777  0.00  0.00    +0.000 A 
ATOM      7  C   UNL     1       2.463   4.036  20.443  0.00  0.00    +0.000 A 
ATOM      8  H   UNL     1       3.313   8.029  18.585  0.00  0.00    +0.000 HD
ENDROOT
BRANCH   4   9
ATOM      9  C   UNL     1       1.462   8.799  19.083  0.00  0.00    +0.000 A 
ATOM     10  C   UNL     1       0.797   9.250  17.927  0.00  0.00    +0.000 A 
ATOM     11  N   UNL     1      -0.150  10.140  18.209  0.00  0.00    +0.000 NA
ATOM     12  N   UNL     1      -0.045  10.321  19.540  0.00  0.00    +0.000 N 
ATOM     13  C   UNL     1       0.846   9.442  20.137  0.00  0.00    +0.000 A 
ATOM     14  C   UNL     1       1.078   9.299  21.597  0.00  0.00    +0.000 C 
BRANCH  12  15
ATOM     15  C   UNL     1      -0.750  11.379  20.208  0.00  0.00    +0.000 C 
ATOM     16  C   UNL     1      -0.033  12.743  20.136  0.00  0.00    +0.000 C 
ATOM     17  O   UNL     1      -1.265  13.383  19.698  0.00  0.00    +0.000 OA
ATOM     18  C   UNL     1      -1.757  12.078  19.284  0.00  0.00    +0.000 C 
ENDBRANCH  12  15
ENDBRANCH   4   9
BRANCH   7  19
ATOM     19  C   UNL     1       2.334   2.631  20.905  0.00  0.00    +0.000 C 
ATOM     20  F   UNL     1       3.397   2.133  21.594  0.00  0.00    +0.000 F 
ATOM     21  F   UNL     1       1.267   2.477  21.743  0.00  0.00    +0.000 F 
ATOM     22  F   UNL     1       2.111   1.761  19.879  0.00  0.00    +0.000 F 
ENDBRANCH   7  19
BRANCH   1  24
ATOM     23  C   UNL     1       5.555   4.391  18.432  0.00  0.00    +0.000 C 
ATOM     24  N   UNL     1       4.534   3.737  19.236  0.00  0.00    +0.000 N 
ATOM     25  H   UNL     1       4.935   3.174  19.983  0.00  0.00    +0.000 HD
ENDBRANCH   1  24
TORSDOF 4
ENDMDL
MODEL 9
REMARK VINA RESULT:      -6.7      0.921      1.593
REMARK  Name = 
REMARK  6 active torsions:
REMARK  status: ('A' for Active; 'I' for Inactive)
REMARK    1  A    between atoms: C_1  and  N_2
REMARK    2  A    between atoms: N_2  and  C_3
REMARK    3  A    between atoms: N_6  and  C_7
REMARK    4  A    between atoms: N_10  and  C_11
REMARK    5  A    between atoms: C_15  and  C_16
REMARK    6  A    between atoms: C_19  and  C_20
REMARK                            x       y       z     vdW  Elec       q    Type
REMARK                         _______ _______ _______ _____ _____    ______ ____
ROOT
ATOM      1  C   UNL     1       4.844   4.371  18.757  0.00  0.00    +0.000 A 
ATOM      2  N   UNL     1       3.705   4.802  19.342  0.00  0.00    +0.000 NA
ATOM      3  C   UNL     1       3.298   6.060  19.128  0.00  0.00    +0.000 A 
ATOM      4  N   UNL     1       2.168   6.471  19.840  0.00  0.00    +0.000 N 
ATOM      5  N   UNL     1       3.961   6.915  18.343  0.00  0.00    +0.000 NA
ATOM      6  C   UNL     1       5.089   6.473  17.774  0.00  0.00    +0.000 A 
ATOM      7  C   UNL     1       5.587   5.202  17.945  0.00  0.00    +0.000 A 
ATOM      8  H   UNL     1       1.889   5.704  20.435  0.00  0.00    +0.000 HD
ENDROOT
BRANCH   4   9
ATOM      9  C   UNL     1       1.780   7.738  20.093  0.00  0.00    +0.000 A 
ATOM     10  C   UNL     1       1.535   8.357  21.332  0.00  0.00    +0.000 A 
ATOM     11  N   UNL     1       1.104   9.607  21.192  0.00  0.00    +0.000 NA
ATOM     12  N   UNL     1       0.997   9.770  19.859  0.00  0.00    +0.000 N 
ATOM     13  C   UNL     1       1.505   8.699  19.141  0.00  0.00    +0.000 A 
ATOM     14  C   UNL     1       1.656   8.637  17.665  0.00  0.00    +0.000 C 
BRANCH  12  15
ATOM     15  C   UNL     1       0.346  10.920  19.297  0.00  0.00    +0.000 C 
ATOM     16  C   UNL     1      -1.144  10.690  18.969  0.00  0.00    +0.000 C 
ATOM     17  O   UNL     1      -1.501  11.918  19.665  0.00  0.00    +0.000 OA
ATOM     18  C   UNL     1      -0.235  11.843  20.378  0.00  0.00    +0.000 C 
ENDBRANCH  12  15
ENDBRANCH   4   9
BRANCH   7  19
ATOM     19  C   UNL     1       6.855   4.853  17.257  0.00  0.00    +0.000 C 
ATOM     20  F   UNL     1       7.852   4.380  18.053  0.00  0.00    +0.000 F 
ATOM     21  F   UNL     1       6.662   3.880  16.318  0.00  0.00    +0.000 F 
ATOM     22  F   UNL     1       7.387   5.907  16.575  0.00  0.00    +0.000 F 
ENDBRANCH   7  19
BRANCH   1  24
ATOM     23  C   UNL     1       4.382   2.260  19.849  0.00  0.00    +0.000 C 
ATOM     24  N   UNL     1       5.291   3.080  19.063  0.00  0.00    +0.000 N 
ATOM     25  H   UNL     1       5.636   2.591  18.239  0.00  0.00    +0.000 HD
ENDBRANCH   1  24
TORSDOF 4
ENDMDL
