MODEL 1
REMARK VINA RESULT:      -6.7      0.000      0.000
REMARK  Name = 
REMARK  6 active torsions:
REMARK  status: ('A' for Active; 'I' for Inactive)
REMARK    1  A    between atoms: C_1  and  C_2
REMARK    2  A    between atoms: N_5  and  C_6
REMARK    3  A    between atoms: C_6  and  N_8
REMARK    4  A    between atoms: N_8  and  C_9
REMARK    5  A    between atoms: C_16  and  C_17
REMARK    6  A    between atoms: N_19  and  N_20
REMARK                            x       y       z     vdW  Elec       q    Type
REMARK                         _______ _______ _______ _____ _____    ______ ____
ROOT
ATOM      1  C   UNL     1       0.317   9.647  21.694  0.00  0.00    +0.000 C 
ATOM      2  C   UNL     1       1.057   9.014  20.568  0.00  0.00    +0.000 A 
ATOM      3  N   UNL     1       1.807   7.872  20.832  0.00  0.00    +0.000 NA
ATOM      4  C   UNL     1       2.267   7.368  19.713  0.00  0.00    +0.000 A 
ATOM      5  N   UNL     1       2.879   6.142  19.697  0.00  0.00    +0.000 N 
ATOM      6  S   UNL     1       2.036   8.323  18.341  0.00  0.00    +0.000 S 
ATOM      7  C   UNL     1       1.061   9.405  19.236  0.00  0.00    +0.000 A 
ATOM      8  H   UNL     1       3.041   5.807  20.636  0.00  0.00    +0.000 HD
ENDROOT
BRANCH   7   9
ATOM      9  C   UNL     1       0.354  10.491  18.580  0.00  0.00    +0.000 C 
ATOM     10  O   UNL     1       0.625  11.683  18.745  0.00  0.00    +0.000 OA
ATOM     11  N   UNL     1      -0.686  10.095  17.742  0.00  0.00    +0.000 N 
ATOM     12  H   UNL     1      -0.849   9.104  17.574  0.00  0.00    +0.000 HD
BRANCH  11  13
ATOM     13  N   UNL     1      -1.474  11.043  17.053  0.00  0.00    +0.000 NA
ATOM     14  H   UNL     1      -2.457  10.850  17.294  0.00  0.00    +0.000 HD
ATOM     15  H   UNL     1      -1.413  10.839  16.051  0.00  0.00    +0.000 HD
ENDBRANCH  11  13
ENDBRANCH   7   9
BRANCH   5  16
ATOM     16  C   UNL     1       3.207   5.274  18.663  0.00  0.00    +0.000 C 
ATOM     17  S   UNL     1       2.217   4.293  17.737  0.00  0.00    +0.000 S 
BRANCH  16  18
ATOM     18  N   UNL     1       4.588   5.316  18.484  0.00  0.00    +0.000 N 
ATOM     19  H   UNL     1       5.054   4.428  18.620  0.00  0.00    +0.000 HD
BRANCH  18  20
ATOM     20  C   UNL     1       5.375   6.337  17.774  0.00  0.00    +0.000 C 
ATOM     21  C   UNL     1       6.884   6.096  17.949  0.00  0.00    +0.000 C 
ATOM     22  C   UNL     1       7.293   4.741  17.374  0.00  0.00    +0.000 C 
ATOM     23  C   UNL     1       6.933   4.637  15.895  0.00  0.00    +0.000 C 
ATOM     24  C   UNL     1       5.475   4.995  15.610  0.00  0.00    +0.000 C 
ATOM     25  C   UNL     1       5.042   6.305  16.275  0.00  0.00    +0.000 C 
ENDBRANCH  18  20
ENDBRANCH  16  18
ENDBRANCH   5  16
TORSDOF 5
ENDMDL
MODEL 2
REMARK VINA RESULT:      -6.6      2.247      3.344
REMARK  Name = 
REMARK  6 active torsions:
REMARK  status: ('A' for Active; 'I' for Inactive)
REMARK    1  A    between atoms: C_1  and  C_2
REMARK    2  A    between atoms: N_5  and  C_6
REMARK    3  A    between atoms: C_6  and  N_8
REMARK    4  A    between atoms: N_8  and  C_9
REMARK    5  A    between atoms: C_16  and  C_17
REMARK    6  A    between atoms: N_19  and  N_20
REMARK                            x       y       z     vdW  Elec       q    Type
REMARK                         _______ _______ _______ _____ _____    ______ ____
ROOT
ATOM      1  C   UNL     1      -0.306   9.784  21.597  0.00  0.00    +0.000 C 
ATOM      2  C   UNL     1       0.574   9.348  20.478  0.00  0.00    +0.000 A 
ATOM      3  N   UNL     1       1.434   8.275  20.698  0.00  0.00    +0.000 NA
ATOM      4  C   UNL     1       2.020   7.934  19.576  0.00  0.00    +0.000 A 
ATOM      5  N   UNL     1       2.770   6.790  19.498  0.00  0.00    +0.000 N 
ATOM      6  S   UNL     1       1.767   8.984  18.279  0.00  0.00    +0.000 S 
ATOM      7  C   UNL     1       0.617   9.861  19.190  0.00  0.00    +0.000 A 
ATOM      8  H   UNL     1       2.910   6.387  20.414  0.00  0.00    +0.000 HD
ENDROOT
BRANCH   7   9
ATOM      9  C   UNL     1      -0.168  10.920  18.581  0.00  0.00    +0.000 C 
ATOM     10  O   UNL     1      -0.114  12.102  18.931  0.00  0.00    +0.000 OA
ATOM     11  N   UNL     1      -1.020  10.508  17.558  0.00  0.00    +0.000 N 
ATOM     12  H   UNL     1      -1.000   9.539  17.247  0.00  0.00    +0.000 HD
BRANCH  11  13
ATOM     13  N   UNL     1      -1.859  11.425  16.888  0.00  0.00    +0.000 NA
ATOM     14  H   UNL     1      -1.343  12.314  16.825  0.00  0.00    +0.000 HD
ATOM     15  H   UNL     1      -2.653  11.635  17.501  0.00  0.00    +0.000 HD
ENDBRANCH  11  13
ENDBRANCH   7   9
BRANCH   5  16
ATOM     16  C   UNL     1       3.263   6.066  18.420  0.00  0.00    +0.000 C 
ATOM     17  S   UNL     1       4.516   6.430  17.373  0.00  0.00    +0.000 S 
BRANCH  16  18
ATOM     18  N   UNL     1       2.509   4.901  18.299  0.00  0.00    +0.000 N 
ATOM     19  H   UNL     1       1.635   5.018  17.802  0.00  0.00    +0.000 HD
BRANCH  18  20
ATOM     20  C   UNL     1       2.969   3.510  18.443  0.00  0.00    +0.000 C 
ATOM     21  C   UNL     1       3.543   3.258  19.848  0.00  0.00    +0.000 C 
ATOM     22  C   UNL     1       2.484   3.490  20.924  0.00  0.00    +0.000 C 
ATOM     23  C   UNL     1       1.270   2.592  20.706  0.00  0.00    +0.000 C 
ATOM     24  C   UNL     1       0.712   2.678  19.286  0.00  0.00    +0.000 C 
ATOM     25  C   UNL     1       1.796   2.545  18.211  0.00  0.00    +0.000 C 
ENDBRANCH  18  20
ENDBRANCH  16  18
ENDBRANCH   5  16
TORSDOF 5
ENDMDL
MODEL 3
REMARK VINA RESULT:      -6.6      4.354      6.704
REMARK  Name = 
REMARK  6 active torsions:
REMARK  status: ('A' for Active; 'I' for Inactive)
REMARK    1  A    between atoms: C_1  and  C_2
REMARK    2  A    between atoms: N_5  and  C_6
REMARK    3  A    between atoms: C_6  and  N_8
REMARK    4  A    between atoms: N_8  and  C_9
REMARK    5  A    between atoms: C_16  and  C_17
REMARK    6  A    between atoms: N_19  and  N_20
REMARK                            x       y       z     vdW  Elec       q    Type
REMARK                         _______ _______ _______ _____ _____    ______ ____
ROOT
ATOM      1  C   UNL     1       7.800   6.875  17.938  0.00  0.00    +0.000 C 
ATOM      2  C   UNL     1       6.951   5.665  17.762  0.00  0.00    +0.000 A 
ATOM      3  N   UNL     1       6.550   4.971  18.900  0.00  0.00    +0.000 NA
ATOM      4  C   UNL     1       5.695   4.031  18.574  0.00  0.00    +0.000 A 
ATOM      5  N   UNL     1       5.019   3.335  19.541  0.00  0.00    +0.000 N 
ATOM      6  S   UNL     1       5.500   3.774  16.918  0.00  0.00    +0.000 S 
ATOM      7  C   UNL     1       6.455   5.149  16.573  0.00  0.00    +0.000 A 
ATOM      8  H   UNL     1       5.386   3.543  20.459  0.00  0.00    +0.000 HD
ENDROOT
BRANCH   7   9
ATOM      9  C   UNL     1       6.601   5.635  15.212  0.00  0.00    +0.000 C 
ATOM     10  O   UNL     1       5.730   6.270  14.613  0.00  0.00    +0.000 OA
ATOM     11  N   UNL     1       7.814   5.320  14.602  0.00  0.00    +0.000 N 
ATOM     12  H   UNL     1       8.540   4.850  15.138  0.00  0.00    +0.000 HD
BRANCH  11  13
ATOM     13  N   UNL     1       8.089   5.709  13.272  0.00  0.00    +0.000 NA
ATOM     14  H   UNL     1       7.237   5.526  12.722  0.00  0.00    +0.000 HD
ATOM     15  H   UNL     1       8.784   5.061  12.890  0.00  0.00    +0.000 HD
ENDBRANCH  11  13
ENDBRANCH   7   9
BRANCH   5  16
ATOM     16  C   UNL     1       3.904   2.509  19.491  0.00  0.00    +0.000 C 
ATOM     17  S   UNL     1       3.723   0.998  18.794  0.00  0.00    +0.000 S 
BRANCH  16  18
ATOM     18  N   UNL     1       2.855   3.156  20.140  0.00  0.00    +0.000 N 
ATOM     19  H   UNL     1       3.115   3.608  21.007  0.00  0.00    +0.000 HD
BRANCH  18  20
ATOM     20  C   UNL     1       1.568   3.586  19.568  0.00  0.00    +0.000 C 
ATOM     21  C   UNL     1       0.859   4.591  20.491  0.00  0.00    +0.000 C 
ATOM     22  C   UNL     1       1.702   5.851  20.683  0.00  0.00    +0.000 C 
ATOM     23  C   UNL     1       2.006   6.519  19.345  0.00  0.00    +0.000 C 
ATOM     24  C   UNL     1       2.593   5.555  18.316  0.00  0.00    +0.000 C 
ATOM     25  C   UNL     1       1.799   4.250  18.202  0.00  0.00    +0.000 C 
ENDBRANCH  18  20
ENDBRANCH  16  18
ENDBRANCH   5  16
TORSDOF 5
ENDMDL
MODEL 4
REMARK VINA RESULT:      -6.5      3.770      6.679
REMARK  Name = 
REMARK  6 active torsions:
REMARK  status: ('A' for Active; 'I' for Inactive)
REMARK    1  A    between atoms: C_1  and  C_2
REMARK    2  A    between atoms: N_5  and  C_6
REMARK    3  A    between atoms: C_6  and  N_8
REMARK    4  A    between atoms: N_8  and  C_9
REMARK    5  A    between atoms: C_16  and  C_17
REMARK    6  A    between atoms: N_19  and  N_20
REMARK                            x       y       z     vdW  Elec       q    Type
REMARK                         _______ _______ _______ _____ _____    ______ ____
ROOT
ATOM      1  C   UNL     1       8.190   5.470  18.652  0.00  0.00    +0.000 C 
ATOM      2  C   UNL     1       6.720   5.312  18.481  0.00  0.00    +0.000 A 
ATOM      3  N   UNL     1       5.906   5.477  19.598  0.00  0.00    +0.000 NA
ATOM      4  C   UNL     1       4.644   5.451  19.241  0.00  0.00    +0.000 A 
ATOM      5  N   UNL     1       3.658   5.775  20.135  0.00  0.00    +0.000 N 
ATOM      6  S   UNL     1       4.355   5.008  17.639  0.00  0.00    +0.000 S 
ATOM      7  C   UNL     1       6.031   5.056  17.304  0.00  0.00    +0.000 A 
ATOM      8  H   UNL     1       4.033   5.868  21.069  0.00  0.00    +0.000 HD
ENDROOT
BRANCH   7   9
ATOM      9  C   UNL     1       6.527   4.893  15.949  0.00  0.00    +0.000 C 
ATOM     10  O   UNL     1       7.364   5.637  15.431  0.00  0.00    +0.000 OA
ATOM     11  N   UNL     1       5.975   3.826  15.243  0.00  0.00    +0.000 N 
ATOM     12  H   UNL     1       5.333   3.190  15.713  0.00  0.00    +0.000 HD
BRANCH  11  13
ATOM     13  N   UNL     1       6.347   3.558  13.908  0.00  0.00    +0.000 NA
ATOM     14  H   UNL     1       5.604   2.973  13.500  0.00  0.00    +0.000 HD
ATOM     15  H   UNL     1       7.171   2.949  13.925  0.00  0.00    +0.000 HD
ENDBRANCH  11  13
ENDBRANCH   7   9
BRANCH   5  16
ATOM     16  C   UNL     1       2.314   6.083  19.973  0.00  0.00    +0.000 C 
ATOM     17  S   UNL     1       1.471   7.457  20.422  0.00  0.00    +0.000 S 
BRANCH  16  18
ATOM     18  N   UNL     1       1.694   5.006  19.343  0.00  0.00    +0.000 N 
ATOM     19  H   UNL     1       2.031   4.819  18.407  0.00  0.00    +0.000 HD
BRANCH  18  20
ATOM     20  C   UNL     1       0.933   3.912  19.968  0.00  0.00    +0.000 C 
ATOM     21  C   UNL     1       0.523   2.856  18.928  0.00  0.00    +0.000 C 
ATOM     22  C   UNL     1       1.751   2.224  18.273  0.00  0.00    +0.000 C 
ATOM     23  C   UNL     1       2.662   1.582  19.315  0.00  0.00    +0.000 C 
ATOM     24  C   UNL     1       3.012   2.525  20.465  0.00  0.00    +0.000 C 
ATOM     25  C   UNL     1       1.786   3.232  21.050  0.00  0.00    +0.000 C 
ENDBRANCH  18  20
ENDBRANCH  16  18
ENDBRANCH   5  16
TORSDOF 5
ENDMDL
MODEL 5
REMARK VINA RESULT:      -6.5      2.369      3.146
REMARK  Name = 
REMARK  6 active torsions:
REMARK  status: ('A' for Active; 'I' for Inactive)
REMARK    1  A    between atoms: C_1  and  C_2
REMARK    2  A    between atoms: N_5  and  C_6
REMARK    3  A    between atoms: C_6  and  N_8
REMARK    4  A    between atoms: N_8  and  C_9
REMARK    5  A    between atoms: C_16  and  C_17
REMARK    6  A    between atoms: N_19  and  N_20
REMARK                            x       y       z     vdW  Elec       q    Type
REMARK                         _______ _______ _______ _____ _____    ______ ____
ROOT
ATOM      1  C   UNL     1      -0.398  10.122  21.636  0.00  0.00    +0.000 C 
ATOM      2  C   UNL     1       0.467   9.607  20.539  0.00  0.00    +0.000 A 
ATOM      3  N   UNL     1       1.290   8.516  20.806  0.00  0.00    +0.000 NA
ATOM      4  C   UNL     1       1.864   8.106  19.701  0.00  0.00    +0.000 A 
ATOM      5  N   UNL     1       2.575   6.935  19.675  0.00  0.00    +0.000 N 
ATOM      6  S   UNL     1       1.649   9.107  18.360  0.00  0.00    +0.000 S 
ATOM      7  C   UNL     1       0.529  10.062  19.229  0.00  0.00    +0.000 A 
ATOM      8  H   UNL     1       2.701   6.568  20.607  0.00  0.00    +0.000 HD
ENDROOT
BRANCH   7   9
ATOM      9  C   UNL     1      -0.219  11.120  18.573  0.00  0.00    +0.000 C 
ATOM     10  O   UNL     1      -0.131  12.312  18.878  0.00  0.00    +0.000 OA
ATOM     11  N   UNL     1      -1.076  10.694  17.561  0.00  0.00    +0.000 N 
ATOM     12  H   UNL     1      -1.084   9.714  17.287  0.00  0.00    +0.000 HD
BRANCH  11  13
ATOM     13  N   UNL     1      -1.882  11.610  16.848  0.00  0.00    +0.000 NA
ATOM     14  H   UNL     1      -2.697  11.819  17.442  0.00  0.00    +0.000 HD
ATOM     15  H   UNL     1      -2.276  11.121  16.038  0.00  0.00    +0.000 HD
ENDBRANCH  11  13
ENDBRANCH   7   9
BRANCH   5  16
ATOM     16  C   UNL     1       3.043   6.149  18.630  0.00  0.00    +0.000 C 
ATOM     17  S   UNL     1       4.381   6.363  17.648  0.00  0.00    +0.000 S 
BRANCH  16  18
ATOM     18  N   UNL     1       2.176   5.069  18.478  0.00  0.00    +0.000 N 
ATOM     19  H   UNL     1       2.006   4.802  17.517  0.00  0.00    +0.000 HD
BRANCH  18  20
ATOM     20  C   UNL     1       1.802   4.064  19.486  0.00  0.00    +0.000 C 
ATOM     21  C   UNL     1       1.161   2.830  18.828  0.00  0.00    +0.000 C 
ATOM     22  C   UNL     1       2.135   2.152  17.865  0.00  0.00    +0.000 C 
ATOM     23  C   UNL     1       3.417   1.735  18.580  0.00  0.00    +0.000 C 
ATOM     24  C   UNL     1       4.053   2.874  19.376  0.00  0.00    +0.000 C 
ATOM     25  C   UNL     1       3.048   3.614  20.264  0.00  0.00    +0.000 C 
ENDBRANCH  18  20
ENDBRANCH  16  18
ENDBRANCH   5  16
TORSDOF 5
ENDMDL
MODEL 6
REMARK VINA RESULT:      -6.5      0.973      1.600
REMARK  Name = 
REMARK  6 active torsions:
REMARK  status: ('A' for Active; 'I' for Inactive)
REMARK    1  A    between atoms: C_1  and  C_2
REMARK    2  A    between atoms: N_5  and  C_6
REMARK    3  A    between atoms: C_6  and  N_8
REMARK    4  A    between atoms: N_8  and  C_9
REMARK    5  A    between atoms: C_16  and  C_17
REMARK    6  A    between atoms: N_19  and  N_20
REMARK                            x       y       z     vdW  Elec       q    Type
REMARK                         _______ _______ _______ _____ _____    ______ ____
ROOT
ATOM      1  C   UNL     1      -0.087  10.213  21.719  0.00  0.00    +0.000 C 
ATOM      2  C   UNL     1       0.694   9.586  20.618  0.00  0.00    +0.000 A 
ATOM      3  N   UNL     1       1.405   8.421  20.896  0.00  0.00    +0.000 NA
ATOM      4  C   UNL     1       1.908   7.929  19.790  0.00  0.00    +0.000 A 
ATOM      5  N   UNL     1       2.493   6.690  19.778  0.00  0.00    +0.000 N 
ATOM      6  S   UNL     1       1.768   8.917  18.429  0.00  0.00    +0.000 S 
ATOM      7  C   UNL     1       0.773  10.003  19.297  0.00  0.00    +0.000 A 
ATOM      8  H   UNL     1       2.600   6.333  20.717  0.00  0.00    +0.000 HD
ENDROOT
BRANCH   7   9
ATOM      9  C   UNL     1       0.125  11.118  18.630  0.00  0.00    +0.000 C 
ATOM     10  O   UNL     1       0.452  12.297  18.790  0.00  0.00    +0.000 OA
ATOM     11  N   UNL     1      -0.926  10.768  17.785  0.00  0.00    +0.000 N 
ATOM     12  H   UNL     1      -1.135   9.785  17.622  0.00  0.00    +0.000 HD
BRANCH  11  13
ATOM     13  N   UNL     1      -1.663  11.749  17.085  0.00  0.00    +0.000 NA
ATOM     14  H   UNL     1      -1.151  11.945  16.213  0.00  0.00    +0.000 HD
ATOM     15  H   UNL     1      -1.607  12.625  17.615  0.00  0.00    +0.000 HD
ENDBRANCH  11  13
ENDBRANCH   7   9
BRANCH   5  16
ATOM     16  C   UNL     1       2.853   5.836  18.744  0.00  0.00    +0.000 C 
ATOM     17  S   UNL     1       1.985   4.596  18.031  0.00  0.00    +0.000 S 
BRANCH  16  18
ATOM     18  N   UNL     1       4.148   6.160  18.345  0.00  0.00    +0.000 N 
ATOM     19  H   UNL     1       4.587   6.884  18.899  0.00  0.00    +0.000 HD
BRANCH  18  20
ATOM     20  C   UNL     1       5.064   5.358  17.518  0.00  0.00    +0.000 C 
ATOM     21  C   UNL     1       5.858   6.248  16.547  0.00  0.00    +0.000 C 
ATOM     22  C   UNL     1       6.716   7.260  17.307  0.00  0.00    +0.000 C 
ATOM     23  C   UNL     1       7.682   6.560  18.257  0.00  0.00    +0.000 C 
ATOM     24  C   UNL     1       6.993   5.550  19.172  0.00  0.00    +0.000 C 
ATOM     25  C   UNL     1       6.055   4.603  18.416  0.00  0.00    +0.000 C 
ENDBRANCH  18  20
ENDBRANCH  16  18
ENDBRANCH   5  16
TORSDOF 5
ENDMDL
MODEL 7
REMARK VINA RESULT:      -6.4      1.199      1.838
REMARK  Name = 
REMARK  6 active torsions:
REMARK  status: ('A' for Active; 'I' for Inactive)
REMARK    1  A    between atoms: C_1  and  C_2
REMARK    2  A    between atoms: N_5  and  C_6
REMARK    3  A    between atoms: C_6  and  N_8
REMARK    4  A    between atoms: N_8  and  C_9
REMARK    5  A    between atoms: C_16  and  C_17
REMARK    6  A    between atoms: N_19  and  N_20
REMARK                            x       y       z     vdW  Elec       q    Type
REMARK                         _______ _______ _______ _____ _____    ______ ____
ROOT
ATOM      1  C   UNL     1       0.107   9.477  21.637  0.00  0.00    +0.000 C 
ATOM      2  C   UNL     1       0.963   8.878  20.577  0.00  0.00    +0.000 A 
ATOM      3  N   UNL     1       1.709   7.746  20.894  0.00  0.00    +0.000 NA
ATOM      4  C   UNL     1       2.283   7.271  19.815  0.00  0.00    +0.000 A 
ATOM      5  N   UNL     1       2.920   6.057  19.839  0.00  0.00    +0.000 N 
ATOM      6  S   UNL     1       2.162   8.245  18.443  0.00  0.00    +0.000 S 
ATOM      7  C   UNL     1       1.084   9.291  19.257  0.00  0.00    +0.000 A 
ATOM      8  H   UNL     1       3.000   5.710  20.784  0.00  0.00    +0.000 HD
ENDROOT
BRANCH   7   9
ATOM      9  C   UNL     1       0.419  10.374  18.554  0.00  0.00    +0.000 C 
ATOM     10  O   UNL     1      -0.662  10.252  17.972  0.00  0.00    +0.000 OA
ATOM     11  N   UNL     1       1.101  11.589  18.565  0.00  0.00    +0.000 N 
ATOM     12  H   UNL     1       1.960  11.680  19.104  0.00  0.00    +0.000 HD
BRANCH  11  13
ATOM     13  N   UNL     1       0.585  12.726  17.905  0.00  0.00    +0.000 NA
ATOM     14  H   UNL     1       0.024  12.384  17.111  0.00  0.00    +0.000 HD
ATOM     15  H   UNL     1       1.368  13.222  17.468  0.00  0.00    +0.000 HD
ENDBRANCH  11  13
ENDBRANCH   7   9
BRANCH   5  16
ATOM     16  C   UNL     1       3.362   5.215  18.828  0.00  0.00    +0.000 C 
ATOM     17  S   UNL     1       2.491   4.185  17.838  0.00  0.00    +0.000 S 
BRANCH  16  18
ATOM     18  N   UNL     1       4.747   5.333  18.740  0.00  0.00    +0.000 N 
ATOM     19  H   UNL     1       5.217   5.429  19.631  0.00  0.00    +0.000 HD
BRANCH  18  20
ATOM     20  C   UNL     1       5.614   4.962  17.609  0.00  0.00    +0.000 C 
ATOM     21  C   UNL     1       5.633   6.066  16.539  0.00  0.00    +0.000 C 
ATOM     22  C   UNL     1       6.181   7.374  17.108  0.00  0.00    +0.000 C 
ATOM     23  C   UNL     1       7.589   7.186  17.666  0.00  0.00    +0.000 C 
ATOM     24  C   UNL     1       7.692   6.016  18.642  0.00  0.00    +0.000 C 
ATOM     25  C   UNL     1       7.050   4.733  18.105  0.00  0.00    +0.000 C 
ENDBRANCH  18  20
ENDBRANCH  16  18
ENDBRANCH   5  16
TORSDOF 5
ENDMDL
MODEL 8
REMARK VINA RESULT:      -6.4      4.898      7.891
REMARK  Name = 
REMARK  6 active torsions:
REMARK  status: ('A' for Active; 'I' for Inactive)
REMARK    1  A    between atoms: C_1  and  C_2
REMARK    2  A    between atoms: N_5  and  C_6
REMARK    3  A    between atoms: C_6  and  N_8
REMARK    4  A    between atoms: N_8  and  C_9
REMARK    5  A    between atoms: C_16  and  C_17
REMARK    6  A    between atoms: N_19  and  N_20
REMARK                            x       y       z     vdW  Elec       q    Type
REMARK                         _______ _______ _______ _____ _____    ______ ____
ROOT
ATOM      1  C   UNL     1       8.205   5.309  12.974  0.00  0.00    +0.000 C 
ATOM      2  C   UNL     1       7.138   4.913  13.933  0.00  0.00    +0.000 A 
ATOM      3  N   UNL     1       7.133   5.505  15.193  0.00  0.00    +0.000 NA
ATOM      4  C   UNL     1       6.052   5.157  15.848  0.00  0.00    +0.000 A 
ATOM      5  N   UNL     1       5.732   5.757  17.038  0.00  0.00    +0.000 N 
ATOM      6  S   UNL     1       5.118   3.957  15.116  0.00  0.00    +0.000 S 
ATOM      7  C   UNL     1       6.087   4.034  13.711  0.00  0.00    +0.000 A 
ATOM      8  H   UNL     1       6.490   6.338  17.365  0.00  0.00    +0.000 HD
ENDROOT
BRANCH   7   9
ATOM      9  C   UNL     1       5.731   3.291  12.515  0.00  0.00    +0.000 C 
ATOM     10  O   UNL     1       4.744   3.545  11.819  0.00  0.00    +0.000 OA
ATOM     11  N   UNL     1       6.584   2.235  12.201  0.00  0.00    +0.000 N 
ATOM     12  H   UNL     1       7.425   2.086  12.756  0.00  0.00    +0.000 HD
BRANCH  11  13
ATOM     13  N   UNL     1       6.351   1.412  11.078  0.00  0.00    +0.000 NA
ATOM     14  H   UNL     1       6.699   0.472  11.316  0.00  0.00    +0.000 HD
ATOM     15  H   UNL     1       6.965   1.727  10.321  0.00  0.00    +0.000 HD
ENDBRANCH  11  13
ENDBRANCH   7   9
BRANCH   5  16
ATOM     16  C   UNL     1       4.562   5.784  17.786  0.00  0.00    +0.000 C 
ATOM     17  S   UNL     1       3.342   6.928  17.820  0.00  0.00    +0.000 S 
BRANCH  16  18
ATOM     18  N   UNL     1       4.532   4.643  18.586  0.00  0.00    +0.000 N 
ATOM     19  H   UNL     1       4.614   4.826  19.578  0.00  0.00    +0.000 HD
BRANCH  18  20
ATOM     20  C   UNL     1       4.029   3.306  18.232  0.00  0.00    +0.000 C 
ATOM     21  C   UNL     1       4.080   2.356  19.441  0.00  0.00    +0.000 C 
ATOM     22  C   UNL     1       3.206   2.872  20.582  0.00  0.00    +0.000 C 
ATOM     23  C   UNL     1       1.758   3.042  20.134  0.00  0.00    +0.000 C 
ATOM     24  C   UNL     1       1.622   3.866  18.854  0.00  0.00    +0.000 C 
ATOM     25  C   UNL     1       2.575   3.406  17.747  0.00  0.00    +0.000 C 
ENDBRANCH  18  20
ENDBRANCH  16  18
ENDBRANCH   5  16
TORSDOF 5
ENDMDL
MODEL 9
REMARK VINA RESULT:      -6.3      4.780      7.983
REMARK  Name = 
REMARK  6 active torsions:
REMARK  status: ('A' for Active; 'I' for Inactive)
REMARK    1  A    between atoms: C_1  and  C_2
REMARK    2  A    between atoms: N_5  and  C_6
REMARK    3  A    between atoms: C_6  and  N_8
REMARK    4  A    between atoms: N_8  and  C_9
REMARK    5  A    between atoms: C_16  and  C_17
REMARK    6  A    between atoms: N_19  and  N_20
REMARK                            x       y       z     vdW  Elec       q    Type
REMARK                         _______ _______ _______ _____ _____    ______ ____
ROOT
ATOM      1  C   UNL     1       8.254   5.379  12.851  0.00  0.00    +0.000 C 
ATOM      2  C   UNL     1       7.168   4.998  13.795  0.00  0.00    +0.000 A 
ATOM      3  N   UNL     1       7.110   5.642  15.028  0.00  0.00    +0.000 NA
ATOM      4  C   UNL     1       6.018   5.294  15.665  0.00  0.00    +0.000 A 
ATOM      5  N   UNL     1       5.647   5.935  16.818  0.00  0.00    +0.000 N 
ATOM      6  S   UNL     1       5.136   4.041  14.958  0.00  0.00    +0.000 S 
ATOM      7  C   UNL     1       6.146   4.083  13.579  0.00  0.00    +0.000 A 
ATOM      8  H   UNL     1       6.381   6.550  17.142  0.00  0.00    +0.000 HD
ENDROOT
BRANCH   7   9
ATOM      9  C   UNL     1       5.844   3.281  12.407  0.00  0.00    +0.000 C 
ATOM     10  O   UNL     1       4.821   3.413  11.731  0.00  0.00    +0.000 OA
ATOM     11  N   UNL     1       6.799   2.317  12.092  0.00  0.00    +0.000 N 
ATOM     12  H   UNL     1       7.663   2.270  12.628  0.00  0.00    +0.000 HD
BRANCH  11  13
ATOM     13  N   UNL     1       6.630   1.450  10.990  0.00  0.00    +0.000 NA
ATOM     14  H   UNL     1       5.956   0.726  11.277  0.00  0.00    +0.000 HD
ATOM     15  H   UNL     1       7.508   0.939  10.851  0.00  0.00    +0.000 HD
ENDBRANCH  11  13
ENDBRANCH   7   9
BRANCH   5  16
ATOM     16  C   UNL     1       4.455   5.964  17.529  0.00  0.00    +0.000 C 
ATOM     17  S   UNL     1       3.436   7.250  17.857  0.00  0.00    +0.000 S 
BRANCH  16  18
ATOM     18  N   UNL     1       4.193   4.675  17.988  0.00  0.00    +0.000 N 
ATOM     19  H   UNL     1       4.509   3.938  17.370  0.00  0.00    +0.000 HD
BRANCH  18  20
ATOM     20  C   UNL     1       3.886   4.252  19.364  0.00  0.00    +0.000 C 
ATOM     21  C   UNL     1       2.395   4.449  19.686  0.00  0.00    +0.000 C 
ATOM     22  C   UNL     1       1.518   3.610  18.758  0.00  0.00    +0.000 C 
ATOM     23  C   UNL     1       1.866   2.128  18.860  0.00  0.00    +0.000 C 
ATOM     24  C   UNL     1       3.359   1.853  18.687  0.00  0.00    +0.000 C 
ATOM     25  C   UNL     1       4.237   2.768  19.546  0.00  0.00    +0.000 C 
ENDBRANCH  18  20
ENDBRANCH  16  18
ENDBRANCH   5  16
TORSDOF 5
ENDMDL
