MODEL 1
REMARK VINA RESULT:      -7.2      0.000      0.000
REMARK  Name = 
REMARK  10 active torsions:
REMARK  status: ('A' for Active; 'I' for Inactive)
REMARK    1  A    between atoms: C_1  and  C_2
REMARK    2  A    between atoms: C_6  and  O_7
REMARK    3  A    between atoms: O_7  and  C_8
REMARK    4  A    between atoms: C_8  and  C_9
REMARK    5  A    between atoms: C_9  and  C_11
REMARK    6  A    between atoms: C_11  and  O_12
REMARK    7  A    between atoms: O_12  and  C_13
REMARK    8  A    between atoms: C_15  and  C_16
REMARK    9  A    between atoms: C_17  and  C_18
REMARK   10  A    between atoms: C_23  and  C_24
REMARK                            x       y       z     vdW  Elec       q    Type
REMARK                         _______ _______ _______ _____ _____    ______ ____
ROOT
ATOM      1  C   UNL     1       2.544   3.929  18.167  0.00  0.00    +0.000 C 
ATOM      2  O   UNL     1       1.623   4.168  17.382  0.00  0.00    +0.000 OA
ENDROOT
BRANCH   1   3
ATOM      3  C   UNL     1       3.687   3.006  17.797  0.00  0.00    +0.000 C 
BRANCH   3   4
ATOM      4  O   UNL     1       4.900   3.739  17.917  0.00  0.00    +0.000 OA
BRANCH   4  10
ATOM      5  C   UNL     1       7.861   5.355  13.318  0.00  0.00    +0.000 C 
ATOM      6  C   UNL     1       7.034   4.924  14.499  0.00  0.00    +0.000 A 
ATOM      7  C   UNL     1       7.398   5.348  15.784  0.00  0.00    +0.000 A 
ATOM      8  C   UNL     1       6.668   4.939  16.904  0.00  0.00    +0.000 A 
ATOM      9 CL   UNL     1       7.190   5.491  18.460  0.00  0.00    +0.000 Cl
ATOM     10  C   UNL     1       5.552   4.097  16.766  0.00  0.00    +0.000 A 
ATOM     11  C   UNL     1       5.180   3.691  15.484  0.00  0.00    +0.000 A 
ATOM     12  C   UNL     1       5.912   4.086  14.346  0.00  0.00    +0.000 A 
ATOM     13  C   UNL     1       5.493   3.583  12.991  0.00  0.00    +0.000 C 
ENDBRANCH   4  10
ENDBRANCH   3   4
ENDBRANCH   1   3
BRANCH   1  14
ATOM     14  C   UNL     1       2.614   4.580  19.535  0.00  0.00    +0.000 C 
BRANCH  14  15
ATOM     15  O   UNL     1       3.386   5.774  19.476  0.00  0.00    +0.000 OA
BRANCH  15  16
ATOM     16  C   UNL     1       2.681   6.947  19.340  0.00  0.00    +0.000 A 
ATOM     17  C   UNL     1       1.833   7.461  20.327  0.00  0.00    +0.000 A 
ATOM     18  C   UNL     1       1.134   8.668  20.151  0.00  0.00    +0.000 A 
ATOM     19  C   UNL     1       0.235   9.139  21.264  0.00  0.00    +0.000 C 
ATOM     20  C   UNL     1       1.280   9.378  18.950  0.00  0.00    +0.000 A 
ATOM     21  C   UNL     1       0.562  10.672  18.672  0.00  0.00    +0.000 C 
ATOM     22  C   UNL     1       2.135   8.870  17.959  0.00  0.00    +0.000 A 
ATOM     23  C   UNL     1       2.820   7.665  18.148  0.00  0.00    +0.000 A 
ATOM     24 CL   UNL     1       3.842   7.099  16.871  0.00  0.00    +0.000 Cl
ENDBRANCH  15  16
ENDBRANCH  14  15
ENDBRANCH   1  14
TORSDOF 6
ENDMDL
MODEL 2
REMARK VINA RESULT:      -7.2      1.976      2.967
REMARK  Name = 
REMARK  10 active torsions:
REMARK  status: ('A' for Active; 'I' for Inactive)
REMARK    1  A    between atoms: C_1  and  C_2
REMARK    2  A    between atoms: C_6  and  O_7
REMARK    3  A    between atoms: O_7  and  C_8
REMARK    4  A    between atoms: C_8  and  C_9
REMARK    5  A    between atoms: C_9  and  C_11
REMARK    6  A    between atoms: C_11  and  O_12
REMARK    7  A    between atoms: O_12  and  C_13
REMARK    8  A    between atoms: C_15  and  C_16
REMARK    9  A    between atoms: C_17  and  C_18
REMARK   10  A    between atoms: C_23  and  C_24
REMARK                            x       y       z     vdW  Elec       q    Type
REMARK                         _______ _______ _______ _____ _____    ______ ____
ROOT
ATOM      1  C   UNL     1       2.139   3.654  21.085  0.00  0.00    +0.000 C 
ATOM      2  O   UNL     1       2.283   3.576  22.308  0.00  0.00    +0.000 OA
ENDROOT
BRANCH   1   3
ATOM      3  C   UNL     1       2.584   2.543  20.157  0.00  0.00    +0.000 C 
BRANCH   3   4
ATOM      4  O   UNL     1       3.992   2.654  19.980  0.00  0.00    +0.000 OA
BRANCH   4  10
ATOM      5  C   UNL     1       5.646   5.733  15.473  0.00  0.00    +0.000 C 
ATOM      6  C   UNL     1       5.261   4.927  16.685  0.00  0.00    +0.000 A 
ATOM      7  C   UNL     1       4.261   3.952  16.572  0.00  0.00    +0.000 A 
ATOM      8  C   UNL     1       3.860   3.209  17.686  0.00  0.00    +0.000 A 
ATOM      9 CL   UNL     1       2.606   2.035  17.470  0.00  0.00    +0.000 Cl
ATOM     10  C   UNL     1       4.451   3.421  18.942  0.00  0.00    +0.000 A 
ATOM     11  C   UNL     1       5.460   4.380  19.049  0.00  0.00    +0.000 A 
ATOM     12  C   UNL     1       5.868   5.144  17.937  0.00  0.00    +0.000 A 
ATOM     13  C   UNL     1       6.930   6.195  18.117  0.00  0.00    +0.000 C 
ENDBRANCH   4  10
ENDBRANCH   3   4
ENDBRANCH   1   3
BRANCH   1  14
ATOM     14  C   UNL     1       1.463   4.847  20.437  0.00  0.00    +0.000 C 
BRANCH  14  15
ATOM     15  O   UNL     1       2.371   5.937  20.336  0.00  0.00    +0.000 OA
BRANCH  15  16
ATOM     16  C   UNL     1       1.811   7.193  20.291  0.00  0.00    +0.000 A 
ATOM     17  C   UNL     1       1.051   7.741  21.330  0.00  0.00    +0.000 A 
ATOM     18  C   UNL     1       0.500   9.031  21.247  0.00  0.00    +0.000 A 
ATOM     19  C   UNL     1      -0.313   9.536  22.410  0.00  0.00    +0.000 C 
ATOM     20  C   UNL     1       0.708   9.794  20.088  0.00  0.00    +0.000 A 
ATOM     21  C   UNL     1       0.148  11.180  19.909  0.00  0.00    +0.000 C 
ATOM     22  C   UNL     1       1.477   9.251  19.045  0.00  0.00    +0.000 A 
ATOM     23  C   UNL     1       2.014   7.963  19.142  0.00  0.00    +0.000 A 
ATOM     24 CL   UNL     1       2.935   7.361  17.806  0.00  0.00    +0.000 Cl
ENDBRANCH  15  16
ENDBRANCH  14  15
ENDBRANCH   1  14
TORSDOF 6
ENDMDL
MODEL 3
REMARK VINA RESULT:      -7.2      3.607      8.490
REMARK  Name = 
REMARK  10 active torsions:
REMARK  status: ('A' for Active; 'I' for Inactive)
REMARK    1  A    between atoms: C_1  and  C_2
REMARK    2  A    between atoms: C_6  and  O_7
REMARK    3  A    between atoms: O_7  and  C_8
REMARK    4  A    between atoms: C_8  and  C_9
REMARK    5  A    between atoms: C_9  and  C_11
REMARK    6  A    between atoms: C_11  and  O_12
REMARK    7  A    between atoms: O_12  and  C_13
REMARK    8  A    between atoms: C_15  and  C_16
REMARK    9  A    between atoms: C_17  and  C_18
REMARK   10  A    between atoms: C_23  and  C_24
REMARK                            x       y       z     vdW  Elec       q    Type
REMARK                         _______ _______ _______ _____ _____    ______ ____
ROOT
ATOM      1  C   UNL     1       0.518   9.363  21.154  0.00  0.00    +0.000 C 
ATOM      2  O   UNL     1      -0.127   9.919  22.048  0.00  0.00    +0.000 OA
ENDROOT
BRANCH   1   3
ATOM      3  C   UNL     1       0.746  10.022  19.810  0.00  0.00    +0.000 C 
BRANCH   3   4
ATOM      4  O   UNL     1      -0.015  11.224  19.774  0.00  0.00    +0.000 OA
BRANCH   4  10
ATOM      5  C   UNL     1      -5.007  11.464  17.025  0.00  0.00    +0.000 C 
ATOM      6  C   UNL     1      -3.681  11.349  17.729  0.00  0.00    +0.000 A 
ATOM      7  C   UNL     1      -3.478  12.041  18.930  0.00  0.00    +0.000 A 
ATOM      8  C   UNL     1      -2.247  11.980  19.589  0.00  0.00    +0.000 A 
ATOM      9 CL   UNL     1      -2.068  12.878  21.060  0.00  0.00    +0.000 Cl
ATOM     10  C   UNL     1      -1.188  11.221  19.066  0.00  0.00    +0.000 A 
ATOM     11  C   UNL     1      -1.398  10.517  17.879  0.00  0.00    +0.000 A 
ATOM     12  C   UNL     1      -2.630  10.578  17.197  0.00  0.00    +0.000 A 
ATOM     13  C   UNL     1      -2.788   9.834  15.898  0.00  0.00    +0.000 C 
ENDBRANCH   4  10
ENDBRANCH   3   4
ENDBRANCH   1   3
BRANCH   1  14
ATOM     14  C   UNL     1       1.164   8.007  21.363  0.00  0.00    +0.000 C 
BRANCH  14  15
ATOM     15  O   UNL     1       2.120   7.751  20.341  0.00  0.00    +0.000 OA
BRANCH  15  16
ATOM     16  C   UNL     1       2.120   6.481  19.813  0.00  0.00    +0.000 A 
ATOM     17  C   UNL     1       1.692   5.349  20.515  0.00  0.00    +0.000 A 
ATOM     18  C   UNL     1       1.702   4.068  19.936  0.00  0.00    +0.000 A 
ATOM     19  C   UNL     1       1.233   2.906  20.770  0.00  0.00    +0.000 C 
ATOM     20  C   UNL     1       2.161   3.913  18.620  0.00  0.00    +0.000 A 
ATOM     21  C   UNL     1       2.216   2.578  17.925  0.00  0.00    +0.000 C 
ATOM     22  C   UNL     1       2.585   5.047  17.908  0.00  0.00    +0.000 A 
ATOM     23  C   UNL     1       2.573   6.314  18.500  0.00  0.00    +0.000 A 
ATOM     24 CL   UNL     1       3.128   7.658  17.562  0.00  0.00    +0.000 Cl
ENDBRANCH  15  16
ENDBRANCH  14  15
ENDBRANCH   1  14
TORSDOF 6
ENDMDL
MODEL 4
REMARK VINA RESULT:      -7.1      1.988      7.316
REMARK  Name = 
REMARK  10 active torsions:
REMARK  status: ('A' for Active; 'I' for Inactive)
REMARK    1  A    between atoms: C_1  and  C_2
REMARK    2  A    between atoms: C_6  and  O_7
REMARK    3  A    between atoms: O_7  and  C_8
REMARK    4  A    between atoms: C_8  and  C_9
REMARK    5  A    between atoms: C_9  and  C_11
REMARK    6  A    between atoms: C_11  and  O_12
REMARK    7  A    between atoms: O_12  and  C_13
REMARK    8  A    between atoms: C_15  and  C_16
REMARK    9  A    between atoms: C_17  and  C_18
REMARK   10  A    between atoms: C_23  and  C_24
REMARK                            x       y       z     vdW  Elec       q    Type
REMARK                         _______ _______ _______ _____ _____    ______ ____
ROOT
ATOM      1  C   UNL     1       1.756   4.796  20.108  0.00  0.00    +0.000 C 
ATOM      2  O   UNL     1       0.667   4.289  20.388  0.00  0.00    +0.000 OA
ENDROOT
BRANCH   1   3
ATOM      3  C   UNL     1       1.871   5.945  19.128  0.00  0.00    +0.000 C 
BRANCH   3   4
ATOM      4  O   UNL     1       2.486   7.038  19.801  0.00  0.00    +0.000 OA
BRANCH   4  10
ATOM      5  C   UNL     1      -0.823  11.524  21.007  0.00  0.00    +0.000 C 
ATOM      6  C   UNL     1       0.065  10.338  20.744  0.00  0.00    +0.000 A 
ATOM      7  C   UNL     1       0.634  10.174  19.474  0.00  0.00    +0.000 A 
ATOM      8  C   UNL     1       1.437   9.067  19.189  0.00  0.00    +0.000 A 
ATOM      9 CL   UNL     1       2.091   8.926  17.591  0.00  0.00    +0.000 Cl
ATOM     10  C   UNL     1       1.694   8.094  20.169  0.00  0.00    +0.000 A 
ATOM     11  C   UNL     1       1.142   8.268  21.439  0.00  0.00    +0.000 A 
ATOM     12  C   UNL     1       0.321   9.374  21.738  0.00  0.00    +0.000 A 
ATOM     13  C   UNL     1      -0.285   9.490  23.111  0.00  0.00    +0.000 C 
ENDBRANCH   4  10
ENDBRANCH   3   4
ENDBRANCH   1   3
BRANCH   1  14
ATOM     14  C   UNL     1       3.043   4.332  20.763  0.00  0.00    +0.000 C 
BRANCH  14  15
ATOM     15  O   UNL     1       3.663   3.322  19.977  0.00  0.00    +0.000 OA
BRANCH  15  16
ATOM     16  C   UNL     1       4.462   3.759  18.945  0.00  0.00    +0.000 A 
ATOM     17  C   UNL     1       5.600   4.552  19.128  0.00  0.00    +0.000 A 
ATOM     18  C   UNL     1       6.393   4.973  18.047  0.00  0.00    +0.000 A 
ATOM     19  C   UNL     1       7.595   5.833  18.337  0.00  0.00    +0.000 C 
ATOM     20  C   UNL     1       6.034   4.598  16.743  0.00  0.00    +0.000 A 
ATOM     21  C   UNL     1       6.819   5.012  15.527  0.00  0.00    +0.000 C 
ATOM     22  C   UNL     1       4.896   3.796  16.556  0.00  0.00    +0.000 A 
ATOM     23  C   UNL     1       4.115   3.390  17.642  0.00  0.00    +0.000 A 
ATOM     24 CL   UNL     1       2.719   2.417  17.323  0.00  0.00    +0.000 Cl
ENDBRANCH  15  16
ENDBRANCH  14  15
ENDBRANCH   1  14
TORSDOF 6
ENDMDL
MODEL 5
REMARK VINA RESULT:      -7.1      1.876      6.790
REMARK  Name = 
REMARK  10 active torsions:
REMARK  status: ('A' for Active; 'I' for Inactive)
REMARK    1  A    between atoms: C_1  and  C_2
REMARK    2  A    between atoms: C_6  and  O_7
REMARK    3  A    between atoms: O_7  and  C_8
REMARK    4  A    between atoms: C_8  and  C_9
REMARK    5  A    between atoms: C_9  and  C_11
REMARK    6  A    between atoms: C_11  and  O_12
REMARK    7  A    between atoms: O_12  and  C_13
REMARK    8  A    between atoms: C_15  and  C_16
REMARK    9  A    between atoms: C_17  and  C_18
REMARK   10  A    between atoms: C_23  and  C_24
REMARK                            x       y       z     vdW  Elec       q    Type
REMARK                         _______ _______ _______ _____ _____    ______ ____
ROOT
ATOM      1  C   UNL     1       2.100   3.505  21.305  0.00  0.00    +0.000 C 
ATOM      2  O   UNL     1       1.518   2.811  22.144  0.00  0.00    +0.000 OA
ENDROOT
BRANCH   1   3
ATOM      3  C   UNL     1       1.399   4.638  20.586  0.00  0.00    +0.000 C 
BRANCH   3   4
ATOM      4  O   UNL     1       2.339   5.691  20.402  0.00  0.00    +0.000 OA
BRANCH   4  10
ATOM      5  C   UNL     1       0.437  11.001  19.559  0.00  0.00    +0.000 C 
ATOM      6  C   UNL     1       0.938   9.610  19.838  0.00  0.00    +0.000 A 
ATOM      7  C   UNL     1       1.724   8.958  18.878  0.00  0.00    +0.000 A 
ATOM      8  C   UNL     1       2.178   7.653  19.094  0.00  0.00    +0.000 A 
ATOM      9 CL   UNL     1       3.130   6.909  17.853  0.00  0.00    +0.000 Cl
ATOM     10  C   UNL     1       1.859   6.968  20.277  0.00  0.00    +0.000 A 
ATOM     11  C   UNL     1       1.092   7.626  21.241  0.00  0.00    +0.000 A 
ATOM     12  C   UNL     1       0.618   8.936  21.032  0.00  0.00    +0.000 A 
ATOM     13  C   UNL     1      -0.243   9.583  22.085  0.00  0.00    +0.000 C 
ENDBRANCH   4  10
ENDBRANCH   3   4
ENDBRANCH   1   3
BRANCH   1  14
ATOM     14  C   UNL     1       3.566   3.297  20.977  0.00  0.00    +0.000 C 
BRANCH  14  15
ATOM     15  O   UNL     1       3.704   2.643  19.721  0.00  0.00    +0.000 OA
BRANCH  15  16
ATOM     16  C   UNL     1       4.390   3.333  18.749  0.00  0.00    +0.000 A 
ATOM     17  C   UNL     1       5.547   4.080  18.998  0.00  0.00    +0.000 A 
ATOM     18  C   UNL     1       6.222   4.768  17.975  0.00  0.00    +0.000 A 
ATOM     19  C   UNL     1       7.453   5.555  18.337  0.00  0.00    +0.000 C 
ATOM     20  C   UNL     1       5.722   4.713  16.665  0.00  0.00    +0.000 A 
ATOM     21  C   UNL     1       6.375   5.426  15.510  0.00  0.00    +0.000 C 
ATOM     22  C   UNL     1       4.566   3.959  16.408  0.00  0.00    +0.000 A 
ATOM     23  C   UNL     1       3.903   3.285  17.439  0.00  0.00    +0.000 A 
ATOM     24 CL   UNL     1       2.475   2.391  17.043  0.00  0.00    +0.000 Cl
ENDBRANCH  15  16
ENDBRANCH  14  15
ENDBRANCH   1  14
TORSDOF 6
ENDMDL
MODEL 6
REMARK VINA RESULT:      -7.1      3.403      5.889
REMARK  Name = 
REMARK  10 active torsions:
REMARK  status: ('A' for Active; 'I' for Inactive)
REMARK    1  A    between atoms: C_1  and  C_2
REMARK    2  A    between atoms: C_6  and  O_7
REMARK    3  A    between atoms: O_7  and  C_8
REMARK    4  A    between atoms: C_8  and  C_9
REMARK    5  A    between atoms: C_9  and  C_11
REMARK    6  A    between atoms: C_11  and  O_12
REMARK    7  A    between atoms: O_12  and  C_13
REMARK    8  A    between atoms: C_15  and  C_16
REMARK    9  A    between atoms: C_17  and  C_18
REMARK   10  A    between atoms: C_23  and  C_24
REMARK                            x       y       z     vdW  Elec       q    Type
REMARK                         _______ _______ _______ _____ _____    ______ ____
ROOT
ATOM      1  C   UNL     1       1.710   9.275  18.388  0.00  0.00    +0.000 C 
ATOM      2  O   UNL     1       2.157   9.081  17.255  0.00  0.00    +0.000 OA
ENDROOT
BRANCH   1   3
ATOM      3  C   UNL     1       1.789   8.216  19.468  0.00  0.00    +0.000 C 
BRANCH   3   4
ATOM      4  O   UNL     1       2.956   7.436  19.235  0.00  0.00    +0.000 OA
BRANCH   4  10
ATOM      5  C   UNL     1       2.541   1.922  17.838  0.00  0.00    +0.000 C 
ATOM      6  C   UNL     1       2.598   3.375  18.229  0.00  0.00    +0.000 A 
ATOM      7  C   UNL     1       3.400   4.254  17.489  0.00  0.00    +0.000 A 
ATOM      8  C   UNL     1       3.499   5.602  17.846  0.00  0.00    +0.000 A 
ATOM      9 CL   UNL     1       4.523   6.622  16.893  0.00  0.00    +0.000 Cl
ATOM     10  C   UNL     1       2.795   6.106  18.953  0.00  0.00    +0.000 A 
ATOM     11  C   UNL     1       1.982   5.232  19.678  0.00  0.00    +0.000 A 
ATOM     12  C   UNL     1       1.882   3.869  19.336  0.00  0.00    +0.000 A 
ATOM     13  C   UNL     1       1.025   2.961  20.178  0.00  0.00    +0.000 C 
ENDBRANCH   4  10
ENDBRANCH   3   4
ENDBRANCH   1   3
BRANCH   1  14
ATOM     14  C   UNL     1       1.096  10.604  18.786  0.00  0.00    +0.000 C 
BRANCH  14  15
ATOM     15  O   UNL     1      -0.122  10.396  19.490  0.00  0.00    +0.000 OA
BRANCH  15  16
ATOM     16  C   UNL     1      -1.278  10.691  18.805  0.00  0.00    +0.000 A 
ATOM     17  C   UNL     1      -1.600  10.148  17.556  0.00  0.00    +0.000 A 
ATOM     18  C   UNL     1      -2.795  10.472  16.892  0.00  0.00    +0.000 A 
ATOM     19  C   UNL     1      -3.053   9.847  15.546  0.00  0.00    +0.000 C 
ATOM     20  C   UNL     1      -3.692  11.370  17.489  0.00  0.00    +0.000 A 
ATOM     21  C   UNL     1      -4.990  11.780  16.844  0.00  0.00    +0.000 C 
ATOM     22  C   UNL     1      -3.377  11.912  18.746  0.00  0.00    +0.000 A 
ATOM     23  C   UNL     1      -2.181  11.583  19.392  0.00  0.00    +0.000 A 
ATOM     24 CL   UNL     1      -1.860  12.307  20.930  0.00  0.00    +0.000 Cl
ENDBRANCH  15  16
ENDBRANCH  14  15
ENDBRANCH   1  14
TORSDOF 6
ENDMDL
MODEL 7
REMARK VINA RESULT:      -7.0      3.758      6.542
REMARK  Name = 
REMARK  10 active torsions:
REMARK  status: ('A' for Active; 'I' for Inactive)
REMARK    1  A    between atoms: C_1  and  C_2
REMARK    2  A    between atoms: C_6  and  O_7
REMARK    3  A    between atoms: O_7  and  C_8
REMARK    4  A    between atoms: C_8  and  C_9
REMARK    5  A    between atoms: C_9  and  C_11
REMARK    6  A    between atoms: C_11  and  O_12
REMARK    7  A    between atoms: O_12  and  C_13
REMARK    8  A    between atoms: C_15  and  C_16
REMARK    9  A    between atoms: C_17  and  C_18
REMARK   10  A    between atoms: C_23  and  C_24
REMARK                            x       y       z     vdW  Elec       q    Type
REMARK                         _______ _______ _______ _____ _____    ______ ____
ROOT
ATOM      1  C   UNL     1       0.738   9.697  21.713  0.00  0.00    +0.000 C 
ATOM      2  O   UNL     1       0.596  10.146  22.854  0.00  0.00    +0.000 OA
ENDROOT
BRANCH   1   3
ATOM      3  C   UNL     1       0.717   8.209  21.434  0.00  0.00    +0.000 C 
BRANCH   3   4
ATOM      4  O   UNL     1       1.893   7.882  20.702  0.00  0.00    +0.000 OA
BRANCH   4  10
ATOM      5  C   UNL     1       2.243   2.993  17.785  0.00  0.00    +0.000 C 
ATOM      6  C   UNL     1       2.109   4.261  18.586  0.00  0.00    +0.000 A 
ATOM      7  C   UNL     1       2.465   5.484  18.001  0.00  0.00    +0.000 A 
ATOM      8  C   UNL     1       2.382   6.674  18.729  0.00  0.00    +0.000 A 
ATOM      9 CL   UNL     1       2.856   8.142  17.943  0.00  0.00    +0.000 Cl
ATOM     10  C   UNL     1       1.937   6.672  20.061  0.00  0.00    +0.000 A 
ATOM     11  C   UNL     1       1.564   5.455  20.636  0.00  0.00    +0.000 A 
ATOM     12  C   UNL     1       1.654   4.246  19.918  0.00  0.00    +0.000 A 
ATOM     13  C   UNL     1       1.281   2.957  20.601  0.00  0.00    +0.000 C 
ENDBRANCH   4  10
ENDBRANCH   3   4
ENDBRANCH   1   3
BRANCH   1  14
ATOM     14  C   UNL     1       0.893  10.610  20.511  0.00  0.00    +0.000 C 
BRANCH  14  15
ATOM     15  O   UNL     1      -0.036  11.684  20.582  0.00  0.00    +0.000 OA
BRANCH  15  16
ATOM     16  C   UNL     1      -1.147  11.580  19.778  0.00  0.00    +0.000 A 
ATOM     17  C   UNL     1      -1.187  10.819  18.604  0.00  0.00    +0.000 A 
ATOM     18  C   UNL     1      -2.345  10.733  17.813  0.00  0.00    +0.000 A 
ATOM     19  C   UNL     1      -2.293   9.899  16.560  0.00  0.00    +0.000 C 
ATOM     20  C   UNL     1      -3.496  11.435  18.201  0.00  0.00    +0.000 A 
ATOM     21  C   UNL     1      -4.777  11.409  17.410  0.00  0.00    +0.000 C 
ATOM     22  C   UNL     1      -3.464  12.194  19.382  0.00  0.00    +0.000 A 
ATOM     23  C   UNL     1      -2.302  12.273  20.156  0.00  0.00    +0.000 A 
ATOM     24 CL   UNL     1      -2.340  13.243  21.588  0.00  0.00    +0.000 Cl
ENDBRANCH  15  16
ENDBRANCH  14  15
ENDBRANCH   1  14
TORSDOF 6
ENDMDL
MODEL 8
REMARK VINA RESULT:      -7.0      3.493      8.439
REMARK  Name = 
REMARK  10 active torsions:
REMARK  status: ('A' for Active; 'I' for Inactive)
REMARK    1  A    between atoms: C_1  and  C_2
REMARK    2  A    between atoms: C_6  and  O_7
REMARK    3  A    between atoms: O_7  and  C_8
REMARK    4  A    between atoms: C_8  and  C_9
REMARK    5  A    between atoms: C_9  and  C_11
REMARK    6  A    between atoms: C_11  and  O_12
REMARK    7  A    between atoms: O_12  and  C_13
REMARK    8  A    between atoms: C_15  and  C_16
REMARK    9  A    between atoms: C_17  and  C_18
REMARK   10  A    between atoms: C_23  and  C_24
REMARK                            x       y       z     vdW  Elec       q    Type
REMARK                         _______ _______ _______ _____ _____    ______ ____
ROOT
ATOM      1  C   UNL     1       1.770   9.652  18.343  0.00  0.00    +0.000 C 
ATOM      2  O   UNL     1       2.359  10.674  17.978  0.00  0.00    +0.000 OA
ENDROOT
BRANCH   1   3
ATOM      3  C   UNL     1       0.760   9.676  19.471  0.00  0.00    +0.000 C 
BRANCH   3   4
ATOM      4  O   UNL     1       0.101  10.937  19.447  0.00  0.00    +0.000 OA
BRANCH   4  10
ATOM      5  C   UNL     1      -5.043  11.512  17.051  0.00  0.00    +0.000 C 
ATOM      6  C   UNL     1      -3.681  11.309  17.660  0.00  0.00    +0.000 A 
ATOM      7  C   UNL     1      -3.361  11.957  18.860  0.00  0.00    +0.000 A 
ATOM      8  C   UNL     1      -2.094  11.814  19.433  0.00  0.00    +0.000 A 
ATOM      9 CL   UNL     1      -1.769  12.661  20.908  0.00  0.00    +0.000 Cl
ATOM     10  C   UNL     1      -1.115  11.015  18.820  0.00  0.00    +0.000 A 
ATOM     11  C   UNL     1      -1.441  10.355  17.634  0.00  0.00    +0.000 A 
ATOM     12  C   UNL     1      -2.711  10.499  17.039  0.00  0.00    +0.000 A 
ATOM     13  C   UNL     1      -2.995   9.799  15.737  0.00  0.00    +0.000 C 
ENDBRANCH   4  10
ENDBRANCH   3   4
ENDBRANCH   1   3
BRANCH   1  14
ATOM     14  C   UNL     1       1.986   8.319  17.654  0.00  0.00    +0.000 C 
BRANCH  14  15
ATOM     15  O   UNL     1       3.116   7.654  18.205  0.00  0.00    +0.000 OA
BRANCH  15  16
ATOM     16  C   UNL     1       3.084   6.279  18.178  0.00  0.00    +0.000 A 
ATOM     17  C   UNL     1       2.194   5.509  18.936  0.00  0.00    +0.000 A 
ATOM     18  C   UNL     1       2.190   4.104  18.875  0.00  0.00    +0.000 A 
ATOM     19  C   UNL     1       1.204   3.357  19.734  0.00  0.00    +0.000 C 
ATOM     20  C   UNL     1       3.107   3.450  18.039  0.00  0.00    +0.000 A 
ATOM     21  C   UNL     1       3.180   1.950  17.920  0.00  0.00    +0.000 C 
ATOM     22  C   UNL     1       3.997   4.218  17.272  0.00  0.00    +0.000 A 
ATOM     23  C   UNL     1       3.992   5.614  17.347  0.00  0.00    +0.000 A 
ATOM     24 CL   UNL     1       5.132   6.487  16.381  0.00  0.00    +0.000 Cl
ENDBRANCH  15  16
ENDBRANCH  14  15
ENDBRANCH   1  14
TORSDOF 6
ENDMDL
MODEL 9
REMARK VINA RESULT:      -7.0      5.871      7.672
REMARK  Name = 
REMARK  10 active torsions:
REMARK  status: ('A' for Active; 'I' for Inactive)
REMARK    1  A    between atoms: C_1  and  C_2
REMARK    2  A    between atoms: C_6  and  O_7
REMARK    3  A    between atoms: O_7  and  C_8
REMARK    4  A    between atoms: C_8  and  C_9
REMARK    5  A    between atoms: C_9  and  C_11
REMARK    6  A    between atoms: C_11  and  O_12
REMARK    7  A    between atoms: O_12  and  C_13
REMARK    8  A    between atoms: C_15  and  C_16
REMARK    9  A    between atoms: C_17  and  C_18
REMARK   10  A    between atoms: C_23  and  C_24
REMARK                            x       y       z     vdW  Elec       q    Type
REMARK                         _______ _______ _______ _____ _____    ______ ____
ROOT
ATOM      1  C   UNL     1       7.788   8.090  17.999  0.00  0.00    +0.000 C 
ATOM      2  O   UNL     1       8.320   7.176  18.634  0.00  0.00    +0.000 OA
ENDROOT
BRANCH   1   3
ATOM      3  C   UNL     1       8.479   9.420  17.787  0.00  0.00    +0.000 C 
BRANCH   3   4
ATOM      4  O   UNL     1       8.917   9.896  19.055  0.00  0.00    +0.000 OA
BRANCH   4  10
ATOM      5  C   UNL     1      12.184  14.548  19.514  0.00  0.00    +0.000 C 
ATOM      6  C   UNL     1      11.314  13.332  19.338  0.00  0.00    +0.000 A 
ATOM      7  C   UNL     1      10.589  12.842  20.432  0.00  0.00    +0.000 A 
ATOM      8  C   UNL     1       9.798  11.696  20.308  0.00  0.00    +0.000 A 
ATOM      9 CL   UNL     1       8.946  11.142  21.711  0.00  0.00    +0.000 Cl
ATOM     10  C   UNL     1       9.709  11.013  19.085  0.00  0.00    +0.000 A 
ATOM     11  C   UNL     1      10.417  11.514  17.990  0.00  0.00    +0.000 A 
ATOM     12  C   UNL     1      11.228  12.661  18.103  0.00  0.00    +0.000 A 
ATOM     13  C   UNL     1      12.004  13.133  16.903  0.00  0.00    +0.000 C 
ENDBRANCH   4  10
ENDBRANCH   3   4
ENDBRANCH   1   3
BRANCH   1  14
ATOM     14  C   UNL     1       6.428   7.921  17.349  0.00  0.00    +0.000 C 
BRANCH  14  15
ATOM     15  O   UNL     1       6.410   6.758  16.531  0.00  0.00    +0.000 OA
BRANCH  15  16
ATOM     16  C   UNL     1       5.432   5.832  16.813  0.00  0.00    +0.000 A 
ATOM     17  C   UNL     1       4.375   6.066  17.699  0.00  0.00    +0.000 A 
ATOM     18  C   UNL     1       3.392   5.094  17.956  0.00  0.00    +0.000 A 
ATOM     19  C   UNL     1       2.296   5.430  18.933  0.00  0.00    +0.000 C 
ATOM     20  C   UNL     1       3.472   3.849  17.314  0.00  0.00    +0.000 A 
ATOM     21  C   UNL     1       2.470   2.748  17.537  0.00  0.00    +0.000 C 
ATOM     22  C   UNL     1       4.527   3.613  16.418  0.00  0.00    +0.000 A 
ATOM     23  C   UNL     1       5.500   4.588  16.178  0.00  0.00    +0.000 A 
ATOM     24 CL   UNL     1       6.777   4.211  15.072  0.00  0.00    +0.000 Cl
ENDBRANCH  15  16
ENDBRANCH  14  15
ENDBRANCH   1  14
TORSDOF 6
ENDMDL
