MODEL 1
REMARK VINA RESULT:      -8.4      0.000      0.000
REMARK  Name = 
REMARK  11 active torsions:
REMARK  status: ('A' for Active; 'I' for Inactive)
REMARK    1  A    between atoms: C_1  and  C_2
REMARK    2  A    between atoms: C_2  and  C_3
REMARK    3  A    between atoms: C_3  and  N_4
REMARK    4  A    between atoms: N_4  and  C_5
REMARK    5  A    between atoms: N_4  and  C_8
REMARK    6  A    between atoms: C_5  and  C_6
REMARK    7  A    between atoms: C_6  and  C_7
REMARK    8  A    between atoms: C_11  and  C_12
REMARK    9  A    between atoms: C_20  and  O_21
REMARK   10  A    between atoms: O_21  and  S_22
REMARK   11  A    between atoms: S_22  and  N_23
REMARK                            x       y       z     vdW  Elec       q    Type
REMARK                         _______ _______ _______ _____ _____    ______ ____
ROOT
ATOM      1  C   UNL     1       2.123   8.510  18.376  0.00  0.00    +0.000 C 
ATOM      2  O   UNL     1       1.845   9.250  17.397  0.00  0.00    +0.000 OA
ATOM      3  N   UNL     1       1.445   8.803  19.668  0.00  0.00    +0.000 N 
ATOM      4  C   UNL     1       0.680   9.940  19.161  0.00  0.00    +0.000 C 
ATOM      5  C   UNL     1      -0.004   9.994  20.339  0.00  0.00    +0.000 C 
ATOM      6  C   UNL     1      -0.493  10.591  21.456  0.00  0.00    +0.000 A 
ATOM      7  C   UNL     1      -1.132  11.792  20.915  0.00  0.00    +0.000 A 
ATOM      8  C   UNL     1      -1.835  12.554  21.721  0.00  0.00    +0.000 A 
ATOM      9  C   UNL     1      -1.931  11.939  22.942  0.00  0.00    +0.000 A 
ATOM     10  C   UNL     1      -1.087  10.567  23.252  0.00  0.00    +0.000 A 
ATOM     11  C   UNL     1      -0.156   9.673  22.516  0.00  0.00    +0.000 A 
ATOM     12  C   UNL     1       1.046   8.527  21.504  0.00  0.00    +0.000 C 
ENDROOT
BRANCH   1  16
ATOM     13  C   UNL     1       5.016   5.487  16.980  0.00  0.00    +0.000 A 
ATOM     14  C   UNL     1       4.001   5.146  17.875  0.00  0.00    +0.000 A 
ATOM     15  C   UNL     1       3.043   6.118  18.289  0.00  0.00    +0.000 A 
ATOM     16  C   UNL     1       3.087   7.497  17.858  0.00  0.00    +0.000 A 
ATOM     17  C   UNL     1       4.058   7.811  16.959  0.00  0.00    +0.000 A 
ATOM     18  C   UNL     1       4.982   6.827  16.535  0.00  0.00    +0.000 A 
BRANCH  13  19
ATOM     19  N   UNL     1       6.017   4.583  16.539  0.00  0.00    +0.000 N 
BRANCH  19  20
ATOM     20  C   UNL     1       5.647   3.776  15.330  0.00  0.00    +0.000 C 
BRANCH  20  22
ATOM     21  C   UNL     1       6.010   3.428  12.755  0.00  0.00    +0.000 C 
ATOM     22  C   UNL     1       6.080   4.303  13.974  0.00  0.00    +0.000 C 
ENDBRANCH  20  22
ENDBRANCH  19  20
BRANCH  19  23
ATOM     23  C   UNL     1       7.144   4.320  17.497  0.00  0.00    +0.000 C 
BRANCH  23  24
ATOM     24  C   UNL     1       7.733   5.542  18.202  0.00  0.00    +0.000 C 
ATOM     25  C   UNL     1       7.747   5.685  19.699  0.00  0.00    +0.000 C 
ENDBRANCH  23  24
ENDBRANCH  19  23
ENDBRANCH  13  19
ENDBRANCH   1  16
BRANCH   9  26
ATOM     26  O   UNL     1      -2.850  12.750  23.555  0.00  0.00    +0.000 OA
BRANCH  26  27
ATOM     27  S   UNL     1      -4.425  12.913  23.685  0.00  0.00    +0.000 S 
ATOM     28  O   UNL     1      -4.741  14.285  23.976  0.00  0.00    +0.000 OA
ATOM     29  O   UNL     1      -5.020  12.212  22.562  0.00  0.00    +0.000 OA
BRANCH  27  30
ATOM     30  N   UNL     1      -4.833  11.995  25.014  0.00  0.00    +0.000 NA
ATOM     31  H   UNL     1      -4.887  11.017  24.757  0.00  0.00    +0.000 HD
ATOM     32  H   UNL     1      -5.675  12.367  25.451  0.00  0.00    +0.000 HD
ENDBRANCH  27  30
ENDBRANCH  26  27
ENDBRANCH   9  26
TORSDOF 9
ENDMDL
MODEL 2
REMARK VINA RESULT:      -8.1      0.348      2.390
REMARK  Name = 
REMARK  11 active torsions:
REMARK  status: ('A' for Active; 'I' for Inactive)
REMARK    1  A    between atoms: C_1  and  C_2
REMARK    2  A    between atoms: C_2  and  C_3
REMARK    3  A    between atoms: C_3  and  N_4
REMARK    4  A    between atoms: N_4  and  C_5
REMARK    5  A    between atoms: N_4  and  C_8
REMARK    6  A    between atoms: C_5  and  C_6
REMARK    7  A    between atoms: C_6  and  C_7
REMARK    8  A    between atoms: C_11  and  C_12
REMARK    9  A    between atoms: C_20  and  O_21
REMARK   10  A    between atoms: O_21  and  S_22
REMARK   11  A    between atoms: S_22  and  N_23
REMARK                            x       y       z     vdW  Elec       q    Type
REMARK                         _______ _______ _______ _____ _____    ______ ____
ROOT
ATOM      1  C   UNL     1       1.954   8.520  18.456  0.00  0.00    +0.000 C 
ATOM      2  O   UNL     1       1.691   9.215  17.440  0.00  0.00    +0.000 OA
ATOM      3  N   UNL     1       1.263   8.877  19.725  0.00  0.00    +0.000 N 
ATOM      4  C   UNL     1       0.511   9.993  19.157  0.00  0.00    +0.000 C 
ATOM      5  C   UNL     1      -0.186  10.106  20.324  0.00  0.00    +0.000 C 
ATOM      6  C   UNL     1      -0.683  10.756  21.407  0.00  0.00    +0.000 A 
ATOM      7  C   UNL     1      -1.309  11.935  20.803  0.00  0.00    +0.000 A 
ATOM      8  C   UNL     1      -2.016  12.737  21.565  0.00  0.00    +0.000 A 
ATOM      9  C   UNL     1      -2.129  12.181  22.812  0.00  0.00    +0.000 A 
ATOM     10  C   UNL     1      -1.297  10.820  23.195  0.00  0.00    +0.000 A 
ATOM     11  C   UNL     1      -0.364   9.887  22.512  0.00  0.00    +0.000 A 
ATOM     12  C   UNL     1       0.843   8.688  21.567  0.00  0.00    +0.000 C 
ENDROOT
BRANCH   1  16
ATOM     13  C   UNL     1       4.827   5.405  17.234  0.00  0.00    +0.000 A 
ATOM     14  C   UNL     1       3.707   5.083  18.000  0.00  0.00    +0.000 A 
ATOM     15  C   UNL     1       2.759   6.088  18.356  0.00  0.00    +0.000 A 
ATOM     16  C   UNL     1       2.917   7.479  17.996  0.00  0.00    +0.000 A 
ATOM     17  C   UNL     1       3.993   7.775  17.219  0.00  0.00    +0.000 A 
ATOM     18  C   UNL     1       4.907   6.761  16.849  0.00  0.00    +0.000 A 
BRANCH  13  19
ATOM     19  N   UNL     1       5.824   4.467  16.860  0.00  0.00    +0.000 N 
BRANCH  19  20
ATOM     20  C   UNL     1       7.105   4.569  17.634  0.00  0.00    +0.000 C 
BRANCH  20  22
ATOM     21  C   UNL     1       8.364   5.639  19.672  0.00  0.00    +0.000 C 
ATOM     22  C   UNL     1       7.099   5.411  18.896  0.00  0.00    +0.000 C 
ENDBRANCH  20  22
ENDBRANCH  19  20
BRANCH  19  23
ATOM     23  C   UNL     1       5.601   3.740  15.565  0.00  0.00    +0.000 C 
BRANCH  23  24
ATOM     24  C   UNL     1       6.099   4.439  14.300  0.00  0.00    +0.000 C 
ATOM     25  C   UNL     1       6.276   3.719  12.992  0.00  0.00    +0.000 C 
ENDBRANCH  23  24
ENDBRANCH  19  23
ENDBRANCH  13  19
ENDBRANCH   1  16
BRANCH   9  26
ATOM     26  O   UNL     1      -3.049  13.024  23.377  0.00  0.00    +0.000 OA
BRANCH  26  27
ATOM     27  S   UNL     1      -4.600  13.069  23.720  0.00  0.00    +0.000 S 
ATOM     28  O   UNL     1      -4.964  14.404  24.114  0.00  0.00    +0.000 OA
ATOM     29  O   UNL     1      -5.293  12.372  22.652  0.00  0.00    +0.000 OA
BRANCH  27  30
ATOM     30  N   UNL     1      -4.765  12.075  25.046  0.00  0.00    +0.000 NA
ATOM     31  H   UNL     1      -3.856  11.879  25.447  0.00  0.00    +0.000 HD
ATOM     32  H   UNL     1      -5.307  11.249  24.798  0.00  0.00    +0.000 HD
ENDBRANCH  27  30
ENDBRANCH  26  27
ENDBRANCH   9  26
TORSDOF 9
ENDMDL
MODEL 3
REMARK VINA RESULT:      -8.1      0.755      2.615
REMARK  Name = 
REMARK  11 active torsions:
REMARK  status: ('A' for Active; 'I' for Inactive)
REMARK    1  A    between atoms: C_1  and  C_2
REMARK    2  A    between atoms: C_2  and  C_3
REMARK    3  A    between atoms: C_3  and  N_4
REMARK    4  A    between atoms: N_4  and  C_5
REMARK    5  A    between atoms: N_4  and  C_8
REMARK    6  A    between atoms: C_5  and  C_6
REMARK    7  A    between atoms: C_6  and  C_7
REMARK    8  A    between atoms: C_11  and  C_12
REMARK    9  A    between atoms: C_20  and  O_21
REMARK   10  A    between atoms: O_21  and  S_22
REMARK   11  A    between atoms: S_22  and  N_23
REMARK                            x       y       z     vdW  Elec       q    Type
REMARK                         _______ _______ _______ _____ _____    ______ ____
ROOT
ATOM      1  C   UNL     1       2.026   8.431  18.519  0.00  0.00    +0.000 C 
ATOM      2  O   UNL     1       1.693   9.057  17.479  0.00  0.00    +0.000 OA
ATOM      3  N   UNL     1       1.350   8.811  19.790  0.00  0.00    +0.000 N 
ATOM      4  C   UNL     1       0.516   9.850  19.191  0.00  0.00    +0.000 C 
ATOM      5  C   UNL     1      -0.154   9.980  20.371  0.00  0.00    +0.000 C 
ATOM      6  C   UNL     1      -0.660  10.654  21.436  0.00  0.00    +0.000 A 
ATOM      7  C   UNL     1      -1.373  11.760  20.795  0.00  0.00    +0.000 A 
ATOM      8  C   UNL     1      -2.107  12.557  21.537  0.00  0.00    +0.000 A 
ATOM      9  C   UNL     1      -2.151  12.059  22.813  0.00  0.00    +0.000 A 
ATOM     10  C   UNL     1      -1.227  10.772  23.237  0.00  0.00    +0.000 A 
ATOM     11  C   UNL     1      -0.258   9.862  22.572  0.00  0.00    +0.000 A 
ATOM     12  C   UNL     1       0.993   8.691  21.651  0.00  0.00    +0.000 C 
ENDROOT
BRANCH   1  16
ATOM     13  C   UNL     1       4.976   5.481  17.089  0.00  0.00    +0.000 A 
ATOM     14  C   UNL     1       4.986   6.792  16.610  0.00  0.00    +0.000 A 
ATOM     15  C   UNL     1       4.056   7.752  17.109  0.00  0.00    +0.000 A 
ATOM     16  C   UNL     1       3.038   7.428  18.082  0.00  0.00    +0.000 A 
ATOM     17  C   UNL     1       3.061   6.158  18.568  0.00  0.00    +0.000 A 
ATOM     18  C   UNL     1       4.009   5.226  18.086  0.00  0.00    +0.000 A 
BRANCH  13  19
ATOM     19  N   UNL     1       5.853   4.466  16.627  0.00  0.00    +0.000 N 
BRANCH  19  20
ATOM     20  C   UNL     1       7.264   4.581  17.122  0.00  0.00    +0.000 C 
BRANCH  20  22
ATOM     21  C   UNL     1       7.985   6.562  18.684  0.00  0.00    +0.000 C 
ATOM     22  C   UNL     1       7.478   5.159  18.509  0.00  0.00    +0.000 C 
ENDBRANCH  20  22
ENDBRANCH  19  20
BRANCH  19  23
ATOM     23  C   UNL     1       5.357   3.629  15.483  0.00  0.00    +0.000 C 
BRANCH  23  24
ATOM     24  C   UNL     1       5.480   4.246  14.089  0.00  0.00    +0.000 C 
ATOM     25  C   UNL     1       6.183   3.552  12.955  0.00  0.00    +0.000 C 
ENDBRANCH  23  24
ENDBRANCH  19  23
ENDBRANCH  13  19
ENDBRANCH   1  16
BRANCH   9  26
ATOM     26  O   UNL     1      -3.105  12.874  23.364  0.00  0.00    +0.000 OA
BRANCH  26  27
ATOM     27  S   UNL     1      -4.678  12.918  23.586  0.00  0.00    +0.000 S 
ATOM     28  O   UNL     1      -5.028  12.070  24.694  0.00  0.00    +0.000 OA
ATOM     29  O   UNL     1      -5.077  14.312  23.534  0.00  0.00    +0.000 OA
BRANCH  27  30
ATOM     30  N   UNL     1      -5.316  12.248  22.200  0.00  0.00    +0.000 NA
ATOM     31  H   UNL     1      -6.289  12.011  22.347  0.00  0.00    +0.000 HD
ATOM     32  H   UNL     1      -4.732  11.475  21.885  0.00  0.00    +0.000 HD
ENDBRANCH  27  30
ENDBRANCH  26  27
ENDBRANCH   9  26
TORSDOF 9
ENDMDL
MODEL 4
REMARK VINA RESULT:      -8.0      1.243      2.935
REMARK  Name = 
REMARK  11 active torsions:
REMARK  status: ('A' for Active; 'I' for Inactive)
REMARK    1  A    between atoms: C_1  and  C_2
REMARK    2  A    between atoms: C_2  and  C_3
REMARK    3  A    between atoms: C_3  and  N_4
REMARK    4  A    between atoms: N_4  and  C_5
REMARK    5  A    between atoms: N_4  and  C_8
REMARK    6  A    between atoms: C_5  and  C_6
REMARK    7  A    between atoms: C_6  and  C_7
REMARK    8  A    between atoms: C_11  and  C_12
REMARK    9  A    between atoms: C_20  and  O_21
REMARK   10  A    between atoms: O_21  and  S_22
REMARK   11  A    between atoms: S_22  and  N_23
REMARK                            x       y       z     vdW  Elec       q    Type
REMARK                         _______ _______ _______ _____ _____    ______ ____
ROOT
ATOM      1  C   UNL     1       2.229   7.320  19.602  0.00  0.00    +0.000 C 
ATOM      2  O   UNL     1       2.199   6.532  20.583  0.00  0.00    +0.000 OA
ATOM      3  N   UNL     1       1.493   8.607  19.738  0.00  0.00    +0.000 N 
ATOM      4  C   UNL     1       1.017   8.345  21.094  0.00  0.00    +0.000 C 
ATOM      5  C   UNL     1       0.538   9.620  21.162  0.00  0.00    +0.000 C 
ATOM      6  C   UNL     1      -0.404  10.574  21.373  0.00  0.00    +0.000 A 
ATOM      7  C   UNL     1      -0.947  10.194  22.679  0.00  0.00    +0.000 A 
ATOM      8  C   UNL     1      -1.809  10.993  23.265  0.00  0.00    +0.000 A 
ATOM      9  C   UNL     1      -1.912  12.147  22.534  0.00  0.00    +0.000 A 
ATOM     10  C   UNL     1      -1.162  12.283  21.080  0.00  0.00    +0.000 A 
ATOM     11  C   UNL     1      -0.285  11.441  20.227  0.00  0.00    +0.000 A 
ATOM     12  C   UNL     1       0.873  10.303  19.154  0.00  0.00    +0.000 C 
ENDROOT
BRANCH   1  16
ATOM     13  C   UNL     1       4.820   5.285  16.669  0.00  0.00    +0.000 A 
ATOM     14  C   UNL     1       4.004   4.552  17.533  0.00  0.00    +0.000 A 
ATOM     15  C   UNL     1       3.138   5.218  18.450  0.00  0.00    +0.000 A 
ATOM     16  C   UNL     1       3.082   6.657  18.575  0.00  0.00    +0.000 A 
ATOM     17  C   UNL     1       3.853   7.361  17.704  0.00  0.00    +0.000 A 
ATOM     18  C   UNL     1       4.685   6.686  16.780  0.00  0.00    +0.000 A 
BRANCH  13  19
ATOM     19  N   UNL     1       5.723   4.696  15.747  0.00  0.00    +0.000 N 
BRANCH  19  20
ATOM     20  C   UNL     1       7.173   4.870  16.090  0.00  0.00    +0.000 C 
BRANCH  20  22
ATOM     21  C   UNL     1       7.744   5.677  18.520  0.00  0.00    +0.000 C 
ATOM     22  C   UNL     1       7.599   4.570  17.515  0.00  0.00    +0.000 C 
ENDBRANCH  20  22
ENDBRANCH  19  20
BRANCH  19  23
ATOM     23  C   UNL     1       5.146   4.279  14.425  0.00  0.00    +0.000 C 
BRANCH  23  24
ATOM     24  C   UNL     1       6.150   3.899  13.336  0.00  0.00    +0.000 C 
ATOM     25  C   UNL     1       5.753   3.155  12.092  0.00  0.00    +0.000 C 
ENDBRANCH  23  24
ENDBRANCH  19  23
ENDBRANCH  13  19
ENDBRANCH   1  16
BRANCH   9  26
ATOM     26  O   UNL     1      -2.661  12.914  23.387  0.00  0.00    +0.000 OA
BRANCH  26  27
ATOM     27  S   UNL     1      -4.152  13.022  23.924  0.00  0.00    +0.000 S 
ATOM     28  O   UNL     1      -5.067  12.699  22.861  0.00  0.00    +0.000 OA
ATOM     29  O   UNL     1      -4.195  12.339  25.203  0.00  0.00    +0.000 OA
BRANCH  27  30
ATOM     30  N   UNL     1      -4.346  14.632  24.303  0.00  0.00    +0.000 NA
ATOM     31  H   UNL     1      -3.452  15.105  24.275  0.00  0.00    +0.000 HD
ATOM     32  H   UNL     1      -4.850  14.726  25.183  0.00  0.00    +0.000 HD
ENDBRANCH  27  30
ENDBRANCH  26  27
ENDBRANCH   9  26
TORSDOF 9
ENDMDL
MODEL 5
REMARK VINA RESULT:      -8.0      1.239      1.804
REMARK  Name = 
REMARK  11 active torsions:
REMARK  status: ('A' for Active; 'I' for Inactive)
REMARK    1  A    between atoms: C_1  and  C_2
REMARK    2  A    between atoms: C_2  and  C_3
REMARK    3  A    between atoms: C_3  and  N_4
REMARK    4  A    between atoms: N_4  and  C_5
REMARK    5  A    between atoms: N_4  and  C_8
REMARK    6  A    between atoms: C_5  and  C_6
REMARK    7  A    between atoms: C_6  and  C_7
REMARK    8  A    between atoms: C_11  and  C_12
REMARK    9  A    between atoms: C_20  and  O_21
REMARK   10  A    between atoms: O_21  and  S_22
REMARK   11  A    between atoms: S_22  and  N_23
REMARK                            x       y       z     vdW  Elec       q    Type
REMARK                         _______ _______ _______ _____ _____    ______ ____
ROOT
ATOM      1  C   UNL     1       2.334   7.269  19.456  0.00  0.00    +0.000 C 
ATOM      2  O   UNL     1       2.290   6.431  20.395  0.00  0.00    +0.000 OA
ATOM      3  N   UNL     1       1.606   8.552  19.652  0.00  0.00    +0.000 N 
ATOM      4  C   UNL     1       1.117   8.225  20.989  0.00  0.00    +0.000 C 
ATOM      5  C   UNL     1       0.646   9.498  21.118  0.00  0.00    +0.000 C 
ATOM      6  C   UNL     1      -0.291  10.447  21.371  0.00  0.00    +0.000 A 
ATOM      7  C   UNL     1      -0.847  10.005  22.652  0.00  0.00    +0.000 A 
ATOM      8  C   UNL     1      -1.708  10.779  23.271  0.00  0.00    +0.000 A 
ATOM      9  C   UNL     1      -1.797  11.970  22.599  0.00  0.00    +0.000 A 
ATOM     10  C   UNL     1      -1.035  12.174  21.161  0.00  0.00    +0.000 A 
ATOM     11  C   UNL     1      -0.156  11.370  20.272  0.00  0.00    +0.000 A 
ATOM     12  C   UNL     1       1.002  10.281  19.151  0.00  0.00    +0.000 C 
ENDROOT
BRANCH   1  16
ATOM     13  C   UNL     1       4.935   5.369  16.444  0.00  0.00    +0.000 A 
ATOM     14  C   UNL     1       4.124   4.597  17.277  0.00  0.00    +0.000 A 
ATOM     15  C   UNL     1       3.254   5.220  18.219  0.00  0.00    +0.000 A 
ATOM     16  C   UNL     1       3.190   6.653  18.403  0.00  0.00    +0.000 A 
ATOM     17  C   UNL     1       3.958   7.396  17.562  0.00  0.00    +0.000 A 
ATOM     18  C   UNL     1       4.793   6.764  16.611  0.00  0.00    +0.000 A 
BRANCH  13  19
ATOM     19  N   UNL     1       5.842   4.824  15.498  0.00  0.00    +0.000 N 
BRANCH  19  20
ATOM     20  C   UNL     1       5.201   4.028  14.400  0.00  0.00    +0.000 C 
BRANCH  20  22
ATOM     21  C   UNL     1       5.411   3.185  11.924  0.00  0.00    +0.000 C 
ATOM     22  C   UNL     1       6.047   3.702  13.182  0.00  0.00    +0.000 C 
ENDBRANCH  20  22
ENDBRANCH  19  20
BRANCH  19  23
ATOM     23  C   UNL     1       7.293   4.832  15.886  0.00  0.00    +0.000 C 
BRANCH  23  24
ATOM     24  C   UNL     1       7.605   4.511  17.348  0.00  0.00    +0.000 C 
ATOM     25  C   UNL     1       7.781   5.578  18.393  0.00  0.00    +0.000 C 
ENDBRANCH  23  24
ENDBRANCH  19  23
ENDBRANCH  13  19
ENDBRANCH   1  16
BRANCH   9  26
ATOM     26  O   UNL     1      -2.548  12.698  23.484  0.00  0.00    +0.000 OA
BRANCH  26  27
ATOM     27  S   UNL     1      -4.070  12.927  23.877  0.00  0.00    +0.000 S 
ATOM     28  O   UNL     1      -4.431  12.026  24.940  0.00  0.00    +0.000 OA
ATOM     29  O   UNL     1      -4.270  14.360  23.990  0.00  0.00    +0.000 OA
BRANCH  27  30
ATOM     30  N   UNL     1      -4.925  12.491  22.516  0.00  0.00    +0.000 NA
ATOM     31  H   UNL     1      -4.656  11.561  22.222  0.00  0.00    +0.000 HD
ATOM     32  H   UNL     1      -4.830  13.208  21.799  0.00  0.00    +0.000 HD
ENDBRANCH  27  30
ENDBRANCH  26  27
ENDBRANCH   9  26
TORSDOF 9
ENDMDL
MODEL 6
REMARK VINA RESULT:      -7.8      1.632      3.181
REMARK  Name = 
REMARK  11 active torsions:
REMARK  status: ('A' for Active; 'I' for Inactive)
REMARK    1  A    between atoms: C_1  and  C_2
REMARK    2  A    between atoms: C_2  and  C_3
REMARK    3  A    between atoms: C_3  and  N_4
REMARK    4  A    between atoms: N_4  and  C_5
REMARK    5  A    between atoms: N_4  and  C_8
REMARK    6  A    between atoms: C_5  and  C_6
REMARK    7  A    between atoms: C_6  and  C_7
REMARK    8  A    between atoms: C_11  and  C_12
REMARK    9  A    between atoms: C_20  and  O_21
REMARK   10  A    between atoms: O_21  and  S_22
REMARK   11  A    between atoms: S_22  and  N_23
REMARK                            x       y       z     vdW  Elec       q    Type
REMARK                         _______ _______ _______ _____ _____    ______ ____
ROOT
ATOM      1  C   UNL     1       2.181   7.489  19.531  0.00  0.00    +0.000 C 
ATOM      2  O   UNL     1       1.987   6.666  20.463  0.00  0.00    +0.000 OA
ATOM      3  N   UNL     1       1.579   8.842  19.678  0.00  0.00    +0.000 N 
ATOM      4  C   UNL     1       0.970   8.576  20.979  0.00  0.00    +0.000 C 
ATOM      5  C   UNL     1       0.626   9.891  21.077  0.00  0.00    +0.000 C 
ATOM      6  C   UNL     1      -0.222  10.934  21.267  0.00  0.00    +0.000 A 
ATOM      7  C   UNL     1      -0.906  10.560  22.506  0.00  0.00    +0.000 A 
ATOM      8  C   UNL     1      -1.722  11.423  23.066  0.00  0.00    +0.000 A 
ATOM      9  C   UNL     1      -1.640  12.613  22.392  0.00  0.00    +0.000 A 
ATOM     10  C   UNL     1      -0.766  12.728  21.009  0.00  0.00    +0.000 A 
ATOM     11  C   UNL     1       0.083  11.832  20.180  0.00  0.00    +0.000 A 
ATOM     12  C   UNL     1       1.194  10.621  19.139  0.00  0.00    +0.000 C 
ENDROOT
BRANCH   1  16
ATOM     13  C   UNL     1       4.785   5.329  16.702  0.00  0.00    +0.000 A 
ATOM     14  C   UNL     1       3.988   4.634  17.613  0.00  0.00    +0.000 A 
ATOM     15  C   UNL     1       3.116   5.338  18.495  0.00  0.00    +0.000 A 
ATOM     16  C   UNL     1       3.038   6.781  18.537  0.00  0.00    +0.000 A 
ATOM     17  C   UNL     1       3.792   7.446  17.622  0.00  0.00    +0.000 A 
ATOM     18  C   UNL     1       4.628   6.731  16.732  0.00  0.00    +0.000 A 
BRANCH  13  19
ATOM     19  N   UNL     1       5.692   4.702  15.808  0.00  0.00    +0.000 N 
BRANCH  19  20
ATOM     20  C   UNL     1       7.139   4.846  16.177  0.00  0.00    +0.000 C 
BRANCH  20  22
ATOM     21  C   UNL     1       7.701   5.712  18.590  0.00  0.00    +0.000 C 
ATOM     22  C   UNL     1       7.526   4.578  17.620  0.00  0.00    +0.000 C 
ENDBRANCH  20  22
ENDBRANCH  19  20
BRANCH  19  23
ATOM     23  C   UNL     1       5.131   4.275  14.482  0.00  0.00    +0.000 C 
BRANCH  23  24
ATOM     24  C   UNL     1       6.139   3.758  13.454  0.00  0.00    +0.000 C 
ATOM     25  C   UNL     1       5.725   3.229  12.109  0.00  0.00    +0.000 C 
ENDBRANCH  23  24
ENDBRANCH  19  23
ENDBRANCH  13  19
ENDBRANCH   1  16
BRANCH   9  26
ATOM     26  O   UNL     1      -2.369  13.420  23.225  0.00  0.00    +0.000 OA
BRANCH  26  27
ATOM     27  S   UNL     1      -2.158  14.653  24.205  0.00  0.00    +0.000 S 
ATOM     28  O   UNL     1      -3.052  14.532  25.325  0.00  0.00    +0.000 OA
ATOM     29  O   UNL     1      -0.727  14.816  24.383  0.00  0.00    +0.000 OA
BRANCH  27  30
ATOM     30  N   UNL     1      -2.622  15.981  23.313  0.00  0.00    +0.000 NA
ATOM     31  H   UNL     1      -2.603  16.811  23.892  0.00  0.00    +0.000 HD
ATOM     32  H   UNL     1      -3.516  15.801  22.857  0.00  0.00    +0.000 HD
ENDBRANCH  27  30
ENDBRANCH  26  27
ENDBRANCH   9  26
TORSDOF 9
ENDMDL
MODEL 7
REMARK VINA RESULT:      -7.6      1.763      2.729
REMARK  Name = 
REMARK  11 active torsions:
REMARK  status: ('A' for Active; 'I' for Inactive)
REMARK    1  A    between atoms: C_1  and  C_2
REMARK    2  A    between atoms: C_2  and  C_3
REMARK    3  A    between atoms: C_3  and  N_4
REMARK    4  A    between atoms: N_4  and  C_5
REMARK    5  A    between atoms: N_4  and  C_8
REMARK    6  A    between atoms: C_5  and  C_6
REMARK    7  A    between atoms: C_6  and  C_7
REMARK    8  A    between atoms: C_11  and  C_12
REMARK    9  A    between atoms: C_20  and  O_21
REMARK   10  A    between atoms: O_21  and  S_22
REMARK   11  A    between atoms: S_22  and  N_23
REMARK                            x       y       z     vdW  Elec       q    Type
REMARK                         _______ _______ _______ _____ _____    ______ ____
ROOT
ATOM      1  C   UNL     1       1.370   9.045  19.093  0.00  0.00    +0.000 C 
ATOM      2  O   UNL     1       1.240   9.609  17.975  0.00  0.00    +0.000 OA
ATOM      3  N   UNL     1       0.621   9.625  20.241  0.00  0.00    +0.000 N 
ATOM      4  C   UNL     1       0.007  10.703  19.469  0.00  0.00    +0.000 C 
ATOM      5  C   UNL     1      -0.760  11.027  20.548  0.00  0.00    +0.000 C 
ATOM      6  C   UNL     1      -1.279  11.857  21.489  0.00  0.00    +0.000 A 
ATOM      7  C   UNL     1      -1.759  12.981  20.684  0.00  0.00    +0.000 A 
ATOM      8  C   UNL     1      -2.451  13.931  21.270  0.00  0.00    +0.000 A 
ATOM      9  C   UNL     1      -2.700  13.564  22.566  0.00  0.00    +0.000 A 
ATOM     10  C   UNL     1      -2.013  12.214  23.196  0.00  0.00    +0.000 A 
ATOM     11  C   UNL     1      -1.113  11.129  22.723  0.00  0.00    +0.000 A 
ATOM     12  C   UNL     1       0.055   9.727  22.050  0.00  0.00    +0.000 C 
ENDROOT
BRANCH   1  16
ATOM     13  C   UNL     1       4.111   5.638  18.524  0.00  0.00    +0.000 A 
ATOM     14  C   UNL     1       3.290   5.714  19.650  0.00  0.00    +0.000 A 
ATOM     15  C   UNL     1       2.375   6.797  19.806  0.00  0.00    +0.000 A 
ATOM     16  C   UNL     1       2.274   7.884  18.858  0.00  0.00    +0.000 A 
ATOM     17  C   UNL     1       3.053   7.781  17.748  0.00  0.00    +0.000 A 
ATOM     18  C   UNL     1       3.933   6.684  17.593  0.00  0.00    +0.000 A 
BRANCH  13  19
ATOM     19  N   UNL     1       5.061   4.605  18.308  0.00  0.00    +0.000 N 
BRANCH  19  20
ATOM     20  C   UNL     1       6.313   5.040  17.607  0.00  0.00    +0.000 C 
BRANCH  20  22
ATOM     21  C   UNL     1       7.811   7.131  18.124  0.00  0.00    +0.000 C 
ATOM     22  C   UNL     1       7.382   5.727  18.438  0.00  0.00    +0.000 C 
ENDBRANCH  20  22
ENDBRANCH  19  20
BRANCH  19  23
ATOM     23  C   UNL     1       4.570   3.199  18.504  0.00  0.00    +0.000 C 
BRANCH  23  24
ATOM     24  C   UNL     1       3.419   2.751  17.602  0.00  0.00    +0.000 C 
ATOM     25  C   UNL     1       2.079   2.339  18.144  0.00  0.00    +0.000 C 
ENDBRANCH  23  24
ENDBRANCH  19  23
ENDBRANCH  13  19
ENDBRANCH   1  16
BRANCH   9  26
ATOM     26  O   UNL     1      -3.585  14.543  22.935  0.00  0.00    +0.000 OA
BRANCH  26  27
ATOM     27  S   UNL     1      -5.088  14.691  23.429  0.00  0.00    +0.000 S 
ATOM     28  O   UNL     1      -5.206  15.863  24.255  0.00  0.00    +0.000 OA
ATOM     29  O   UNL     1      -5.939  14.483  22.272  0.00  0.00    +0.000 OA
BRANCH  27  30
ATOM     30  N   UNL     1      -5.349  13.353  24.386  0.00  0.00    +0.000 NA
ATOM     31  H   UNL     1      -4.510  12.789  24.428  0.00  0.00    +0.000 HD
ATOM     32  H   UNL     1      -6.181  12.856  24.073  0.00  0.00    +0.000 HD
ENDBRANCH  27  30
ENDBRANCH  26  27
ENDBRANCH   9  26
TORSDOF 9
ENDMDL
MODEL 8
REMARK VINA RESULT:      -7.6      1.823      2.552
REMARK  Name = 
REMARK  11 active torsions:
REMARK  status: ('A' for Active; 'I' for Inactive)
REMARK    1  A    between atoms: C_1  and  C_2
REMARK    2  A    between atoms: C_2  and  C_3
REMARK    3  A    between atoms: C_3  and  N_4
REMARK    4  A    between atoms: N_4  and  C_5
REMARK    5  A    between atoms: N_4  and  C_8
REMARK    6  A    between atoms: C_5  and  C_6
REMARK    7  A    between atoms: C_6  and  C_7
REMARK    8  A    between atoms: C_11  and  C_12
REMARK    9  A    between atoms: C_20  and  O_21
REMARK   10  A    between atoms: O_21  and  S_22
REMARK   11  A    between atoms: S_22  and  N_23
REMARK                            x       y       z     vdW  Elec       q    Type
REMARK                         _______ _______ _______ _____ _____    ______ ____
ROOT
ATOM      1  C   UNL     1       1.376   9.013  19.138  0.00  0.00    +0.000 C 
ATOM      2  O   UNL     1       1.331   9.633  18.043  0.00  0.00    +0.000 OA
ATOM      3  N   UNL     1       0.608   9.584  20.278  0.00  0.00    +0.000 N 
ATOM      4  C   UNL     1       0.094  10.729  19.531  0.00  0.00    +0.000 C 
ATOM      5  C   UNL     1      -0.704  11.050  20.590  0.00  0.00    +0.000 C 
ATOM      6  C   UNL     1      -1.217  11.866  21.545  0.00  0.00    +0.000 A 
ATOM      7  C   UNL     1      -1.595  13.051  20.774  0.00  0.00    +0.000 A 
ATOM      8  C   UNL     1      -2.258  14.014  21.373  0.00  0.00    +0.000 A 
ATOM      9  C   UNL     1      -2.588  13.604  22.638  0.00  0.00    +0.000 A 
ATOM     10  C   UNL     1      -2.009  12.189  23.233  0.00  0.00    +0.000 A 
ATOM     11  C   UNL     1      -1.152  11.075  22.750  0.00  0.00    +0.000 A 
ATOM     12  C   UNL     1      -0.035   9.637  22.063  0.00  0.00    +0.000 C 
ENDROOT
BRANCH   1  16
ATOM     13  C   UNL     1       3.941   5.477  18.529  0.00  0.00    +0.000 A 
ATOM     14  C   UNL     1       3.066   5.547  19.615  0.00  0.00    +0.000 A 
ATOM     15  C   UNL     1       2.209   6.675  19.781  0.00  0.00    +0.000 A 
ATOM     16  C   UNL     1       2.222   7.811  18.888  0.00  0.00    +0.000 A 
ATOM     17  C   UNL     1       3.052   7.716  17.815  0.00  0.00    +0.000 A 
ATOM     18  C   UNL     1       3.874   6.577  17.647  0.00  0.00    +0.000 A 
BRANCH  13  19
ATOM     19  N   UNL     1       4.839   4.400  18.308  0.00  0.00    +0.000 N 
BRANCH  19  20
ATOM     20  C   UNL     1       4.763   3.300  19.325  0.00  0.00    +0.000 C 
BRANCH  20  22
ATOM     21  C   UNL     1       2.955   2.131  17.825  0.00  0.00    +0.000 C 
ATOM     22  C   UNL     1       3.889   2.102  19.001  0.00  0.00    +0.000 C 
ENDBRANCH  20  22
ENDBRANCH  19  20
BRANCH  19  23
ATOM     23  C   UNL     1       5.937   4.644  17.313  0.00  0.00    +0.000 C 
BRANCH  23  24
ATOM     24  C   UNL     1       7.351   4.766  17.881  0.00  0.00    +0.000 C 
ATOM     25  C   UNL     1       7.738   5.830  18.870  0.00  0.00    +0.000 C 
ENDBRANCH  23  24
ENDBRANCH  19  23
ENDBRANCH  13  19
ENDBRANCH   1  16
BRANCH   9  26
ATOM     26  O   UNL     1      -3.432  14.616  23.014  0.00  0.00    +0.000 OA
BRANCH  26  27
ATOM     27  S   UNL     1      -3.700  15.570  24.256  0.00  0.00    +0.000 S 
ATOM     28  O   UNL     1      -3.039  15.038  25.418  0.00  0.00    +0.000 OA
ATOM     29  O   UNL     1      -3.475  16.931  23.805  0.00  0.00    +0.000 OA
BRANCH  27  30
ATOM     30  N   UNL     1      -5.344  15.479  24.508  0.00  0.00    +0.000 NA
ATOM     31  H   UNL     1      -5.693  14.582  24.194  0.00  0.00    +0.000 HD
ATOM     32  H   UNL     1      -5.806  16.285  24.091  0.00  0.00    +0.000 HD
ENDBRANCH  27  30
ENDBRANCH  26  27
ENDBRANCH   9  26
TORSDOF 9
ENDMDL
MODEL 9
REMARK VINA RESULT:      -7.6      0.896      1.074
REMARK  Name = 
REMARK  11 active torsions:
REMARK  status: ('A' for Active; 'I' for Inactive)
REMARK    1  A    between atoms: C_1  and  C_2
REMARK    2  A    between atoms: C_2  and  C_3
REMARK    3  A    between atoms: C_3  and  N_4
REMARK    4  A    between atoms: N_4  and  C_5
REMARK    5  A    between atoms: N_4  and  C_8
REMARK    6  A    between atoms: C_5  and  C_6
REMARK    7  A    between atoms: C_6  and  C_7
REMARK    8  A    between atoms: C_11  and  C_12
REMARK    9  A    between atoms: C_20  and  O_21
REMARK   10  A    between atoms: O_21  and  S_22
REMARK   11  A    between atoms: S_22  and  N_23
REMARK                            x       y       z     vdW  Elec       q    Type
REMARK                         _______ _______ _______ _____ _____    ______ ____
ROOT
ATOM      1  C   UNL     1       1.879   8.625  18.388  0.00  0.00    +0.000 C 
ATOM      2  O   UNL     1       1.585   9.336  17.392  0.00  0.00    +0.000 OA
ATOM      3  N   UNL     1       1.227   8.961  19.683  0.00  0.00    +0.000 N 
ATOM      4  C   UNL     1       0.458  10.086  19.156  0.00  0.00    +0.000 C 
ATOM      5  C   UNL     1      -0.203  10.180  20.345  0.00  0.00    +0.000 C 
ATOM      6  C   UNL     1      -0.667  10.813  21.453  0.00  0.00    +0.000 A 
ATOM      7  C   UNL     1      -1.311  12.000  20.887  0.00  0.00    +0.000 A 
ATOM      8  C   UNL     1      -1.996  12.790  21.683  0.00  0.00    +0.000 A 
ATOM      9  C   UNL     1      -2.070  12.214  22.924  0.00  0.00    +0.000 A 
ATOM     10  C   UNL     1      -1.226  10.848  23.260  0.00  0.00    +0.000 A 
ATOM     11  C   UNL     1      -0.314   9.926  22.534  0.00  0.00    +0.000 A 
ATOM     12  C   UNL     1       0.863   8.744  21.534  0.00  0.00    +0.000 C 
ENDROOT
BRANCH   1  16
ATOM     13  C   UNL     1       4.706   5.524  17.030  0.00  0.00    +0.000 A 
ATOM     14  C   UNL     1       3.554   5.180  17.740  0.00  0.00    +0.000 A 
ATOM     15  C   UNL     1       2.623   6.184  18.139  0.00  0.00    +0.000 A 
ATOM     16  C   UNL     1       2.828   7.592  17.883  0.00  0.00    +0.000 A 
ATOM     17  C   UNL     1       3.934   7.912  17.160  0.00  0.00    +0.000 A 
ATOM     18  C   UNL     1       4.832   6.901  16.745  0.00  0.00    +0.000 A 
BRANCH  13  19
ATOM     19  N   UNL     1       5.689   4.587  16.618  0.00  0.00    +0.000 N 
BRANCH  19  20
ATOM     20  C   UNL     1       5.388   3.888  15.325  0.00  0.00    +0.000 C 
BRANCH  20  22
ATOM     21  C   UNL     1       6.047   3.614  12.800  0.00  0.00    +0.000 C 
ATOM     22  C   UNL     1       6.400   4.023  14.202  0.00  0.00    +0.000 C 
ENDBRANCH  20  22
ENDBRANCH  19  20
BRANCH  19  23
ATOM     23  C   UNL     1       6.701   4.187  17.653  0.00  0.00    +0.000 C 
BRANCH  23  24
ATOM     24  C   UNL     1       7.731   5.249  18.039  0.00  0.00    +0.000 C 
ATOM     25  C   UNL     1       7.844   5.798  19.434  0.00  0.00    +0.000 C 
ENDBRANCH  23  24
ENDBRANCH  19  23
ENDBRANCH  13  19
ENDBRANCH   1  16
BRANCH   9  26
ATOM     26  O   UNL     1      -2.972  13.048  23.530  0.00  0.00    +0.000 OA
BRANCH  26  27
ATOM     27  S   UNL     1      -3.097  14.562  23.995  0.00  0.00    +0.000 S 
ATOM     28  O   UNL     1      -1.818  15.207  23.871  0.00  0.00    +0.000 OA
ATOM     29  O   UNL     1      -4.290  15.103  23.370  0.00  0.00    +0.000 OA
BRANCH  27  30
ATOM     30  N   UNL     1      -3.478  14.473  25.615  0.00  0.00    +0.000 NA
ATOM     31  H   UNL     1      -3.452  15.396  26.028  0.00  0.00    +0.000 HD
ATOM     32  H   UNL     1      -2.884  13.784  26.075  0.00  0.00    +0.000 HD
ENDBRANCH  27  30
ENDBRANCH  26  27
ENDBRANCH   9  26
TORSDOF 9
ENDMDL
