MODEL 1
REMARK VINA RESULT:      -7.9      0.000      0.000
REMARK  Name = 
REMARK  6 active torsions:
REMARK  status: ('A' for Active; 'I' for Inactive)
REMARK    1  A    between atoms: C_1  and  O_2
REMARK    2  A    between atoms: O_2  and  C_3
REMARK    3  A    between atoms: C_3  and  C_4
REMARK    4  A    between atoms: N_13  and  C_14
REMARK    5  A    between atoms: C_14  and  C_15
REMARK    6  A    between atoms: C_19  and  C_20
REMARK                            x       y       z     vdW  Elec       q    Type
REMARK                         _______ _______ _______ _____ _____    ______ ____
ROOT
ATOM      1  C   UNL     1       6.524   4.957  18.671  0.00  0.00    +0.000 C 
ATOM      2  O   UNL     1       7.063   5.438  19.682  0.00  0.00    +0.000 OA
ATOM      3  N   UNL     1       5.148   4.838  18.602  0.00  0.00    +0.000 N 
ATOM      4  C   UNL     1       4.494   3.837  17.771  0.00  0.00    +0.000 C 
ATOM      5  C   UNL     1       3.237   4.404  17.139  0.00  0.00    +0.000 C 
ATOM      6  C   UNL     1       2.296   4.914  18.227  0.00  0.00    +0.000 C 
ATOM      7  C   UNL     1       2.973   5.969  19.132  0.00  0.00    +0.000 C 
ATOM      8  C   UNL     1       1.983   6.379  20.256  0.00  0.00    +0.000 C 
ATOM      9  C   UNL     1       1.614   7.834  19.998  0.00  0.00    +0.000 C 
ATOM     10  N   UNL     1       2.104   8.102  18.680  0.00  0.00    +0.000 N 
ATOM     11  C   UNL     1       3.132   7.256  18.324  0.00  0.00    +0.000 C 
ATOM     12  O   UNL     1       3.941   7.456  17.436  0.00  0.00    +0.000 OA
ATOM     13  C   UNL     1       4.320   5.452  19.655  0.00  0.00    +0.000 C 
ENDROOT
BRANCH   1  14
ATOM     14  C   UNL     1       7.399   4.412  17.504  0.00  0.00    +0.000 C 
BRANCH  14  16
ATOM     15  C   UNL     1       6.956   4.656  15.169  0.00  0.00    +0.000 C 
ATOM     16  O   UNL     1       7.636   5.145  16.316  0.00  0.00    +0.000 OA
ENDBRANCH  14  16
ENDBRANCH   1  14
BRANCH  10  17
ATOM     17  C   UNL     1       1.770   9.308  17.944  0.00  0.00    +0.000 C 
BRANCH  17  18
ATOM     18  C   UNL     1       0.492   9.997  18.353  0.00  0.00    +0.000 A 
ATOM     19  C   UNL     1       0.524  11.025  19.292  0.00  0.00    +0.000 A 
ATOM     20  C   UNL     1      -0.650  11.703  19.589  0.00  0.00    +0.000 A 
ATOM     21  C   UNL     1      -1.825  11.340  18.943  0.00  0.00    +0.000 A 
ATOM     22  C   UNL     1      -1.789  10.297  18.022  0.00  0.00    +0.000 A 
ATOM     23  C   UNL     1      -3.027   9.894  17.280  0.00  0.00    +0.000 C 
ATOM     24  N   UNL     1      -0.653   9.621  17.723  0.00  0.00    +0.000 NA
ENDBRANCH  17  18
ENDBRANCH  10  17
TORSDOF 4
ENDMDL
MODEL 2
REMARK VINA RESULT:      -7.8      0.788      1.554
REMARK  Name = 
REMARK  6 active torsions:
REMARK  status: ('A' for Active; 'I' for Inactive)
REMARK    1  A    between atoms: C_1  and  O_2
REMARK    2  A    between atoms: O_2  and  C_3
REMARK    3  A    between atoms: C_3  and  C_4
REMARK    4  A    between atoms: N_13  and  C_14
REMARK    5  A    between atoms: C_14  and  C_15
REMARK    6  A    between atoms: C_19  and  C_20
REMARK                            x       y       z     vdW  Elec       q    Type
REMARK                         _______ _______ _______ _____ _____    ______ ____
ROOT
ATOM      1  C   UNL     1       6.634   4.921  18.451  0.00  0.00    +0.000 C 
ATOM      2  O   UNL     1       7.209   5.418  19.434  0.00  0.00    +0.000 OA
ATOM      3  N   UNL     1       5.257   4.796  18.437  0.00  0.00    +0.000 N 
ATOM      4  C   UNL     1       4.576   3.781  17.645  0.00  0.00    +0.000 C 
ATOM      5  C   UNL     1       3.293   4.334  17.054  0.00  0.00    +0.000 C 
ATOM      6  C   UNL     1       2.393   4.856  18.170  0.00  0.00    +0.000 C 
ATOM      7  C   UNL     1       3.099   5.927  19.033  0.00  0.00    +0.000 C 
ATOM      8  C   UNL     1       2.151   6.348  20.189  0.00  0.00    +0.000 C 
ATOM      9  C   UNL     1       1.767   7.798  19.924  0.00  0.00    +0.000 C 
ATOM     10  N   UNL     1       2.205   8.049  18.586  0.00  0.00    +0.000 N 
ATOM     11  C   UNL     1       3.222   7.202  18.202  0.00  0.00    +0.000 C 
ATOM     12  O   UNL     1       3.996   7.393  17.281  0.00  0.00    +0.000 OA
ATOM     13  C   UNL     1       4.467   5.421  19.512  0.00  0.00    +0.000 C 
ENDROOT
BRANCH   1  14
ATOM     14  C   UNL     1       7.466   4.363  17.259  0.00  0.00    +0.000 C 
BRANCH  14  16
ATOM     15  C   UNL     1       6.910   4.576  14.946  0.00  0.00    +0.000 C 
ATOM     16  O   UNL     1       7.649   5.077  16.050  0.00  0.00    +0.000 OA
ENDBRANCH  14  16
ENDBRANCH   1  14
BRANCH  10  17
ATOM     17  C   UNL     1       1.838   9.243  17.846  0.00  0.00    +0.000 C 
BRANCH  17  18
ATOM     18  C   UNL     1       0.701  10.051  18.422  0.00  0.00    +0.000 A 
ATOM     19  C   UNL     1      -0.600   9.844  17.970  0.00  0.00    +0.000 A 
ATOM     20  C   UNL     1      -1.641  10.536  18.574  0.00  0.00    +0.000 A 
ATOM     21  C   UNL     1      -1.359  11.414  19.613  0.00  0.00    +0.000 A 
ATOM     22  C   UNL     1      -0.036  11.581  20.010  0.00  0.00    +0.000 A 
ATOM     23  C   UNL     1       0.310  12.494  21.147  0.00  0.00    +0.000 C 
ATOM     24  N   UNL     1       0.994  10.917  19.428  0.00  0.00    +0.000 NA
ENDBRANCH  17  18
ENDBRANCH  10  17
TORSDOF 4
ENDMDL
MODEL 3
REMARK VINA RESULT:      -7.2      1.430      1.660
REMARK  Name = 
REMARK  6 active torsions:
REMARK  status: ('A' for Active; 'I' for Inactive)
REMARK    1  A    between atoms: C_1  and  O_2
REMARK    2  A    between atoms: O_2  and  C_3
REMARK    3  A    between atoms: C_3  and  C_4
REMARK    4  A    between atoms: N_13  and  C_14
REMARK    5  A    between atoms: C_14  and  C_15
REMARK    6  A    between atoms: C_19  and  C_20
REMARK                            x       y       z     vdW  Elec       q    Type
REMARK                         _______ _______ _______ _____ _____    ______ ____
ROOT
ATOM      1  C   UNL     1       6.649   4.961  18.344  0.00  0.00    +0.000 C 
ATOM      2  O   UNL     1       7.250   5.530  19.270  0.00  0.00    +0.000 OA
ATOM      3  N   UNL     1       5.280   4.777  18.407  0.00  0.00    +0.000 N 
ATOM      4  C   UNL     1       4.606   3.696  17.702  0.00  0.00    +0.000 C 
ATOM      5  C   UNL     1       3.272   4.164  17.154  0.00  0.00    +0.000 C 
ATOM      6  C   UNL     1       2.406   4.703  18.289  0.00  0.00    +0.000 C 
ATOM      7  C   UNL     1       3.106   5.844  19.061  0.00  0.00    +0.000 C 
ATOM      8  C   UNL     1       2.200   6.283  20.243  0.00  0.00    +0.000 C 
ATOM      9  C   UNL     1       1.738   7.700  19.930  0.00  0.00    +0.000 C 
ATOM     10  N   UNL     1       2.097   7.902  18.560  0.00  0.00    +0.000 N 
ATOM     11  C   UNL     1       3.130   7.080  18.164  0.00  0.00    +0.000 C 
ATOM     12  O   UNL     1       3.847   7.257  17.196  0.00  0.00    +0.000 OA
ATOM     13  C   UNL     1       4.518   5.422  19.492  0.00  0.00    +0.000 C 
ENDROOT
BRANCH   1  14
ATOM     14  C   UNL     1       7.444   4.379  17.138  0.00  0.00    +0.000 C 
BRANCH  14  16
ATOM     15  C   UNL     1       6.807   4.540  14.842  0.00  0.00    +0.000 C 
ATOM     16  O   UNL     1       7.583   5.066  15.908  0.00  0.00    +0.000 OA
ENDBRANCH  14  16
ENDBRANCH   1  14
BRANCH  10  17
ATOM     17  C   UNL     1       1.640   9.041  17.783  0.00  0.00    +0.000 C 
BRANCH  17  18
ATOM     18  C   UNL     1       1.499  10.339  18.539  0.00  0.00    +0.000 A 
ATOM     19  C   UNL     1       2.293  11.433  18.201  0.00  0.00    +0.000 A 
ATOM     20  C   UNL     1       2.085  12.642  18.851  0.00  0.00    +0.000 A 
ATOM     21  C   UNL     1       1.092  12.731  19.818  0.00  0.00    +0.000 A 
ATOM     22  C   UNL     1       0.341  11.598  20.114  0.00  0.00    +0.000 A 
ATOM     23  C   UNL     1      -0.761  11.658  21.128  0.00  0.00    +0.000 C 
ATOM     24  N   UNL     1       0.533  10.407  19.493  0.00  0.00    +0.000 NA
ENDBRANCH  17  18
ENDBRANCH  10  17
TORSDOF 4
ENDMDL
MODEL 4
REMARK VINA RESULT:      -7.0      1.497      2.105
REMARK  Name = 
REMARK  6 active torsions:
REMARK  status: ('A' for Active; 'I' for Inactive)
REMARK    1  A    between atoms: C_1  and  O_2
REMARK    2  A    between atoms: O_2  and  C_3
REMARK    3  A    between atoms: C_3  and  C_4
REMARK    4  A    between atoms: N_13  and  C_14
REMARK    5  A    between atoms: C_14  and  C_15
REMARK    6  A    between atoms: C_19  and  C_20
REMARK                            x       y       z     vdW  Elec       q    Type
REMARK                         _______ _______ _______ _____ _____    ______ ____
ROOT
ATOM      1  C   UNL     1       6.672   5.139  18.079  0.00  0.00    +0.000 C 
ATOM      2  O   UNL     1       7.325   5.735  18.952  0.00  0.00    +0.000 OA
ATOM      3  N   UNL     1       5.316   4.922  18.248  0.00  0.00    +0.000 N 
ATOM      4  C   UNL     1       4.620   3.814  17.608  0.00  0.00    +0.000 C 
ATOM      5  C   UNL     1       3.236   4.242  17.157  0.00  0.00    +0.000 C 
ATOM      6  C   UNL     1       2.445   4.773  18.348  0.00  0.00    +0.000 C 
ATOM      7  C   UNL     1       3.171   5.942  19.053  0.00  0.00    +0.000 C 
ATOM      8  C   UNL     1       2.345   6.373  20.295  0.00  0.00    +0.000 C 
ATOM      9  C   UNL     1       1.824   7.774  20.002  0.00  0.00    +0.000 C 
ATOM     10  N   UNL     1       2.073   7.967  18.607  0.00  0.00    +0.000 N 
ATOM     11  C   UNL     1       3.095   7.166  18.143  0.00  0.00    +0.000 C 
ATOM     12  O   UNL     1       3.732   7.349  17.121  0.00  0.00    +0.000 OA
ATOM     13  C   UNL     1       4.621   5.561  19.380  0.00  0.00    +0.000 C 
ENDROOT
BRANCH   1  14
ATOM     14  C   UNL     1       7.389   4.562  16.824  0.00  0.00    +0.000 C 
BRANCH  14  16
ATOM     15  C   UNL     1       6.769   4.696  14.520  0.00  0.00    +0.000 C 
ATOM     16  O   UNL     1       7.487   5.271  15.602  0.00  0.00    +0.000 OA
ENDBRANCH  14  16
ENDBRANCH   1  14
BRANCH  10  17
ATOM     17  C   UNL     1       1.530   9.083  17.855  0.00  0.00    +0.000 C 
BRANCH  17  18
ATOM     18  C   UNL     1       1.415  10.388  18.604  0.00  0.00    +0.000 A 
ATOM     19  C   UNL     1       0.600  10.476  19.729  0.00  0.00    +0.000 A 
ATOM     20  C   UNL     1       0.577  11.661  20.453  0.00  0.00    +0.000 A 
ATOM     21  C   UNL     1       1.368  12.725  20.039  0.00  0.00    +0.000 A 
ATOM     22  C   UNL     1       2.153  12.573  18.900  0.00  0.00    +0.000 A 
ATOM     23  C   UNL     1       3.044  13.685  18.435  0.00  0.00    +0.000 C 
ATOM     24  N   UNL     1       2.184  11.426  18.178  0.00  0.00    +0.000 NA
ENDBRANCH  17  18
ENDBRANCH  10  17
TORSDOF 4
ENDMDL
MODEL 5
REMARK VINA RESULT:      -6.9      3.018      8.161
REMARK  Name = 
REMARK  6 active torsions:
REMARK  status: ('A' for Active; 'I' for Inactive)
REMARK    1  A    between atoms: C_1  and  O_2
REMARK    2  A    between atoms: O_2  and  C_3
REMARK    3  A    between atoms: C_3  and  C_4
REMARK    4  A    between atoms: N_13  and  C_14
REMARK    5  A    between atoms: C_14  and  C_15
REMARK    6  A    between atoms: C_19  and  C_20
REMARK                            x       y       z     vdW  Elec       q    Type
REMARK                         _______ _______ _______ _____ _____    ______ ____
ROOT
ATOM      1  C   UNL     1       0.362  12.757  21.316  0.00  0.00    +0.000 C 
ATOM      2  O   UNL     1       1.501  13.223  21.490  0.00  0.00    +0.000 OA
ATOM      3  N   UNL     1       0.098  11.948  20.225  0.00  0.00    +0.000 N 
ATOM      4  C   UNL     1      -1.236  11.827  19.652  0.00  0.00    +0.000 C 
ATOM      5  C   UNL     1      -1.500  10.400  19.209  0.00  0.00    +0.000 C 
ATOM      6  C   UNL     1      -0.431   9.963  18.211  0.00  0.00    +0.000 C 
ATOM      7  C   UNL     1       0.995  10.096  18.793  0.00  0.00    +0.000 C 
ATOM      8  C   UNL     1       2.024   9.709  17.697  0.00  0.00    +0.000 C 
ATOM      9  C   UNL     1       2.691   8.422  18.165  0.00  0.00    +0.000 C 
ATOM     10  N   UNL     1       1.883   7.974  19.258  0.00  0.00    +0.000 N 
ATOM     11  C   UNL     1       1.182   9.005  19.846  0.00  0.00    +0.000 C 
ATOM     12  O   UNL     1       0.697   8.988  20.963  0.00  0.00    +0.000 OA
ATOM     13  C   UNL     1       1.215  11.498  19.376  0.00  0.00    +0.000 C 
ENDROOT
BRANCH   1  14
ATOM     14  C   UNL     1      -0.796  13.142  22.283  0.00  0.00    +0.000 C 
BRANCH  14  16
ATOM     15  C   UNL     1      -1.251  10.953  23.124  0.00  0.00    +0.000 C 
ATOM     16  O   UNL     1      -1.166  12.344  23.393  0.00  0.00    +0.000 OA
ENDBRANCH  14  16
ENDBRANCH   1  14
BRANCH  10  17
ATOM     17  C   UNL     1       2.026   6.661  19.860  0.00  0.00    +0.000 C 
BRANCH  17  18
ATOM     18  C   UNL     1       2.848   5.665  19.079  0.00  0.00    +0.000 A 
ATOM     19  C   UNL     1       2.223   4.780  18.203  0.00  0.00    +0.000 A 
ATOM     20  C   UNL     1       3.006   3.932  17.431  0.00  0.00    +0.000 A 
ATOM     21  C   UNL     1       4.389   3.989  17.550  0.00  0.00    +0.000 A 
ATOM     22  C   UNL     1       4.948   4.890  18.451  0.00  0.00    +0.000 A 
ATOM     23  C   UNL     1       6.436   5.006  18.588  0.00  0.00    +0.000 C 
ATOM     24  N   UNL     1       4.199   5.722  19.216  0.00  0.00    +0.000 NA
ENDBRANCH  17  18
ENDBRANCH  10  17
TORSDOF 4
ENDMDL
MODEL 6
REMARK VINA RESULT:      -6.9      3.251      7.843
REMARK  Name = 
REMARK  6 active torsions:
REMARK  status: ('A' for Active; 'I' for Inactive)
REMARK    1  A    between atoms: C_1  and  O_2
REMARK    2  A    between atoms: O_2  and  C_3
REMARK    3  A    between atoms: C_3  and  C_4
REMARK    4  A    between atoms: N_13  and  C_14
REMARK    5  A    between atoms: C_14  and  C_15
REMARK    6  A    between atoms: C_19  and  C_20
REMARK                            x       y       z     vdW  Elec       q    Type
REMARK                         _______ _______ _______ _____ _____    ______ ____
ROOT
ATOM      1  C   UNL     1      -2.419  10.649  17.567  0.00  0.00    +0.000 C 
ATOM      2  O   UNL     1      -3.309   9.864  17.935  0.00  0.00    +0.000 OA
ATOM      3  N   UNL     1      -1.368  10.959  18.411  0.00  0.00    +0.000 N 
ATOM      4  C   UNL     1      -0.633  12.213  18.312  0.00  0.00    +0.000 C 
ATOM      5  C   UNL     1       0.843  11.990  18.576  0.00  0.00    +0.000 C 
ATOM      6  C   UNL     1       1.033  11.350  19.948  0.00  0.00    +0.000 C 
ATOM      7  C   UNL     1       0.252  10.023  20.082  0.00  0.00    +0.000 C 
ATOM      8  C   UNL     1       0.431   9.477  21.524  0.00  0.00    +0.000 C 
ATOM      9  C   UNL     1       1.242   8.194  21.402  0.00  0.00    +0.000 C 
ATOM     10  N   UNL     1       1.732   8.204  20.058  0.00  0.00    +0.000 N 
ATOM     11  C   UNL     1       0.950   8.971  19.223  0.00  0.00    +0.000 C 
ATOM     12  O   UNL     1       0.924   8.897  18.007  0.00  0.00    +0.000 OA
ATOM     13  C   UNL     1      -1.216  10.214  19.673  0.00  0.00    +0.000 C 
ENDROOT
BRANCH   1  14
ATOM     14  C   UNL     1      -2.521  11.352  16.181  0.00  0.00    +0.000 C 
BRANCH  14  16
ATOM     15  C   UNL     1      -3.235  10.106  14.272  0.00  0.00    +0.000 C 
ATOM     16  O   UNL     1      -3.557  11.077  15.256  0.00  0.00    +0.000 OA
ENDBRANCH  14  16
ENDBRANCH   1  14
BRANCH  10  17
ATOM     17  C   UNL     1       2.740   7.275  19.579  0.00  0.00    +0.000 C 
BRANCH  17  18
ATOM     18  C   UNL     1       2.257   5.879  19.274  0.00  0.00    +0.000 A 
ATOM     19  C   UNL     1       2.192   5.436  17.955  0.00  0.00    +0.000 A 
ATOM     20  C   UNL     1       1.828   4.120  17.703  0.00  0.00    +0.000 A 
ATOM     21  C   UNL     1       1.541   3.279  18.771  0.00  0.00    +0.000 A 
ATOM     22  C   UNL     1       1.616   3.788  20.064  0.00  0.00    +0.000 A 
ATOM     23  C   UNL     1       1.344   2.908  21.246  0.00  0.00    +0.000 C 
ATOM     24  N   UNL     1       1.965   5.072  20.328  0.00  0.00    +0.000 NA
ENDBRANCH  17  18
ENDBRANCH  10  17
TORSDOF 4
ENDMDL
MODEL 7
REMARK VINA RESULT:      -6.6      1.413      1.938
REMARK  Name = 
REMARK  6 active torsions:
REMARK  status: ('A' for Active; 'I' for Inactive)
REMARK    1  A    between atoms: C_1  and  O_2
REMARK    2  A    between atoms: O_2  and  C_3
REMARK    3  A    between atoms: C_3  and  C_4
REMARK    4  A    between atoms: N_13  and  C_14
REMARK    5  A    between atoms: C_14  and  C_15
REMARK    6  A    between atoms: C_19  and  C_20
REMARK                            x       y       z     vdW  Elec       q    Type
REMARK                         _______ _______ _______ _____ _____    ______ ____
ROOT
ATOM      1  C   UNL     1       6.451   4.862  18.756  0.00  0.00    +0.000 C 
ATOM      2  O   UNL     1       6.978   5.218  19.823  0.00  0.00    +0.000 OA
ATOM      3  N   UNL     1       5.081   4.681  18.680  0.00  0.00    +0.000 N 
ATOM      4  C   UNL     1       4.468   3.778  17.715  0.00  0.00    +0.000 C 
ATOM      5  C   UNL     1       3.175   4.363  17.182  0.00  0.00    +0.000 C 
ATOM      6  C   UNL     1       2.225   4.657  18.339  0.00  0.00    +0.000 C 
ATOM      7  C   UNL     1       2.858   5.604  19.384  0.00  0.00    +0.000 C 
ATOM      8  C   UNL     1       1.865   5.791  20.563  0.00  0.00    +0.000 C 
ATOM      9  C   UNL     1       1.417   7.247  20.523  0.00  0.00    +0.000 C 
ATOM     10  N   UNL     1       1.874   7.730  19.256  0.00  0.00    +0.000 N 
ATOM     11  C   UNL     1       2.939   7.001  18.773  0.00  0.00    +0.000 C 
ATOM     12  O   UNL     1       3.724   7.372  17.918  0.00  0.00    +0.000 OA
ATOM     13  C   UNL     1       4.238   5.089  19.817  0.00  0.00    +0.000 C 
ENDROOT
BRANCH   1  14
ATOM     14  C   UNL     1       7.336   4.541  17.516  0.00  0.00    +0.000 C 
BRANCH  14  16
ATOM     15  C   UNL     1       7.320   6.836  16.855  0.00  0.00    +0.000 C 
ATOM     16  O   UNL     1       7.612   5.492  16.504  0.00  0.00    +0.000 OA
ENDBRANCH  14  16
ENDBRANCH   1  14
BRANCH  10  17
ATOM     17  C   UNL     1       1.467   9.011  18.707  0.00  0.00    +0.000 C 
BRANCH  17  18
ATOM     18  C   UNL     1       0.642   9.886  19.617  0.00  0.00    +0.000 A 
ATOM     19  C   UNL     1      -0.084  10.952  19.090  0.00  0.00    +0.000 A 
ATOM     20  C   UNL     1      -0.905  11.689  19.933  0.00  0.00    +0.000 A 
ATOM     21  C   UNL     1      -0.983  11.346  21.276  0.00  0.00    +0.000 A 
ATOM     22  C   UNL     1      -0.224  10.275  21.740  0.00  0.00    +0.000 A 
ATOM     23  C   UNL     1      -0.302   9.851  23.175  0.00  0.00    +0.000 C 
ATOM     24  N   UNL     1       0.586   9.546  20.933  0.00  0.00    +0.000 NA
ENDBRANCH  17  18
ENDBRANCH  10  17
TORSDOF 4
ENDMDL
MODEL 8
REMARK VINA RESULT:      -6.6      2.962      7.908
REMARK  Name = 
REMARK  6 active torsions:
REMARK  status: ('A' for Active; 'I' for Inactive)
REMARK    1  A    between atoms: C_1  and  O_2
REMARK    2  A    between atoms: O_2  and  C_3
REMARK    3  A    between atoms: C_3  and  C_4
REMARK    4  A    between atoms: N_13  and  C_14
REMARK    5  A    between atoms: C_14  and  C_15
REMARK    6  A    between atoms: C_19  and  C_20
REMARK                            x       y       z     vdW  Elec       q    Type
REMARK                         _______ _______ _______ _____ _____    ______ ____
ROOT
ATOM      1  C   UNL     1      -2.421  10.519  17.708  0.00  0.00    +0.000 C 
ATOM      2  O   UNL     1      -3.233   9.630  18.012  0.00  0.00    +0.000 OA
ATOM      3  N   UNL     1      -1.325  10.771  18.515  0.00  0.00    +0.000 N 
ATOM      4  C   UNL     1      -0.673  12.073  18.558  0.00  0.00    +0.000 C 
ATOM      5  C   UNL     1       0.830  11.914  18.682  0.00  0.00    +0.000 C 
ATOM      6  C   UNL     1       1.163  11.091  19.923  0.00  0.00    +0.000 C 
ATOM      7  C   UNL     1       0.471   9.709  19.907  0.00  0.00    +0.000 C 
ATOM      8  C   UNL     1       0.792   8.968  21.232  0.00  0.00    +0.000 C 
ATOM      9  C   UNL     1       1.663   7.775  20.860  0.00  0.00    +0.000 C 
ATOM     10  N   UNL     1       2.045   8.018  19.502  0.00  0.00    +0.000 N 
ATOM     11  C   UNL     1       1.158   8.846  18.850  0.00  0.00    +0.000 C 
ATOM     12  O   UNL     1       1.040   8.951  17.642  0.00  0.00    +0.000 OA
ATOM     13  C   UNL     1      -1.033   9.859  19.634  0.00  0.00    +0.000 C 
ENDROOT
BRANCH   1  14
ATOM     14  C   UNL     1      -2.670  11.411  16.456  0.00  0.00    +0.000 C 
BRANCH  14  16
ATOM     15  C   UNL     1      -3.639  10.185  14.649  0.00  0.00    +0.000 C 
ATOM     16  O   UNL     1      -2.531  10.930  15.131  0.00  0.00    +0.000 OA
ENDBRANCH  14  16
ENDBRANCH   1  14
BRANCH  10  17
ATOM     17  C   UNL     1       3.063   7.241  18.818  0.00  0.00    +0.000 C 
BRANCH  17  18
ATOM     18  C   UNL     1       2.795   5.760  18.702  0.00  0.00    +0.000 A 
ATOM     19  C   UNL     1       1.766   5.300  17.882  0.00  0.00    +0.000 A 
ATOM     20  C   UNL     1       1.594   3.932  17.723  0.00  0.00    +0.000 A 
ATOM     21  C   UNL     1       2.449   3.058  18.382  0.00  0.00    +0.000 A 
ATOM     22  C   UNL     1       3.450   3.585  19.193  0.00  0.00    +0.000 A 
ATOM     23  C   UNL     1       4.414   2.679  19.898  0.00  0.00    +0.000 C 
ATOM     24  N   UNL     1       3.631   4.918  19.364  0.00  0.00    +0.000 NA
ENDBRANCH  17  18
ENDBRANCH  10  17
TORSDOF 4
ENDMDL
MODEL 9
REMARK VINA RESULT:      -6.6      3.131      8.315
REMARK  Name = 
REMARK  6 active torsions:
REMARK  status: ('A' for Active; 'I' for Inactive)
REMARK    1  A    between atoms: C_1  and  O_2
REMARK    2  A    between atoms: O_2  and  C_3
REMARK    3  A    between atoms: C_3  and  C_4
REMARK    4  A    between atoms: N_13  and  C_14
REMARK    5  A    between atoms: C_14  and  C_15
REMARK    6  A    between atoms: C_19  and  C_20
REMARK                            x       y       z     vdW  Elec       q    Type
REMARK                         _______ _______ _______ _____ _____    ______ ____
ROOT
ATOM      1  C   UNL     1       0.437  12.701  21.233  0.00  0.00    +0.000 C 
ATOM      2  O   UNL     1       1.570  13.193  21.369  0.00  0.00    +0.000 OA
ATOM      3  N   UNL     1       0.161  11.868  20.163  0.00  0.00    +0.000 N 
ATOM      4  C   UNL     1      -1.185  11.711  19.628  0.00  0.00    +0.000 C 
ATOM      5  C   UNL     1      -1.431  10.272  19.216  0.00  0.00    +0.000 C 
ATOM      6  C   UNL     1      -0.380   9.838  18.198  0.00  0.00    +0.000 C 
ATOM      7  C   UNL     1       1.058  10.009  18.739  0.00  0.00    +0.000 C 
ATOM      8  C   UNL     1       2.065   9.624  17.622  0.00  0.00    +0.000 C 
ATOM      9  C   UNL     1       2.770   8.359  18.094  0.00  0.00    +0.000 C 
ATOM     10  N   UNL     1       2.000   7.914  19.215  0.00  0.00    +0.000 N 
ATOM     11  C   UNL     1       1.295   8.941  19.804  0.00  0.00    +0.000 C 
ATOM     12  O   UNL     1       0.840   8.934  20.934  0.00  0.00    +0.000 OA
ATOM     13  C   UNL     1       1.264  11.426  19.292  0.00  0.00    +0.000 C 
ENDROOT
BRANCH   1  14
ATOM     14  C   UNL     1      -0.703  13.079  22.223  0.00  0.00    +0.000 C 
BRANCH  14  16
ATOM     15  C   UNL     1      -0.928  15.453  22.366  0.00  0.00    +0.000 C 
ATOM     16  O   UNL     1      -0.656  14.235  23.041  0.00  0.00    +0.000 OA
ENDBRANCH  14  16
ENDBRANCH   1  14
BRANCH  10  17
ATOM     17  C   UNL     1       2.186   6.615  19.835  0.00  0.00    +0.000 C 
BRANCH  17  18
ATOM     18  C   UNL     1       2.829   5.559  18.970  0.00  0.00    +0.000 A 
ATOM     19  C   UNL     1       2.041   4.754  18.151  0.00  0.00    +0.000 A 
ATOM     20  C   UNL     1       2.661   3.849  17.300  0.00  0.00    +0.000 A 
ATOM     21  C   UNL     1       4.048   3.770  17.285  0.00  0.00    +0.000 A 
ATOM     22  C   UNL     1       4.775   4.597  18.136  0.00  0.00    +0.000 A 
ATOM     23  C   UNL     1       6.273   4.567  18.131  0.00  0.00    +0.000 C 
ATOM     24  N   UNL     1       4.186   5.483  18.978  0.00  0.00    +0.000 NA
ENDBRANCH  17  18
ENDBRANCH  10  17
TORSDOF 4
ENDMDL
