MODEL 1
REMARK VINA RESULT:      -6.7      0.000      0.000
REMARK  Name = 
REMARK  6 active torsions:
REMARK  status: ('A' for Active; 'I' for Inactive)
REMARK    1  A    between atoms: C_1  and  N_2
REMARK    2  A    between atoms: N_2  and  C_3
REMARK    3  A    between atoms: N_5  and  C_6
REMARK    4  A    between atoms: N_10  and  C_11
REMARK    5  A    between atoms: N_14  and  C_15
REMARK    6  A    between atoms: C_15  and  C_16
REMARK                            x       y       z     vdW  Elec       q    Type
REMARK                         _______ _______ _______ _____ _____    ______ ____
ROOT
ATOM      1  C   UNL     1       3.264   6.435  18.126  0.00  0.00    +0.000 A 
ATOM      2  C   UNL     1       4.188   6.976  17.329  0.00  0.00    +0.000 A 
ATOM      3  C   UNL     1       4.957   6.139  16.410  0.00  0.00    +0.000 A 
ATOM      4  O   UNL     1       5.587   6.678  15.503  0.00  0.00    +0.000 OA
ATOM      5  N   UNL     1       4.889   4.783  16.628  0.00  0.00    +0.000 N 
ATOM      6  C   UNL     1       5.709   3.905  15.813  0.00  0.00    +0.000 C 
ATOM      7  C   UNL     1       3.920   4.191  17.426  0.00  0.00    +0.000 A 
ATOM      8  O   UNL     1       3.815   2.963  17.490  0.00  0.00    +0.000 OA
ATOM      9  N   UNL     1       3.053   5.060  18.102  0.00  0.00    +0.000 N 
ENDROOT
BRANCH   1  14
ATOM     10  C   UNL     1       1.553  10.773  18.494  0.00  0.00    +0.000 C 
ATOM     11  N   UNL     1       1.327   9.384  18.876  0.00  0.00    +0.000 N 
ATOM     12  C   UNL     1       0.958   9.178  20.276  0.00  0.00    +0.000 C 
ATOM     13  C   UNL     1       2.032   8.386  18.229  0.00  0.00    +0.000 C 
ATOM     14  N   UNL     1       2.430   7.296  18.792  0.00  0.00    +0.000 NA
ENDBRANCH   1  14
BRANCH   9  15
ATOM     15  C   UNL     1       1.850   4.451  18.689  0.00  0.00    +0.000 C 
BRANCH  15  16
ATOM     16  C   UNL     1       1.988   4.271  20.176  0.00  0.00    +0.000 C 
ATOM     17  C   UNL     1       1.171   3.215  20.877  0.00  0.00    +0.000 C 
ATOM     18  C   UNL     1       2.666   3.080  20.799  0.00  0.00    +0.000 C 
ENDBRANCH  15  16
ENDBRANCH   9  15
TORSDOF 3
ENDMDL
MODEL 2
REMARK VINA RESULT:      -6.5      0.993      1.135
REMARK  Name = 
REMARK  6 active torsions:
REMARK  status: ('A' for Active; 'I' for Inactive)
REMARK    1  A    between atoms: C_1  and  N_2
REMARK    2  A    between atoms: N_2  and  C_3
REMARK    3  A    between atoms: N_5  and  C_6
REMARK    4  A    between atoms: N_10  and  C_11
REMARK    5  A    between atoms: N_14  and  C_15
REMARK    6  A    between atoms: C_15  and  C_16
REMARK                            x       y       z     vdW  Elec       q    Type
REMARK                         _______ _______ _______ _____ _____    ______ ____
ROOT
ATOM      1  C   UNL     1       3.526   6.768  18.463  0.00  0.00    +0.000 A 
ATOM      2  C   UNL     1       4.065   7.172  17.310  0.00  0.00    +0.000 A 
ATOM      3  C   UNL     1       5.006   6.316  16.590  0.00  0.00    +0.000 A 
ATOM      4  O   UNL     1       5.265   6.575  15.417  0.00  0.00    +0.000 OA
ATOM      5  N   UNL     1       5.514   5.251  17.296  0.00  0.00    +0.000 N 
ATOM      6  C   UNL     1       6.529   4.423  16.670  0.00  0.00    +0.000 C 
ATOM      7  C   UNL     1       4.956   4.790  18.480  0.00  0.00    +0.000 A 
ATOM      8  O   UNL     1       5.363   3.753  19.012  0.00  0.00    +0.000 OA
ATOM      9  N   UNL     1       3.888   5.535  18.998  0.00  0.00    +0.000 N 
ENDROOT
BRANCH   1  14
ATOM     10  C   UNL     1       1.358  10.911  18.616  0.00  0.00    +0.000 C 
ATOM     11  N   UNL     1       1.194   9.487  18.888  0.00  0.00    +0.000 N 
ATOM     12  C   UNL     1       0.560   9.169  20.166  0.00  0.00    +0.000 C 
ATOM     13  C   UNL     1       2.116   8.594  18.371  0.00  0.00    +0.000 C 
ATOM     14  N   UNL     1       2.490   7.512  18.965  0.00  0.00    +0.000 NA
ENDBRANCH   1  14
BRANCH   9  15
ATOM     15  C   UNL     1       3.102   4.892  20.061  0.00  0.00    +0.000 C 
BRANCH  15  16
ATOM     16  C   UNL     1       1.971   4.075  19.497  0.00  0.00    +0.000 C 
ATOM     17  C   UNL     1       1.903   2.597  19.791  0.00  0.00    +0.000 C 
ATOM     18  C   UNL     1       0.857   3.523  20.344  0.00  0.00    +0.000 C 
ENDBRANCH  15  16
ENDBRANCH   9  15
TORSDOF 3
ENDMDL
MODEL 3
REMARK VINA RESULT:      -6.2      1.627      3.863
REMARK  Name = 
REMARK  6 active torsions:
REMARK  status: ('A' for Active; 'I' for Inactive)
REMARK    1  A    between atoms: C_1  and  N_2
REMARK    2  A    between atoms: N_2  and  C_3
REMARK    3  A    between atoms: N_5  and  C_6
REMARK    4  A    between atoms: N_10  and  C_11
REMARK    5  A    between atoms: N_14  and  C_15
REMARK    6  A    between atoms: C_15  and  C_16
REMARK                            x       y       z     vdW  Elec       q    Type
REMARK                         _______ _______ _______ _____ _____    ______ ____
ROOT
ATOM      1  C   UNL     1       2.712   5.740  18.080  0.00  0.00    +0.000 A 
ATOM      2  C   UNL     1       1.988   4.961  18.889  0.00  0.00    +0.000 A 
ATOM      3  C   UNL     1       2.348   3.558  19.087  0.00  0.00    +0.000 A 
ATOM      4  O   UNL     1       1.854   2.947  20.032  0.00  0.00    +0.000 OA
ATOM      5  N   UNL     1       3.251   3.036  18.192  0.00  0.00    +0.000 N 
ATOM      6  C   UNL     1       3.572   1.622  18.273  0.00  0.00    +0.000 C 
ATOM      7  C   UNL     1       4.038   3.821  17.362  0.00  0.00    +0.000 A 
ATOM      8  O   UNL     1       4.927   3.319  16.668  0.00  0.00    +0.000 OA
ATOM      9  N   UNL     1       3.798   5.201  17.398  0.00  0.00    +0.000 N 
ENDROOT
BRANCH   1  14
ATOM     10  C   UNL     1       0.723   9.320  20.342  0.00  0.00    +0.000 C 
ATOM     11  N   UNL     1       1.713   8.974  19.328  0.00  0.00    +0.000 N 
ATOM     12  C   UNL     1       1.666   9.785  18.113  0.00  0.00    +0.000 C 
ATOM     13  C   UNL     1       2.139   7.662  19.226  0.00  0.00    +0.000 C 
ATOM     14  N   UNL     1       2.458   7.087  18.116  0.00  0.00    +0.000 NA
ENDBRANCH   1  14
BRANCH   9  15
ATOM     15  C   UNL     1       4.818   6.055  16.771  0.00  0.00    +0.000 C 
BRANCH  15  16
ATOM     16  C   UNL     1       5.932   6.381  17.727  0.00  0.00    +0.000 C 
ATOM     17  C   UNL     1       7.309   5.815  17.487  0.00  0.00    +0.000 C 
ATOM     18  C   UNL     1       7.074   7.295  17.375  0.00  0.00    +0.000 C 
ENDBRANCH  15  16
ENDBRANCH   9  15
TORSDOF 3
ENDMDL
MODEL 4
REMARK VINA RESULT:      -6.2      3.583      6.302
REMARK  Name = 
REMARK  6 active torsions:
REMARK  status: ('A' for Active; 'I' for Inactive)
REMARK    1  A    between atoms: C_1  and  N_2
REMARK    2  A    between atoms: N_2  and  C_3
REMARK    3  A    between atoms: N_5  and  C_6
REMARK    4  A    between atoms: N_10  and  C_11
REMARK    5  A    between atoms: N_14  and  C_15
REMARK    6  A    between atoms: C_15  and  C_16
REMARK                            x       y       z     vdW  Elec       q    Type
REMARK                         _______ _______ _______ _____ _____    ______ ____
ROOT
ATOM      1  C   UNL     1       5.444   4.219  16.457  0.00  0.00    +0.000 A 
ATOM      2  C   UNL     1       4.159   3.892  16.299  0.00  0.00    +0.000 A 
ATOM      3  C   UNL     1       3.282   3.746  17.459  0.00  0.00    +0.000 A 
ATOM      4  O   UNL     1       2.065   3.725  17.283  0.00  0.00    +0.000 OA
ATOM      5  N   UNL     1       3.906   3.668  18.681  0.00  0.00    +0.000 N 
ATOM      6  C   UNL     1       3.097   3.422  19.861  0.00  0.00    +0.000 C 
ATOM      7  C   UNL     1       5.230   4.032  18.881  0.00  0.00    +0.000 A 
ATOM      8  O   UNL     1       5.713   4.071  20.016  0.00  0.00    +0.000 OA
ATOM      9  N   UNL     1       5.957   4.393  17.739  0.00  0.00    +0.000 N 
ENDROOT
BRANCH   1  14
ATOM     10  C   UNL     1       6.537   3.181  12.028  0.00  0.00    +0.000 C 
ATOM     11  N   UNL     1       6.539   4.250  13.020  0.00  0.00    +0.000 N 
ATOM     12  C   UNL     1       7.769   5.037  13.083  0.00  0.00    +0.000 C 
ATOM     13  C   UNL     1       5.799   4.093  14.178  0.00  0.00    +0.000 C 
ATOM     14  N   UNL     1       6.147   4.559  15.330  0.00  0.00    +0.000 NA
ENDBRANCH   1  14
BRANCH   9  15
ATOM     15  C   UNL     1       7.242   5.068  17.972  0.00  0.00    +0.000 C 
BRANCH  15  16
ATOM     16  C   UNL     1       7.058   6.541  18.217  0.00  0.00    +0.000 C 
ATOM     17  C   UNL     1       8.254   7.394  18.558  0.00  0.00    +0.000 C 
ATOM     18  C   UNL     1       7.531   7.598  17.256  0.00  0.00    +0.000 C 
ENDBRANCH  15  16
ENDBRANCH   9  15
TORSDOF 3
ENDMDL
MODEL 5
REMARK VINA RESULT:      -6.2      3.122      6.311
REMARK  Name = 
REMARK  6 active torsions:
REMARK  status: ('A' for Active; 'I' for Inactive)
REMARK    1  A    between atoms: C_1  and  N_2
REMARK    2  A    between atoms: N_2  and  C_3
REMARK    3  A    between atoms: N_5  and  C_6
REMARK    4  A    between atoms: N_10  and  C_11
REMARK    5  A    between atoms: N_14  and  C_15
REMARK    6  A    between atoms: C_15  and  C_16
REMARK                            x       y       z     vdW  Elec       q    Type
REMARK                         _______ _______ _______ _____ _____    ______ ____
ROOT
ATOM      1  C   UNL     1       5.329   4.422  16.436  0.00  0.00    +0.000 A 
ATOM      2  C   UNL     1       4.589   3.312  16.509  0.00  0.00    +0.000 A 
ATOM      3  C   UNL     1       3.668   3.107  17.624  0.00  0.00    +0.000 A 
ATOM      4  O   UNL     1       2.808   2.234  17.528  0.00  0.00    +0.000 OA
ATOM      5  N   UNL     1       3.828   3.945  18.701  0.00  0.00    +0.000 N 
ATOM      6  C   UNL     1       3.010   3.726  19.881  0.00  0.00    +0.000 C 
ATOM      7  C   UNL     1       4.564   5.120  18.646  0.00  0.00    +0.000 A 
ATOM      8  O   UNL     1       4.575   5.908  19.596  0.00  0.00    +0.000 OA
ATOM      9  N   UNL     1       5.242   5.375  17.446  0.00  0.00    +0.000 N 
ENDROOT
BRANCH   1  14
ATOM     10  C   UNL     1       6.297   2.965  12.097  0.00  0.00    +0.000 C 
ATOM     11  N   UNL     1       6.321   4.125  12.980  0.00  0.00    +0.000 N 
ATOM     12  C   UNL     1       7.549   4.918  12.930  0.00  0.00    +0.000 C 
ATOM     13  C   UNL     1       5.617   4.078  14.170  0.00  0.00    +0.000 C 
ATOM     14  N   UNL     1       5.997   4.654  15.260  0.00  0.00    +0.000 NA
ENDBRANCH   1  14
BRANCH   9  15
ATOM     15  C   UNL     1       5.757   6.741  17.268  0.00  0.00    +0.000 C 
BRANCH  15  16
ATOM     16  C   UNL     1       7.258   6.782  17.353  0.00  0.00    +0.000 C 
ATOM     17  C   UNL     1       7.938   8.010  17.907  0.00  0.00    +0.000 C 
ATOM     18  C   UNL     1       8.007   6.709  18.656  0.00  0.00    +0.000 C 
ENDBRANCH  15  16
ENDBRANCH   9  15
TORSDOF 3
ENDMDL
MODEL 6
REMARK VINA RESULT:      -6.0      2.339      4.745
REMARK  Name = 
REMARK  6 active torsions:
REMARK  status: ('A' for Active; 'I' for Inactive)
REMARK    1  A    between atoms: C_1  and  N_2
REMARK    2  A    between atoms: N_2  and  C_3
REMARK    3  A    between atoms: N_5  and  C_6
REMARK    4  A    between atoms: N_10  and  C_11
REMARK    5  A    between atoms: N_14  and  C_15
REMARK    6  A    between atoms: C_15  and  C_16
REMARK                            x       y       z     vdW  Elec       q    Type
REMARK                         _______ _______ _______ _____ _____    ______ ____
ROOT
ATOM      1  C   UNL     1       4.482   5.055  18.596  0.00  0.00    +0.000 A 
ATOM      2  C   UNL     1       5.503   4.675  19.368  0.00  0.00    +0.000 A 
ATOM      3  C   UNL     1       6.753   5.433  19.371  0.00  0.00    +0.000 A 
ATOM      4  O   UNL     1       7.561   5.240  20.277  0.00  0.00    +0.000 OA
ATOM      5  N   UNL     1       6.912   6.338  18.349  0.00  0.00    +0.000 N 
ATOM      6  C   UNL     1       8.173   7.049  18.239  0.00  0.00    +0.000 C 
ATOM      7  C   UNL     1       5.863   6.775  17.552  0.00  0.00    +0.000 A 
ATOM      8  O   UNL     1       6.024   7.684  16.733  0.00  0.00    +0.000 OA
ATOM      9  N   UNL     1       4.620   6.164  17.767  0.00  0.00    +0.000 N 
ENDROOT
BRANCH   1  14
ATOM     10  C   UNL     1       1.671   2.809  21.587  0.00  0.00    +0.000 C 
ATOM     11  N   UNL     1       1.702   3.540  20.325  0.00  0.00    +0.000 N 
ATOM     12  C   UNL     1       0.942   2.929  19.236  0.00  0.00    +0.000 C 
ATOM     13  C   UNL     1       2.823   4.284  20.007  0.00  0.00    +0.000 C 
ATOM     14  N   UNL     1       3.274   4.441  18.809  0.00  0.00    +0.000 NA
ENDBRANCH   1  14
BRANCH   9  15
ATOM     15  C   UNL     1       3.457   6.826  17.160  0.00  0.00    +0.000 C 
BRANCH  15  16
ATOM     16  C   UNL     1       3.035   8.037  17.947  0.00  0.00    +0.000 C 
ATOM     17  C   UNL     1       1.643   8.591  17.771  0.00  0.00    +0.000 C 
ATOM     18  C   UNL     1       2.047   7.975  19.081  0.00  0.00    +0.000 C 
ENDBRANCH  15  16
ENDBRANCH   9  15
TORSDOF 3
ENDMDL
MODEL 7
REMARK VINA RESULT:      -6.0      2.484      5.542
REMARK  Name = 
REMARK  6 active torsions:
REMARK  status: ('A' for Active; 'I' for Inactive)
REMARK    1  A    between atoms: C_1  and  N_2
REMARK    2  A    between atoms: N_2  and  C_3
REMARK    3  A    between atoms: N_5  and  C_6
REMARK    4  A    between atoms: N_10  and  C_11
REMARK    5  A    between atoms: N_14  and  C_15
REMARK    6  A    between atoms: C_15  and  C_16
REMARK                            x       y       z     vdW  Elec       q    Type
REMARK                         _______ _______ _______ _____ _____    ______ ____
ROOT
ATOM      1  C   UNL     1       4.226   4.148  18.415  0.00  0.00    +0.000 A 
ATOM      2  C   UNL     1       3.838   2.872  18.352  0.00  0.00    +0.000 A 
ATOM      3  C   UNL     1       2.706   2.400  19.148  0.00  0.00    +0.000 A 
ATOM      4  O   UNL     1       2.197   1.317  18.870  0.00  0.00    +0.000 OA
ATOM      5  N   UNL     1       2.282   3.241  20.149  0.00  0.00    +0.000 N 
ATOM      6  C   UNL     1       1.228   2.787  21.039  0.00  0.00    +0.000 C 
ATOM      7  C   UNL     1       2.643   4.579  20.221  0.00  0.00    +0.000 A 
ATOM      8  O   UNL     1       2.136   5.329  21.061  0.00  0.00    +0.000 OA
ATOM      9  N   UNL     1       3.566   5.028  19.267  0.00  0.00    +0.000 N 
ENDROOT
BRANCH   1  14
ATOM     10  C   UNL     1       5.742   3.925  13.995  0.00  0.00    +0.000 C 
ATOM     11  N   UNL     1       5.800   4.716  15.219  0.00  0.00    +0.000 N 
ATOM     12  C   UNL     1       7.134   5.178  15.596  0.00  0.00    +0.000 C 
ATOM     13  C   UNL     1       4.882   4.466  16.223  0.00  0.00    +0.000 C 
ATOM     14  N   UNL     1       5.139   4.572  17.483  0.00  0.00    +0.000 NA
ENDBRANCH   1  14
BRANCH   9  15
ATOM     15  C   UNL     1       3.713   6.485  19.140  0.00  0.00    +0.000 C 
BRANCH  15  16
ATOM     16  C   UNL     1       2.586   7.089  18.348  0.00  0.00    +0.000 C 
ATOM     17  C   UNL     1       1.854   8.291  18.892  0.00  0.00    +0.000 C 
ATOM     18  C   UNL     1       2.693   8.418  17.651  0.00  0.00    +0.000 C 
ENDBRANCH  15  16
ENDBRANCH   9  15
TORSDOF 3
ENDMDL
MODEL 8
REMARK VINA RESULT:      -5.9      1.860      4.180
REMARK  Name = 
REMARK  6 active torsions:
REMARK  status: ('A' for Active; 'I' for Inactive)
REMARK    1  A    between atoms: C_1  and  N_2
REMARK    2  A    between atoms: N_2  and  C_3
REMARK    3  A    between atoms: N_5  and  C_6
REMARK    4  A    between atoms: N_10  and  C_11
REMARK    5  A    between atoms: N_14  and  C_15
REMARK    6  A    between atoms: C_15  and  C_16
REMARK                            x       y       z     vdW  Elec       q    Type
REMARK                         _______ _______ _______ _____ _____    ______ ____
ROOT
ATOM      1  C   UNL     1       2.764   5.711  19.476  0.00  0.00    +0.000 A 
ATOM      2  C   UNL     1       2.052   5.077  20.412  0.00  0.00    +0.000 A 
ATOM      3  C   UNL     1       2.548   3.837  21.007  0.00  0.00    +0.000 A 
ATOM      4  O   UNL     1       2.030   3.429  22.044  0.00  0.00    +0.000 OA
ATOM      5  N   UNL     1       3.594   3.231  20.353  0.00  0.00    +0.000 N 
ATOM      6  C   UNL     1       4.064   1.945  20.836  0.00  0.00    +0.000 C 
ATOM      7  C   UNL     1       4.369   3.875  19.400  0.00  0.00    +0.000 A 
ATOM      8  O   UNL     1       5.378   3.338  18.933  0.00  0.00    +0.000 OA
ATOM      9  N   UNL     1       3.970   5.170  19.044  0.00  0.00    +0.000 N 
ENDROOT
BRANCH   1  14
ATOM     10  C   UNL     1       0.240   9.489  20.594  0.00  0.00    +0.000 C 
ATOM     11  N   UNL     1       1.324   9.008  19.745  0.00  0.00    +0.000 N 
ATOM     12  C   UNL     1       1.260   9.444  18.351  0.00  0.00    +0.000 C 
ATOM     13  C   UNL     1       1.903   7.784  20.025  0.00  0.00    +0.000 C 
ATOM     14  N   UNL     1       2.355   6.974  19.128  0.00  0.00    +0.000 NA
ENDBRANCH   1  14
BRANCH   9  15
ATOM     15  C   UNL     1       4.946   5.965  18.284  0.00  0.00    +0.000 C 
BRANCH  15  16
ATOM     16  C   UNL     1       4.653   5.940  16.809  0.00  0.00    +0.000 C 
ATOM     17  C   UNL     1       5.794   5.971  15.823  0.00  0.00    +0.000 C 
ATOM     18  C   UNL     1       4.933   4.745  15.938  0.00  0.00    +0.000 C 
ENDBRANCH  15  16
ENDBRANCH   9  15
TORSDOF 3
ENDMDL
MODEL 9
REMARK VINA RESULT:      -5.9      2.277      4.925
REMARK  Name = 
REMARK  6 active torsions:
REMARK  status: ('A' for Active; 'I' for Inactive)
REMARK    1  A    between atoms: C_1  and  N_2
REMARK    2  A    between atoms: N_2  and  C_3
REMARK    3  A    between atoms: N_5  and  C_6
REMARK    4  A    between atoms: N_10  and  C_11
REMARK    5  A    between atoms: N_14  and  C_15
REMARK    6  A    between atoms: C_15  and  C_16
REMARK                            x       y       z     vdW  Elec       q    Type
REMARK                         _______ _______ _______ _____ _____    ______ ____
ROOT
ATOM      1  C   UNL     1       2.736   6.872  18.303  0.00  0.00    +0.000 A 
ATOM      2  C   UNL     1       2.679   8.012  17.610  0.00  0.00    +0.000 A 
ATOM      3  C   UNL     1       2.119   9.220  18.214  0.00  0.00    +0.000 A 
ATOM      4  O   UNL     1       2.331  10.304  17.675  0.00  0.00    +0.000 OA
ATOM      5  N   UNL     1       1.408   9.039  19.376  0.00  0.00    +0.000 N 
ATOM      6  C   UNL     1       0.743  10.185  19.970  0.00  0.00    +0.000 C 
ATOM      7  C   UNL     1       1.473   7.878  20.133  0.00  0.00    +0.000 A 
ATOM      8  O   UNL     1       0.922   7.807  21.235  0.00  0.00    +0.000 OA
ATOM      9  N   UNL     1       2.232   6.828  19.599  0.00  0.00    +0.000 N 
ENDROOT
BRANCH   1  14
ATOM     10  C   UNL     1       6.737   5.527  16.285  0.00  0.00    +0.000 C 
ATOM     11  N   UNL     1       5.553   5.043  16.986  0.00  0.00    +0.000 N 
ATOM     12  C   UNL     1       4.922   3.863  16.398  0.00  0.00    +0.000 C 
ATOM     13  C   UNL     1       4.753   5.950  17.659  0.00  0.00    +0.000 C 
ATOM     14  N   UNL     1       3.472   5.848  17.764  0.00  0.00    +0.000 NA
ENDBRANCH   1  14
BRANCH   9  15
ATOM     15  C   UNL     1       2.560   5.729  20.520  0.00  0.00    +0.000 C 
BRANCH  15  16
ATOM     16  C   UNL     1       1.479   4.683  20.541  0.00  0.00    +0.000 C 
ATOM     17  C   UNL     1       1.681   3.390  19.791  0.00  0.00    +0.000 C 
ATOM     18  C   UNL     1       1.609   3.385  21.292  0.00  0.00    +0.000 C 
ENDBRANCH  15  16
ENDBRANCH   9  15
TORSDOF 3
ENDMDL
