MODEL 1
REMARK VINA RESULT:      -7.3      0.000      0.000
REMARK  Name = 
REMARK  7 active torsions:
REMARK  status: ('A' for Active; 'I' for Inactive)
REMARK    1  A    between atoms: C_1  and  C_2
REMARK    2  A    between atoms: C_2  and  N_3
REMARK    3  A    between atoms: C_7  and  C_8
REMARK    4  A    between atoms: C_8  and  N_9
REMARK    5  A    between atoms: C_10  and  C_12
REMARK    6  A    between atoms: C_19  and  O_20
REMARK    7  A    between atoms: O_20  and  C_21
REMARK                            x       y       z     vdW  Elec       q    Type
REMARK                         _______ _______ _______ _____ _____    ______ ____
ROOT
ATOM      1  N   UNL     1       4.978   4.450  16.662  0.00  0.00    +0.000 N 
ATOM      2  C   UNL     1       3.914   4.063  17.452  0.00  0.00    +0.000 C 
ATOM      3  O   UNL     1       3.479   2.919  17.417  0.00  0.00    +0.000 OA
ATOM      4  H   UNL     1       5.199   5.426  16.511  0.00  0.00    +0.000 HD
ENDROOT
BRANCH   2   5
ATOM      5  C   UNL     1       3.317   5.101  18.352  0.00  0.00    +0.000 A 
ATOM      6  C   UNL     1       3.154   6.407  17.851  0.00  0.00    +0.000 A 
ATOM      7  C   UNL     1       2.534   7.413  18.604  0.00  0.00    +0.000 A 
ATOM      8 CL   UNL     1       2.395   8.972  17.870  0.00  0.00    +0.000 Cl
ATOM      9  C   UNL     1       2.045   7.117  19.874  0.00  0.00    +0.000 A 
ATOM     10  I   UNL     1       1.042   8.511  21.080  0.00  0.00    +0.000 I 
ATOM     11  C   UNL     1       2.189   5.825  20.381  0.00  0.00    +0.000 A 
ATOM     12  C   UNL     1       2.832   4.812  19.640  0.00  0.00    +0.000 A 
BRANCH  12  13
ATOM     13  O   UNL     1       2.800   3.604  20.282  0.00  0.00    +0.000 OA
ATOM     14  C   UNL     1       2.186   3.559  21.564  0.00  0.00    +0.000 C 
ENDBRANCH  12  13
ENDBRANCH   2   5
BRANCH   1  15
ATOM     15  C   UNL     1       5.606   3.505  15.760  0.00  0.00    +0.000 C 
BRANCH  15  20
ATOM     16  N   UNL     1       6.552   4.170  13.481  0.00  0.00    +0.000 N 
ATOM     17  C   UNL     1       7.526   5.038  13.082  0.00  0.00    +0.000 A 
ATOM     18  N   UNL     1       8.074   5.603  14.132  0.00  0.00    +0.000 NA
ATOM     19  N   UNL     1       7.440   5.109  15.243  0.00  0.00    +0.000 NA
ATOM     20  C   UNL     1       6.511   4.254  14.851  0.00  0.00    +0.000 A 
BRANCH  16  22
ATOM     21  C   UNL     1       6.606   2.543  11.627  0.00  0.00    +0.000 C 
ATOM     22  C   UNL     1       5.755   3.363  12.583  0.00  0.00    +0.000 C 
ENDBRANCH  16  22
ENDBRANCH  15  20
ENDBRANCH   1  15
TORSDOF 5
ENDMDL
MODEL 2
REMARK VINA RESULT:      -6.9      1.797      2.557
REMARK  Name = 
REMARK  7 active torsions:
REMARK  status: ('A' for Active; 'I' for Inactive)
REMARK    1  A    between atoms: C_1  and  C_2
REMARK    2  A    between atoms: C_2  and  N_3
REMARK    3  A    between atoms: C_7  and  C_8
REMARK    4  A    between atoms: C_8  and  N_9
REMARK    5  A    between atoms: C_10  and  C_12
REMARK    6  A    between atoms: C_19  and  O_20
REMARK    7  A    between atoms: O_20  and  C_21
REMARK                            x       y       z     vdW  Elec       q    Type
REMARK                         _______ _______ _______ _____ _____    ______ ____
ROOT
ATOM      1  N   UNL     1       5.239   4.363  16.006  0.00  0.00    +0.000 N 
ATOM      2  C   UNL     1       4.386   3.894  16.985  0.00  0.00    +0.000 C 
ATOM      3  O   UNL     1       4.255   2.695  17.194  0.00  0.00    +0.000 OA
ATOM      4  H   UNL     1       5.189   5.316  15.671  0.00  0.00    +0.000 HD
ENDROOT
BRANCH   2   5
ATOM      5  C   UNL     1       3.631   4.915  17.780  0.00  0.00    +0.000 A 
ATOM      6  C   UNL     1       2.739   4.465  18.772  0.00  0.00    +0.000 A 
ATOM      7  C   UNL     1       2.054   5.358  19.608  0.00  0.00    +0.000 A 
ATOM      8 CL   UNL     1       0.991   4.673  20.786  0.00  0.00    +0.000 Cl
ATOM      9  C   UNL     1       2.271   6.728  19.474  0.00  0.00    +0.000 A 
ATOM     10  I   UNL     1       1.361   8.166  20.699  0.00  0.00    +0.000 I 
ATOM     11  C   UNL     1       3.161   7.190  18.503  0.00  0.00    +0.000 A 
ATOM     12  C   UNL     1       3.836   6.300  17.642  0.00  0.00    +0.000 A 
BRANCH  12  13
ATOM     13  O   UNL     1       4.716   6.948  16.818  0.00  0.00    +0.000 OA
ATOM     14  C   UNL     1       6.024   7.195  17.320  0.00  0.00    +0.000 C 
ENDBRANCH  12  13
ENDBRANCH   2   5
BRANCH   1  15
ATOM     15  C   UNL     1       5.998   3.437  15.189  0.00  0.00    +0.000 C 
BRANCH  15  20
ATOM     16  N   UNL     1       6.746   4.005  12.812  0.00  0.00    +0.000 N 
ATOM     17  C   UNL     1       7.564   4.961  12.285  0.00  0.00    +0.000 A 
ATOM     18  N   UNL     1       8.062   5.699  13.248  0.00  0.00    +0.000 NA
ATOM     19  N   UNL     1       7.553   5.230  14.432  0.00  0.00    +0.000 NA
ATOM     20  C   UNL     1       6.747   4.216  14.169  0.00  0.00    +0.000 A 
BRANCH  16  22
ATOM     21  C   UNL     1       4.613   3.415  11.721  0.00  0.00    +0.000 C 
ATOM     22  C   UNL     1       6.044   3.007  12.035  0.00  0.00    +0.000 C 
ENDBRANCH  16  22
ENDBRANCH  15  20
ENDBRANCH   1  15
TORSDOF 5
ENDMDL
MODEL 3
REMARK VINA RESULT:      -6.9      1.705      2.497
REMARK  Name = 
REMARK  7 active torsions:
REMARK  status: ('A' for Active; 'I' for Inactive)
REMARK    1  A    between atoms: C_1  and  C_2
REMARK    2  A    between atoms: C_2  and  N_3
REMARK    3  A    between atoms: C_7  and  C_8
REMARK    4  A    between atoms: C_8  and  N_9
REMARK    5  A    between atoms: C_10  and  C_12
REMARK    6  A    between atoms: C_19  and  O_20
REMARK    7  A    between atoms: O_20  and  C_21
REMARK                            x       y       z     vdW  Elec       q    Type
REMARK                         _______ _______ _______ _____ _____    ______ ____
ROOT
ATOM      1  N   UNL     1       3.846   4.699  17.208  0.00  0.00    +0.000 N 
ATOM      2  C   UNL     1       3.840   4.841  18.581  0.00  0.00    +0.000 C 
ATOM      3  O   UNL     1       4.459   4.071  19.304  0.00  0.00    +0.000 OA
ATOM      4  H   UNL     1       3.172   5.174  16.623  0.00  0.00    +0.000 HD
ENDROOT
BRANCH   2   5
ATOM      5  C   UNL     1       3.045   5.978  19.147  0.00  0.00    +0.000 A 
ATOM      6  C   UNL     1       2.938   7.161  18.392  0.00  0.00    +0.000 A 
ATOM      7  C   UNL     1       2.150   8.240  18.819  0.00  0.00    +0.000 A 
ATOM      8 CL   UNL     1       2.103   9.632  17.795  0.00  0.00    +0.000 Cl
ATOM      9  C   UNL     1       1.435   8.138  20.010  0.00  0.00    +0.000 A 
ATOM     10  I   UNL     1       0.171   9.650  20.730  0.00  0.00    +0.000 I 
ATOM     11  C   UNL     1       1.521   6.968  20.765  0.00  0.00    +0.000 A 
ATOM     12  C   UNL     1       2.330   5.887  20.355  0.00  0.00    +0.000 A 
BRANCH  12  13
ATOM     13  O   UNL     1       2.215   4.811  21.193  0.00  0.00    +0.000 OA
ATOM     14  C   UNL     1       1.270   3.807  20.844  0.00  0.00    +0.000 C 
ENDBRANCH  12  13
ENDBRANCH   2   5
BRANCH   1  15
ATOM     15  C   UNL     1       4.586   3.620  16.585  0.00  0.00    +0.000 C 
BRANCH  15  20
ATOM     16  N   UNL     1       6.910   4.616  16.214  0.00  0.00    +0.000 N 
ATOM     17  C   UNL     1       7.572   5.079  15.114  0.00  0.00    +0.000 A 
ATOM     18  N   UNL     1       6.796   4.993  14.060  0.00  0.00    +0.000 NA
ATOM     19  N   UNL     1       5.604   4.450  14.469  0.00  0.00    +0.000 NA
ATOM     20  C   UNL     1       5.677   4.210  15.767  0.00  0.00    +0.000 A 
BRANCH  16  22
ATOM     21  C   UNL     1       7.501   5.957  18.199  0.00  0.00    +0.000 C 
ATOM     22  C   UNL     1       7.464   4.583  17.550  0.00  0.00    +0.000 C 
ENDBRANCH  16  22
ENDBRANCH  15  20
ENDBRANCH   1  15
TORSDOF 5
ENDMDL
MODEL 4
REMARK VINA RESULT:      -6.7      3.092      4.470
REMARK  Name = 
REMARK  7 active torsions:
REMARK  status: ('A' for Active; 'I' for Inactive)
REMARK    1  A    between atoms: C_1  and  C_2
REMARK    2  A    between atoms: C_2  and  N_3
REMARK    3  A    between atoms: C_7  and  C_8
REMARK    4  A    between atoms: C_8  and  N_9
REMARK    5  A    between atoms: C_10  and  C_12
REMARK    6  A    between atoms: C_19  and  O_20
REMARK    7  A    between atoms: O_20  and  C_21
REMARK                            x       y       z     vdW  Elec       q    Type
REMARK                         _______ _______ _______ _____ _____    ______ ____
ROOT
ATOM      1  N   UNL     1       6.165   4.349  13.594  0.00  0.00    +0.000 N 
ATOM      2  C   UNL     1       6.632   4.947  14.747  0.00  0.00    +0.000 C 
ATOM      3  O   UNL     1       7.799   5.299  14.854  0.00  0.00    +0.000 OA
ATOM      4  H   UNL     1       5.283   3.854  13.572  0.00  0.00    +0.000 HD
ENDROOT
BRANCH   2   5
ATOM      5  C   UNL     1       5.648   5.146  15.860  0.00  0.00    +0.000 A 
ATOM      6  C   UNL     1       4.738   4.110  16.142  0.00  0.00    +0.000 A 
ATOM      7  C   UNL     1       3.838   4.190  17.215  0.00  0.00    +0.000 A 
ATOM      8 CL   UNL     1       2.777   2.847  17.452  0.00  0.00    +0.000 Cl
ATOM      9  C   UNL     1       3.853   5.312  18.040  0.00  0.00    +0.000 A 
ATOM     10  I   UNL     1       2.607   5.530  19.714  0.00  0.00    +0.000 I 
ATOM     11  C   UNL     1       4.757   6.343  17.781  0.00  0.00    +0.000 A 
ATOM     12  C   UNL     1       5.649   6.282  16.690  0.00  0.00    +0.000 A 
BRANCH  12  13
ATOM     13  O   UNL     1       6.499   7.354  16.659  0.00  0.00    +0.000 OA
ATOM     14  C   UNL     1       7.559   7.379  17.607  0.00  0.00    +0.000 C 
ENDBRANCH  12  13
ENDBRANCH   2   5
BRANCH   1  15
ATOM     15  C   UNL     1       7.057   4.115  12.476  0.00  0.00    +0.000 C 
BRANCH  15  20
ATOM     16  N   UNL     1       5.358   2.513  11.436  0.00  0.00    +0.000 N 
ATOM     17  C   UNL     1       5.460   1.293  10.834  0.00  0.00    +0.000 A 
ATOM     18  N   UNL     1       6.711   0.898  10.840  0.00  0.00    +0.000 NA
ATOM     19  N   UNL     1       7.451   1.882  11.445  0.00  0.00    +0.000 NA
ATOM     20  C   UNL     1       6.637   2.864  11.793  0.00  0.00    +0.000 A 
BRANCH  16  22
ATOM     21  C   UNL     1       3.361   3.431  10.315  0.00  0.00    +0.000 C 
ATOM     22  C   UNL     1       4.119   3.236  11.619  0.00  0.00    +0.000 C 
ENDBRANCH  16  22
ENDBRANCH  15  20
ENDBRANCH   1  15
TORSDOF 5
ENDMDL
MODEL 5
REMARK VINA RESULT:      -6.6      1.958      2.682
REMARK  Name = 
REMARK  7 active torsions:
REMARK  status: ('A' for Active; 'I' for Inactive)
REMARK    1  A    between atoms: C_1  and  C_2
REMARK    2  A    between atoms: C_2  and  N_3
REMARK    3  A    between atoms: C_7  and  C_8
REMARK    4  A    between atoms: C_8  and  N_9
REMARK    5  A    between atoms: C_10  and  C_12
REMARK    6  A    between atoms: C_19  and  O_20
REMARK    7  A    between atoms: O_20  and  C_21
REMARK                            x       y       z     vdW  Elec       q    Type
REMARK                         _______ _______ _______ _____ _____    ______ ____
ROOT
ATOM      1  N   UNL     1       3.251   4.909  17.968  0.00  0.00    +0.000 N 
ATOM      2  C   UNL     1       3.332   6.277  17.799  0.00  0.00    +0.000 C 
ATOM      3  O   UNL     1       3.979   6.768  16.882  0.00  0.00    +0.000 OA
ATOM      4  H   UNL     1       2.920   4.501  18.832  0.00  0.00    +0.000 HD
ENDROOT
BRANCH   2   5
ATOM      5  C   UNL     1       2.596   7.133  18.784  0.00  0.00    +0.000 A 
ATOM      6  C   UNL     1       2.187   8.418  18.380  0.00  0.00    +0.000 A 
ATOM      7  C   UNL     1       1.429   9.248  19.218  0.00  0.00    +0.000 A 
ATOM      8 CL   UNL     1       0.989  10.800  18.597  0.00  0.00    +0.000 Cl
ATOM      9  C   UNL     1       1.048   8.789  20.476  0.00  0.00    +0.000 A 
ATOM     10  I   UNL     1      -0.137   9.903  21.802  0.00  0.00    +0.000 I 
ATOM     11  C   UNL     1       1.437   7.513  20.888  0.00  0.00    +0.000 A 
ATOM     12  C   UNL     1       2.220   6.681  20.062  0.00  0.00    +0.000 A 
BRANCH  12  13
ATOM     13  O   UNL     1       2.425   5.448  20.619  0.00  0.00    +0.000 OA
ATOM     14  C   UNL     1       1.318   4.555  20.663  0.00  0.00    +0.000 C 
ENDBRANCH  12  13
ENDBRANCH   2   5
BRANCH   1  15
ATOM     15  C   UNL     1       3.941   4.015  17.061  0.00  0.00    +0.000 C 
BRANCH  15  20
ATOM     16  N   UNL     1       6.334   4.351  16.229  0.00  0.00    +0.000 N 
ATOM     17  C   UNL     1       7.535   4.515  16.855  0.00  0.00    +0.000 A 
ATOM     18  N   UNL     1       7.369   4.454  18.155  0.00  0.00    +0.000 NA
ATOM     19  N   UNL     1       6.032   4.261  18.391  0.00  0.00    +0.000 NA
ATOM     20  C   UNL     1       5.404   4.212  17.229  0.00  0.00    +0.000 A 
BRANCH  16  22
ATOM     21  C   UNL     1       7.329   4.962  14.055  0.00  0.00    +0.000 C 
ATOM     22  C   UNL     1       6.152   4.345  14.793  0.00  0.00    +0.000 C 
ENDBRANCH  16  22
ENDBRANCH  15  20
ENDBRANCH   1  15
TORSDOF 5
ENDMDL
MODEL 6
REMARK VINA RESULT:      -6.6      2.075      2.786
REMARK  Name = 
REMARK  7 active torsions:
REMARK  status: ('A' for Active; 'I' for Inactive)
REMARK    1  A    between atoms: C_1  and  C_2
REMARK    2  A    between atoms: C_2  and  N_3
REMARK    3  A    between atoms: C_7  and  C_8
REMARK    4  A    between atoms: C_8  and  N_9
REMARK    5  A    between atoms: C_10  and  C_12
REMARK    6  A    between atoms: C_19  and  O_20
REMARK    7  A    between atoms: O_20  and  C_21
REMARK                            x       y       z     vdW  Elec       q    Type
REMARK                         _______ _______ _______ _____ _____    ______ ____
ROOT
ATOM      1  N   UNL     1       4.124   7.286  17.288  0.00  0.00    +0.000 N 
ATOM      2  C   UNL     1       3.117   6.595  17.932  0.00  0.00    +0.000 C 
ATOM      3  O   UNL     1       2.828   5.448  17.616  0.00  0.00    +0.000 OA
ATOM      4  H   UNL     1       4.220   8.288  17.378  0.00  0.00    +0.000 HD
ENDROOT
BRANCH   2   5
ATOM      5  C   UNL     1       2.393   7.309  19.033  0.00  0.00    +0.000 A 
ATOM      6  C   UNL     1       1.938   8.620  18.794  0.00  0.00    +0.000 A 
ATOM      7  C   UNL     1       1.188   9.325  19.746  0.00  0.00    +0.000 A 
ATOM      8 CL   UNL     1       0.689  10.925  19.325  0.00  0.00    +0.000 Cl
ATOM      9  C   UNL     1       0.864   8.712  20.954  0.00  0.00    +0.000 A 
ATOM     10  I   UNL     1      -0.303   9.630  22.437  0.00  0.00    +0.000 I 
ATOM     11  C   UNL     1       1.298   7.409  21.202  0.00  0.00    +0.000 A 
ATOM     12  C   UNL     1       2.073   6.702  20.260  0.00  0.00    +0.000 A 
BRANCH  12  13
ATOM     13  O   UNL     1       2.328   5.419  20.663  0.00  0.00    +0.000 OA
ATOM     14  C   UNL     1       1.262   4.481  20.582  0.00  0.00    +0.000 C 
ENDBRANCH  12  13
ENDBRANCH   2   5
BRANCH   1  15
ATOM     15  C   UNL     1       4.865   6.665  16.209  0.00  0.00    +0.000 C 
BRANCH  15  20
ATOM     16  N   UNL     1       6.470   4.698  16.507  0.00  0.00    +0.000 N 
ATOM     17  C   UNL     1       7.591   4.503  17.259  0.00  0.00    +0.000 A 
ATOM     18  N   UNL     1       7.834   5.573  17.979  0.00  0.00    +0.000 NA
ATOM     19  N   UNL     1       6.863   6.496  17.685  0.00  0.00    +0.000 NA
ATOM     20  C   UNL     1       6.047   5.975  16.786  0.00  0.00    +0.000 A 
BRANCH  16  22
ATOM     21  C   UNL     1       6.284   3.966  14.158  0.00  0.00    +0.000 C 
ATOM     22  C   UNL     1       5.903   3.716  15.609  0.00  0.00    +0.000 C 
ENDBRANCH  16  22
ENDBRANCH  15  20
ENDBRANCH   1  15
TORSDOF 5
ENDMDL
MODEL 7
REMARK VINA RESULT:      -6.6      5.066      6.563
REMARK  Name = 
REMARK  7 active torsions:
REMARK  status: ('A' for Active; 'I' for Inactive)
REMARK    1  A    between atoms: C_1  and  C_2
REMARK    2  A    between atoms: C_2  and  N_3
REMARK    3  A    between atoms: C_7  and  C_8
REMARK    4  A    between atoms: C_8  and  N_9
REMARK    5  A    between atoms: C_10  and  C_12
REMARK    6  A    between atoms: C_19  and  O_20
REMARK    7  A    between atoms: O_20  and  C_21
REMARK                            x       y       z     vdW  Elec       q    Type
REMARK                         _______ _______ _______ _____ _____    ______ ____
ROOT
ATOM      1  N   UNL     1       1.983   7.420  19.993  0.00  0.00    +0.000 N 
ATOM      2  C   UNL     1       1.891   8.487  19.122  0.00  0.00    +0.000 C 
ATOM      3  O   UNL     1       2.596   8.557  18.124  0.00  0.00    +0.000 OA
ATOM      4  H   UNL     1       1.582   7.456  20.921  0.00  0.00    +0.000 HD
ENDROOT
BRANCH   2   5
ATOM      5  C   UNL     1       0.891   9.554  19.452  0.00  0.00    +0.000 A 
ATOM      6  C   UNL     1       0.026   9.997  18.434  0.00  0.00    +0.000 A 
ATOM      7  C   UNL     1      -0.985  10.936  18.682  0.00  0.00    +0.000 A 
ATOM      8 CL   UNL     1      -1.980  11.392  17.345  0.00  0.00    +0.000 Cl
ATOM      9  C   UNL     1      -1.157  11.433  19.972  0.00  0.00    +0.000 A 
ATOM     10  I   UNL     1      -2.669  12.793  20.492  0.00  0.00    +0.000 I 
ATOM     11  C   UNL     1      -0.315  10.996  20.995  0.00  0.00    +0.000 A 
ATOM     12  C   UNL     1       0.720  10.070  20.749  0.00  0.00    +0.000 A 
BRANCH  12  13
ATOM     13  O   UNL     1       1.378   9.716  21.896  0.00  0.00    +0.000 OA
ATOM     14  C   UNL     1       0.586   9.366  23.025  0.00  0.00    +0.000 C 
ENDBRANCH  12  13
ENDBRANCH   2   5
BRANCH   1  15
ATOM     15  C   UNL     1       2.930   6.352  19.747  0.00  0.00    +0.000 C 
BRANCH  15  20
ATOM     16  N   UNL     1       1.609   4.164  19.694  0.00  0.00    +0.000 N 
ATOM     17  C   UNL     1       1.081   3.407  18.690  0.00  0.00    +0.000 A 
ATOM     18  N   UNL     1       1.361   3.951  17.529  0.00  0.00    +0.000 NA
ATOM     19  N   UNL     1       2.077   5.096  17.773  0.00  0.00    +0.000 NA
ATOM     20  C   UNL     1       2.215   5.233  19.081  0.00  0.00    +0.000 A 
BRANCH  16  22
ATOM     21  C   UNL     1       2.443   2.726  21.517  0.00  0.00    +0.000 C 
ATOM     22  C   UNL     1       1.505   3.848  21.102  0.00  0.00    +0.000 C 
ENDBRANCH  16  22
ENDBRANCH  15  20
ENDBRANCH   1  15
TORSDOF 5
ENDMDL
MODEL 8
REMARK VINA RESULT:      -6.5      2.920      4.340
REMARK  Name = 
REMARK  7 active torsions:
REMARK  status: ('A' for Active; 'I' for Inactive)
REMARK    1  A    between atoms: C_1  and  C_2
REMARK    2  A    between atoms: C_2  and  N_3
REMARK    3  A    between atoms: C_7  and  C_8
REMARK    4  A    between atoms: C_8  and  N_9
REMARK    5  A    between atoms: C_10  and  C_12
REMARK    6  A    between atoms: C_19  and  O_20
REMARK    7  A    between atoms: O_20  and  C_21
REMARK                            x       y       z     vdW  Elec       q    Type
REMARK                         _______ _______ _______ _____ _____    ______ ____
ROOT
ATOM      1  N   UNL     1       3.661   5.881  19.740  0.00  0.00    +0.000 N 
ATOM      2  C   UNL     1       2.305   5.975  19.979  0.00  0.00    +0.000 C 
ATOM      3  O   UNL     1       1.608   4.975  20.095  0.00  0.00    +0.000 OA
ATOM      4  H   UNL     1       4.199   6.675  19.420  0.00  0.00    +0.000 HD
ENDROOT
BRANCH   2   5
ATOM      5  C   UNL     1       1.724   7.352  20.091  0.00  0.00    +0.000 A 
ATOM      6  C   UNL     1       1.299   7.797  21.357  0.00  0.00    +0.000 A 
ATOM      7  C   UNL     1       0.816   9.098  21.556  0.00  0.00    +0.000 A 
ATOM      8 CL   UNL     1       0.330   9.518  23.161  0.00  0.00    +0.000 Cl
ATOM      9  C   UNL     1       0.771   9.986  20.483  0.00  0.00    +0.000 A 
ATOM     10  I   UNL     1       0.130  11.976  20.657  0.00  0.00    +0.000 I 
ATOM     11  C   UNL     1       1.199   9.563  19.224  0.00  0.00    +0.000 A 
ATOM     12  C   UNL     1       1.664   8.248  19.010  0.00  0.00    +0.000 A 
BRANCH  12  13
ATOM     13  O   UNL     1       2.106   8.062  17.728  0.00  0.00    +0.000 OA
ATOM     14  C   UNL     1       3.504   8.175  17.493  0.00  0.00    +0.000 C 
ENDBRANCH  12  13
ENDBRANCH   2   5
BRANCH   1  15
ATOM     15  C   UNL     1       4.296   4.584  19.612  0.00  0.00    +0.000 C 
BRANCH  15  20
ATOM     16  N   UNL     1       6.055   4.576  17.758  0.00  0.00    +0.000 N 
ATOM     17  C   UNL     1       7.382   4.892  17.717  0.00  0.00    +0.000 A 
ATOM     18  N   UNL     1       7.791   5.243  18.913  0.00  0.00    +0.000 NA
ATOM     19  N   UNL     1       6.712   5.171  19.756  0.00  0.00    +0.000 NA
ATOM     20  C   UNL     1       5.660   4.782  19.057  0.00  0.00    +0.000 A 
BRANCH  16  22
ATOM     21  C   UNL     1       5.420   5.059  15.423  0.00  0.00    +0.000 C 
ATOM     22  C   UNL     1       5.282   4.131  16.619  0.00  0.00    +0.000 C 
ENDBRANCH  16  22
ENDBRANCH  15  20
ENDBRANCH   1  15
TORSDOF 5
ENDMDL
MODEL 9
REMARK VINA RESULT:      -6.5      5.305      8.277
REMARK  Name = 
REMARK  7 active torsions:
REMARK  status: ('A' for Active; 'I' for Inactive)
REMARK    1  A    between atoms: C_1  and  C_2
REMARK    2  A    between atoms: C_2  and  N_3
REMARK    3  A    between atoms: C_7  and  C_8
REMARK    4  A    between atoms: C_8  and  N_9
REMARK    5  A    between atoms: C_10  and  C_12
REMARK    6  A    between atoms: C_19  and  O_20
REMARK    7  A    between atoms: O_20  and  C_21
REMARK                            x       y       z     vdW  Elec       q    Type
REMARK                         _______ _______ _______ _____ _____    ______ ____
ROOT
ATOM      1  N   UNL     1       1.435   8.973  19.157  0.00  0.00    +0.000 N 
ATOM      2  C   UNL     1       1.654   8.086  20.193  0.00  0.00    +0.000 C 
ATOM      3  O   UNL     1       1.482   8.415  21.359  0.00  0.00    +0.000 OA
ATOM      4  H   UNL     1       1.785   8.796  18.225  0.00  0.00    +0.000 HD
ENDROOT
BRANCH   2   5
ATOM      5  C   UNL     1       2.111   6.707  19.826  0.00  0.00    +0.000 A 
ATOM      6  C   UNL     1       1.661   5.624  20.605  0.00  0.00    +0.000 A 
ATOM      7  C   UNL     1       1.982   4.299  20.281  0.00  0.00    +0.000 A 
ATOM      8 CL   UNL     1       1.362   3.064  21.319  0.00  0.00    +0.000 Cl
ATOM      9  C   UNL     1       2.749   4.036  19.148  0.00  0.00    +0.000 A 
ATOM     10  I   UNL     1       3.248   2.099  18.516  0.00  0.00    +0.000 I 
ATOM     11  C   UNL     1       3.195   5.097  18.359  0.00  0.00    +0.000 A 
ATOM     12  C   UNL     1       2.896   6.435  18.691  0.00  0.00    +0.000 A 
BRANCH  12  13
ATOM     13  O   UNL     1       3.358   7.315  17.750  0.00  0.00    +0.000 OA
ATOM     14  C   UNL     1       4.548   6.965  17.053  0.00  0.00    +0.000 C 
ENDBRANCH  12  13
ENDBRANCH   2   5
BRANCH   1  15
ATOM     15  C   UNL     1       1.000  10.328  19.431  0.00  0.00    +0.000 C 
BRANCH  15  20
ATOM     16  N   UNL     1      -0.985  11.739  18.655  0.00  0.00    +0.000 N 
ATOM     17  C   UNL     1      -1.973  11.550  17.733  0.00  0.00    +0.000 A 
ATOM     18  N   UNL     1      -1.839  10.369  17.177  0.00  0.00    +0.000 NA
ATOM     19  N   UNL     1      -0.736   9.773  17.733  0.00  0.00    +0.000 NA
ATOM     20  C   UNL     1      -0.211  10.606  18.615  0.00  0.00    +0.000 A 
BRANCH  16  22
ATOM     21  C   UNL     1      -0.209  14.081  18.706  0.00  0.00    +0.000 C 
ATOM     22  C   UNL     1      -0.840  12.926  19.469  0.00  0.00    +0.000 C 
ENDBRANCH  16  22
ENDBRANCH  15  20
ENDBRANCH   1  15
TORSDOF 5
ENDMDL
