MODEL 1
REMARK VINA RESULT:      -7.7      0.000      0.000
REMARK  Name = 
REMARK  10 active torsions:
REMARK  status: ('A' for Active; 'I' for Inactive)
REMARK    1  A    between atoms: C_1  and  O_2
REMARK    2  A    between atoms: O_2  and  C_3
REMARK    3  A    between atoms: C_5  and  N_6
REMARK    4  A    between atoms: C_7  and  C_9
REMARK    5  A    between atoms: C_9  and  O_10
REMARK    6  A    between atoms: O_10  and  C_11
REMARK    7  A    between atoms: C_21  and  N_22
REMARK    8  A    between atoms: N_22  and  C_23
REMARK    9  A    between atoms: C_23  and  C_24
REMARK   10  A    between atoms: C_24  and  N_25
REMARK                            x       y       z     vdW  Elec       q    Type
REMARK                         _______ _______ _______ _____ _____    ______ ____
ROOT
ATOM      1  C   UNL     1       0.425   8.553  21.152  0.00  0.00    +0.000 A 
ATOM      2  C   UNL     1       1.321   7.466  21.140  0.00  0.00    +0.000 A 
ATOM      3  C   UNL     1       2.189   7.254  20.068  0.00  0.00    +0.000 A 
ATOM      4  C   UNL     1       2.156   8.130  18.985  0.00  0.00    +0.000 A 
ATOM      5 CL   UNL     1       3.201   7.923  17.625  0.00  0.00    +0.000 Cl
ATOM      6  C   UNL     1       1.260   9.211  18.983  0.00  0.00    +0.000 A 
ATOM      7  C   UNL     1       0.386   9.457  20.062  0.00  0.00    +0.000 A 
ENDROOT
BRANCH   3   8
ATOM      8  N   UNL     1       2.936   6.053  20.074  0.00  0.00    +0.000 N 
ATOM      9  C   UNL     1       2.452   4.880  19.505  0.00  0.00    +0.000 C 
ATOM     10  O   UNL     1       1.359   4.790  18.941  0.00  0.00    +0.000 OA
ATOM     11  H   UNL     1       3.709   6.001  20.719  0.00  0.00    +0.000 HD
BRANCH   9  12
ATOM     12  C   UNL     1       3.423   3.703  19.582  0.00  0.00    +0.000 C 
BRANCH  12  13
ATOM     13  O   UNL     1       4.732   4.239  19.374  0.00  0.00    +0.000 OA
BRANCH  13  14
ATOM     14  C   UNL     1       5.189   4.393  18.093  0.00  0.00    +0.000 A 
ATOM     15  C   UNL     1       4.460   4.230  16.916  0.00  0.00    +0.000 A 
ATOM     16  C   UNL     1       5.096   4.382  15.676  0.00  0.00    +0.000 A 
ATOM     17  C   UNL     1       6.455   4.698  15.614  0.00  0.00    +0.000 A 
ATOM     18 CL   UNL     1       7.237   4.856  14.089  0.00  0.00    +0.000 Cl
ATOM     19  C   UNL     1       7.184   4.881  16.782  0.00  0.00    +0.000 A 
ATOM     20  C   UNL     1       6.543   4.727  18.026  0.00  0.00    +0.000 A 
ENDBRANCH  13  14
ENDBRANCH  12  13
ENDBRANCH   9  12
ENDBRANCH   3   8
BRANCH   1  22
ATOM     21  C   UNL     1      -0.083   9.575  23.248  0.00  0.00    +0.000 C 
ATOM     22  O   UNL     1      -0.475   8.728  22.173  0.00  0.00    +0.000 OA
ENDBRANCH   1  22
BRANCH   7  23
ATOM     23  N   UNL     1      -0.550  10.507  19.892  0.00  0.00    +0.000 N 
ATOM     24  H   UNL     1      -1.497  10.178  20.061  0.00  0.00    +0.000 HD
BRANCH  23  25
ATOM     25  C   UNL     1      -0.488  11.318  18.667  0.00  0.00    +0.000 C 
BRANCH  25  26
ATOM     26  C   UNL     1      -1.895  11.867  18.293  0.00  0.00    +0.000 C 
BRANCH  26  27
ATOM     27  N   UNL     1      -2.842  10.810  17.882  0.00  0.00    +0.000 NA
ATOM     28  C   UNL     1      -2.254   9.890  16.895  0.00  0.00    +0.000 C 
ATOM     29  C   UNL     1      -2.669  10.441  15.545  0.00  0.00    +0.000 C 
ATOM     30  C   UNL     1      -4.076  10.929  15.807  0.00  0.00    +0.000 C 
ATOM     31  C   UNL     1      -4.066  11.352  17.269  0.00  0.00    +0.000 C 
ENDBRANCH  26  27
ENDBRANCH  25  26
ENDBRANCH  23  25
ENDBRANCH   7  23
TORSDOF 9
ENDMDL
MODEL 2
REMARK VINA RESULT:      -7.3      4.933      8.241
REMARK  Name = 
REMARK  10 active torsions:
REMARK  status: ('A' for Active; 'I' for Inactive)
REMARK    1  A    between atoms: C_1  and  O_2
REMARK    2  A    between atoms: O_2  and  C_3
REMARK    3  A    between atoms: C_5  and  N_6
REMARK    4  A    between atoms: C_7  and  C_9
REMARK    5  A    between atoms: C_9  and  O_10
REMARK    6  A    between atoms: O_10  and  C_11
REMARK    7  A    between atoms: C_21  and  N_22
REMARK    8  A    between atoms: N_22  and  C_23
REMARK    9  A    between atoms: C_23  and  C_24
REMARK   10  A    between atoms: C_24  and  N_25
REMARK                            x       y       z     vdW  Elec       q    Type
REMARK                         _______ _______ _______ _____ _____    ______ ____
ROOT
ATOM      1  C   UNL     1       3.691   5.685  17.703  0.00  0.00    +0.000 A 
ATOM      2  C   UNL     1       4.639   6.718  17.572  0.00  0.00    +0.000 A 
ATOM      3  C   UNL     1       5.760   6.572  16.753  0.00  0.00    +0.000 A 
ATOM      4  C   UNL     1       5.945   5.375  16.065  0.00  0.00    +0.000 A 
ATOM      5 CL   UNL     1       7.312   5.127  15.037  0.00  0.00    +0.000 Cl
ATOM      6  C   UNL     1       5.010   4.337  16.196  0.00  0.00    +0.000 A 
ATOM      7  C   UNL     1       3.861   4.466  17.003  0.00  0.00    +0.000 A 
ENDROOT
BRANCH   3   8
ATOM      8  N   UNL     1       6.734   7.596  16.808  0.00  0.00    +0.000 N 
ATOM      9  C   UNL     1       7.705   7.639  17.803  0.00  0.00    +0.000 C 
ATOM     10  O   UNL     1       7.810   6.795  18.697  0.00  0.00    +0.000 OA
ATOM     11  H   UNL     1       6.553   8.426  16.266  0.00  0.00    +0.000 HD
BRANCH   9  12
ATOM     12  C   UNL     1       8.686   8.802  17.667  0.00  0.00    +0.000 C 
BRANCH  12  13
ATOM     13  O   UNL     1       8.360   9.735  18.700  0.00  0.00    +0.000 OA
BRANCH  13  14
ATOM     14  C   UNL     1       9.268  10.705  19.027  0.00  0.00    +0.000 A 
ATOM     15  C   UNL     1       9.959  10.838  20.230  0.00  0.00    +0.000 A 
ATOM     16  C   UNL     1      10.826  11.924  20.420  0.00  0.00    +0.000 A 
ATOM     17  C   UNL     1      11.001  12.872  19.410  0.00  0.00    +0.000 A 
ATOM     18 CL   UNL     1      12.044  14.217  19.659  0.00  0.00    +0.000 Cl
ATOM     19  C   UNL     1      10.331  12.736  18.201  0.00  0.00    +0.000 A 
ATOM     20  C   UNL     1       9.460  11.645  18.013  0.00  0.00    +0.000 A 
ENDBRANCH  13  14
ENDBRANCH  12  13
ENDBRANCH   9  12
ENDBRANCH   3   8
BRANCH   1  22
ATOM     21  C   UNL     1       2.186   7.116  18.882  0.00  0.00    +0.000 C 
ATOM     22  O   UNL     1       2.622   5.800  18.558  0.00  0.00    +0.000 OA
ENDBRANCH   1  22
BRANCH   7  23
ATOM     23  N   UNL     1       3.055   3.310  17.148  0.00  0.00    +0.000 N 
ATOM     24  H   UNL     1       2.132   3.554  17.498  0.00  0.00    +0.000 HD
BRANCH  23  25
ATOM     25  C   UNL     1       3.601   2.154  17.874  0.00  0.00    +0.000 C 
BRANCH  25  26
ATOM     26  C   UNL     1       3.867   2.509  19.365  0.00  0.00    +0.000 C 
BRANCH  26  27
ATOM     27  N   UNL     1       2.826   1.999  20.280  0.00  0.00    +0.000 NA
ATOM     28  C   UNL     1       1.487   2.026  19.669  0.00  0.00    +0.000 C 
ATOM     29  C   UNL     1       0.879   3.343  20.110  0.00  0.00    +0.000 C 
ATOM     30  C   UNL     1       1.380   3.478  21.531  0.00  0.00    +0.000 C 
ATOM     31  C   UNL     1       2.733   2.779  21.524  0.00  0.00    +0.000 C 
ENDBRANCH  26  27
ENDBRANCH  25  26
ENDBRANCH  23  25
ENDBRANCH   7  23
TORSDOF 9
ENDMDL
MODEL 3
REMARK VINA RESULT:      -7.3      3.101      9.090
REMARK  Name = 
REMARK  10 active torsions:
REMARK  status: ('A' for Active; 'I' for Inactive)
REMARK    1  A    between atoms: C_1  and  O_2
REMARK    2  A    between atoms: O_2  and  C_3
REMARK    3  A    between atoms: C_5  and  N_6
REMARK    4  A    between atoms: C_7  and  C_9
REMARK    5  A    between atoms: C_9  and  O_10
REMARK    6  A    between atoms: O_10  and  C_11
REMARK    7  A    between atoms: C_21  and  N_22
REMARK    8  A    between atoms: N_22  and  C_23
REMARK    9  A    between atoms: C_23  and  C_24
REMARK   10  A    between atoms: C_24  and  N_25
REMARK                            x       y       z     vdW  Elec       q    Type
REMARK                         _______ _______ _______ _____ _____    ______ ____
ROOT
ATOM      1  C   UNL     1       2.274   4.820  19.801  0.00  0.00    +0.000 A 
ATOM      2  C   UNL     1       1.977   5.843  20.721  0.00  0.00    +0.000 A 
ATOM      3  C   UNL     1       1.858   7.173  20.313  0.00  0.00    +0.000 A 
ATOM      4  C   UNL     1       2.050   7.489  18.970  0.00  0.00    +0.000 A 
ATOM      5 CL   UNL     1       1.920   9.114  18.398  0.00  0.00    +0.000 Cl
ATOM      6  C   UNL     1       2.355   6.477  18.046  0.00  0.00    +0.000 A 
ATOM      7  C   UNL     1       2.463   5.125  18.431  0.00  0.00    +0.000 A 
ENDROOT
BRANCH   3   8
ATOM      8  N   UNL     1       1.715   8.147  21.328  0.00  0.00    +0.000 N 
ATOM      9  C   UNL     1       0.471   8.633  21.716  0.00  0.00    +0.000 C 
ATOM     10  O   UNL     1      -0.597   8.251  21.231  0.00  0.00    +0.000 OA
ATOM     11  H   UNL     1       2.543   8.663  21.582  0.00  0.00    +0.000 HD
BRANCH   9  12
ATOM     12  C   UNL     1       0.527   9.652  22.852  0.00  0.00    +0.000 C 
BRANCH  12  13
ATOM     13  O   UNL     1       0.381  10.942  22.252  0.00  0.00    +0.000 OA
BRANCH  13  14
ATOM     14  C   UNL     1      -0.858  11.522  22.222  0.00  0.00    +0.000 A 
ATOM     15  C   UNL     1      -1.751  11.652  23.285  0.00  0.00    +0.000 A 
ATOM     16  C   UNL     1      -3.008  12.235  23.072  0.00  0.00    +0.000 A 
ATOM     17  C   UNL     1      -3.369  12.688  21.801  0.00  0.00    +0.000 A 
ATOM     18 CL   UNL     1      -4.924  13.377  21.539  0.00  0.00    +0.000 Cl
ATOM     19  C   UNL     1      -2.478  12.579  20.741  0.00  0.00    +0.000 A 
ATOM     20  C   UNL     1      -1.217  11.992  20.958  0.00  0.00    +0.000 A 
ENDBRANCH  13  14
ENDBRANCH  12  13
ENDBRANCH   9  12
ENDBRANCH   3   8
BRANCH   1  22
ATOM     21  C   UNL     1       1.294   2.710  20.339  0.00  0.00    +0.000 C 
ATOM     22  O   UNL     1       2.457   3.522  20.209  0.00  0.00    +0.000 OA
ENDBRANCH   1  22
BRANCH   7  23
ATOM     23  N   UNL     1       2.890   4.214  17.433  0.00  0.00    +0.000 N 
ATOM     24  H   UNL     1       2.742   3.254  17.731  0.00  0.00    +0.000 HD
BRANCH  23  25
ATOM     25  C   UNL     1       4.231   4.380  16.851  0.00  0.00    +0.000 C 
BRANCH  25  26
ATOM     26  C   UNL     1       5.328   4.289  17.950  0.00  0.00    +0.000 C 
BRANCH  26  27
ATOM     27  N   UNL     1       5.675   5.599  18.537  0.00  0.00    +0.000 NA
ATOM     28  C   UNL     1       5.979   6.606  17.506  0.00  0.00    +0.000 C 
ATOM     29  C   UNL     1       7.485   6.560  17.340  0.00  0.00    +0.000 C 
ATOM     30  C   UNL     1       7.966   6.340  18.756  0.00  0.00    +0.000 C 
ATOM     31  C   UNL     1       6.855   5.533  19.414  0.00  0.00    +0.000 C 
ENDBRANCH  26  27
ENDBRANCH  25  26
ENDBRANCH  23  25
ENDBRANCH   7  23
TORSDOF 9
ENDMDL
MODEL 4
REMARK VINA RESULT:      -7.3      3.062      8.931
REMARK  Name = 
REMARK  10 active torsions:
REMARK  status: ('A' for Active; 'I' for Inactive)
REMARK    1  A    between atoms: C_1  and  O_2
REMARK    2  A    between atoms: O_2  and  C_3
REMARK    3  A    between atoms: C_5  and  N_6
REMARK    4  A    between atoms: C_7  and  C_9
REMARK    5  A    between atoms: C_9  and  O_10
REMARK    6  A    between atoms: O_10  and  C_11
REMARK    7  A    between atoms: C_21  and  N_22
REMARK    8  A    between atoms: N_22  and  C_23
REMARK    9  A    between atoms: C_23  and  C_24
REMARK   10  A    between atoms: C_24  and  N_25
REMARK                            x       y       z     vdW  Elec       q    Type
REMARK                         _______ _______ _______ _____ _____    ______ ____
ROOT
ATOM      1  C   UNL     1       1.772   4.458  20.013  0.00  0.00    +0.000 A 
ATOM      2  C   UNL     1       1.658   5.636  20.776  0.00  0.00    +0.000 A 
ATOM      3  C   UNL     1       1.880   6.892  20.208  0.00  0.00    +0.000 A 
ATOM      4  C   UNL     1       2.234   6.973  18.863  0.00  0.00    +0.000 A 
ATOM      5 CL   UNL     1       2.526   8.495  18.097  0.00  0.00    +0.000 Cl
ATOM      6  C   UNL     1       2.359   5.804  18.096  0.00  0.00    +0.000 A 
ATOM      7  C   UNL     1       2.123   4.526  18.643  0.00  0.00    +0.000 A 
ENDROOT
BRANCH   3   8
ATOM      8  N   UNL     1       1.897   8.000  21.085  0.00  0.00    +0.000 N 
ATOM      9  C   UNL     1       0.729   8.551  21.603  0.00  0.00    +0.000 C 
ATOM     10  O   UNL     1      -0.400   8.117  21.361  0.00  0.00    +0.000 OA
ATOM     11  H   UNL     1       2.749   8.538  21.122  0.00  0.00    +0.000 HD
BRANCH   9  12
ATOM     12  C   UNL     1       0.962   9.720  22.559  0.00  0.00    +0.000 C 
BRANCH  12  13
ATOM     13  O   UNL     1       0.630  10.909  21.838  0.00  0.00    +0.000 OA
BRANCH  13  14
ATOM     14  C   UNL     1      -0.612  11.459  22.003  0.00  0.00    +0.000 A 
ATOM     15  C   UNL     1      -1.370  11.486  23.173  0.00  0.00    +0.000 A 
ATOM     16  C   UNL     1      -2.653  12.052  23.160  0.00  0.00    +0.000 A 
ATOM     17  C   UNL     1      -3.173  12.591  21.982  0.00  0.00    +0.000 A 
ATOM     18 CL   UNL     1      -4.759  13.259  21.964  0.00  0.00    +0.000 Cl
ATOM     19  C   UNL     1      -2.417  12.585  20.817  0.00  0.00    +0.000 A 
ATOM     20  C   UNL     1      -1.130  12.015  20.833  0.00  0.00    +0.000 A 
ENDBRANCH  13  14
ENDBRANCH  12  13
ENDBRANCH   9  12
ENDBRANCH   3   8
BRANCH   1  22
ATOM     21  C   UNL     1       2.643   2.778  21.468  0.00  0.00    +0.000 C 
ATOM     22  O   UNL     1       1.619   3.219  20.584  0.00  0.00    +0.000 OA
ENDBRANCH   1  22
BRANCH   7  23
ATOM     23  N   UNL     1       2.395   3.418  17.803  0.00  0.00    +0.000 N 
ATOM     24  H   UNL     1       2.209   2.543  18.286  0.00  0.00    +0.000 HD
BRANCH  23  25
ATOM     25  C   UNL     1       3.686   3.363  17.101  0.00  0.00    +0.000 C 
BRANCH  25  26
ATOM     26  C   UNL     1       4.837   3.874  18.015  0.00  0.00    +0.000 C 
BRANCH  26  27
ATOM     27  N   UNL     1       5.982   4.421  17.258  0.00  0.00    +0.000 NA
ATOM     28  C   UNL     1       5.996   5.894  17.261  0.00  0.00    +0.000 C 
ATOM     29  C   UNL     1       5.280   6.298  15.988  0.00  0.00    +0.000 C 
ATOM     30  C   UNL     1       5.747   5.253  15.000  0.00  0.00    +0.000 C 
ATOM     31  C   UNL     1       5.978   4.008  15.845  0.00  0.00    +0.000 C 
ENDBRANCH  26  27
ENDBRANCH  25  26
ENDBRANCH  23  25
ENDBRANCH   7  23
TORSDOF 9
ENDMDL
MODEL 5
REMARK VINA RESULT:      -7.2      1.225      1.644
REMARK  Name = 
REMARK  10 active torsions:
REMARK  status: ('A' for Active; 'I' for Inactive)
REMARK    1  A    between atoms: C_1  and  O_2
REMARK    2  A    between atoms: O_2  and  C_3
REMARK    3  A    between atoms: C_5  and  N_6
REMARK    4  A    between atoms: C_7  and  C_9
REMARK    5  A    between atoms: C_9  and  O_10
REMARK    6  A    between atoms: O_10  and  C_11
REMARK    7  A    between atoms: C_21  and  N_22
REMARK    8  A    between atoms: N_22  and  C_23
REMARK    9  A    between atoms: C_23  and  C_24
REMARK   10  A    between atoms: C_24  and  N_25
REMARK                            x       y       z     vdW  Elec       q    Type
REMARK                         _______ _______ _______ _____ _____    ______ ____
ROOT
ATOM      1  C   UNL     1       0.500   9.316  20.331  0.00  0.00    +0.000 A 
ATOM      2  C   UNL     1       1.259   8.206  20.747  0.00  0.00    +0.000 A 
ATOM      3  C   UNL     1       2.157   7.577  19.883  0.00  0.00    +0.000 A 
ATOM      4  C   UNL     1       2.290   8.053  18.580  0.00  0.00    +0.000 A 
ATOM      5 CL   UNL     1       3.380   7.320  17.458  0.00  0.00    +0.000 Cl
ATOM      6  C   UNL     1       1.531   9.153  18.153  0.00  0.00    +0.000 A 
ATOM      7  C   UNL     1       0.631   9.817  19.012  0.00  0.00    +0.000 A 
ENDROOT
BRANCH   3   8
ATOM      8  N   UNL     1       2.755   6.379  20.337  0.00  0.00    +0.000 N 
ATOM      9  C   UNL     1       2.063   5.172  20.363  0.00  0.00    +0.000 C 
ATOM     10  O   UNL     1       0.897   5.041  19.983  0.00  0.00    +0.000 OA
ATOM     11  H   UNL     1       3.602   6.469  20.877  0.00  0.00    +0.000 HD
BRANCH   9  12
ATOM     12  C   UNL     1       2.895   3.988  20.853  0.00  0.00    +0.000 C 
BRANCH  12  13
ATOM     13  O   UNL     1       3.117   3.146  19.719  0.00  0.00    +0.000 OA
BRANCH  13  14
ATOM     14  C   UNL     1       3.924   3.595  18.709  0.00  0.00    +0.000 A 
ATOM     15  C   UNL     1       3.639   3.599  17.344  0.00  0.00    +0.000 A 
ATOM     16  C   UNL     1       4.602   4.055  16.432  0.00  0.00    +0.000 A 
ATOM     17  C   UNL     1       5.842   4.508  16.884  0.00  0.00    +0.000 A 
ATOM     18 CL   UNL     1       7.030   5.041  15.759  0.00  0.00    +0.000 Cl
ATOM     19  C   UNL     1       6.127   4.526  18.244  0.00  0.00    +0.000 A 
ATOM     20  C   UNL     1       5.159   4.066  19.157  0.00  0.00    +0.000 A 
ENDBRANCH  13  14
ENDBRANCH  12  13
ENDBRANCH   9  12
ENDBRANCH   3   8
BRANCH   1  22
ATOM     21  C   UNL     1      -0.333   9.612  22.548  0.00  0.00    +0.000 C 
ATOM     22  O   UNL     1      -0.431   9.896  21.157  0.00  0.00    +0.000 OA
ENDBRANCH   1  22
BRANCH   7  23
ATOM     23  N   UNL     1      -0.163  10.837  18.433  0.00  0.00    +0.000 N 
ATOM     24  H   UNL     1      -0.302  11.603  19.088  0.00  0.00    +0.000 HD
BRANCH  23  25
ATOM     25  C   UNL     1      -1.429  10.466  17.785  0.00  0.00    +0.000 C 
BRANCH  25  26
ATOM     26  C   UNL     1      -2.465  11.623  17.886  0.00  0.00    +0.000 C 
BRANCH  26  27
ATOM     27  N   UNL     1      -3.783  11.182  18.388  0.00  0.00    +0.000 NA
ATOM     28  C   UNL     1      -4.732  10.913  17.295  0.00  0.00    +0.000 C 
ATOM     29  C   UNL     1      -5.507  12.204  17.119  0.00  0.00    +0.000 C 
ATOM     30  C   UNL     1      -5.666  12.689  18.543  0.00  0.00    +0.000 C 
ATOM     31  C   UNL     1      -4.422  12.182  19.258  0.00  0.00    +0.000 C 
ENDBRANCH  26  27
ENDBRANCH  25  26
ENDBRANCH  23  25
ENDBRANCH   7  23
TORSDOF 9
ENDMDL
MODEL 6
REMARK VINA RESULT:      -7.2      3.468      9.309
REMARK  Name = 
REMARK  10 active torsions:
REMARK  status: ('A' for Active; 'I' for Inactive)
REMARK    1  A    between atoms: C_1  and  O_2
REMARK    2  A    between atoms: O_2  and  C_3
REMARK    3  A    between atoms: C_5  and  N_6
REMARK    4  A    between atoms: C_7  and  C_9
REMARK    5  A    between atoms: C_9  and  O_10
REMARK    6  A    between atoms: O_10  and  C_11
REMARK    7  A    between atoms: C_21  and  N_22
REMARK    8  A    between atoms: N_22  and  C_23
REMARK    9  A    between atoms: C_23  and  C_24
REMARK   10  A    between atoms: C_24  and  N_25
REMARK                            x       y       z     vdW  Elec       q    Type
REMARK                         _______ _______ _______ _____ _____    ______ ____
ROOT
ATOM      1  C   UNL     1       6.551   5.439  18.001  0.00  0.00    +0.000 A 
ATOM      2  C   UNL     1       5.574   5.680  18.985  0.00  0.00    +0.000 A 
ATOM      3  C   UNL     1       4.319   5.072  18.924  0.00  0.00    +0.000 A 
ATOM      4  C   UNL     1       4.029   4.222  17.859  0.00  0.00    +0.000 A 
ATOM      5 CL   UNL     1       2.494   3.440  17.720  0.00  0.00    +0.000 Cl
ATOM      6  C   UNL     1       4.993   3.983  16.868  0.00  0.00    +0.000 A 
ATOM      7  C   UNL     1       6.274   4.570  16.917  0.00  0.00    +0.000 A 
ENDROOT
BRANCH   3   8
ATOM      8  N   UNL     1       3.353   5.496  19.865  0.00  0.00    +0.000 N 
ATOM      9  C   UNL     1       2.451   6.518  19.589  0.00  0.00    +0.000 C 
ATOM     10  O   UNL     1       2.404   7.121  18.514  0.00  0.00    +0.000 OA
ATOM     11  H   UNL     1       3.499   5.218  20.823  0.00  0.00    +0.000 HD
BRANCH   9  12
ATOM     12  C   UNL     1       1.465   6.803  20.721  0.00  0.00    +0.000 C 
BRANCH  12  13
ATOM     13  O   UNL     1       1.895   8.017  21.342  0.00  0.00    +0.000 OA
BRANCH  13  14
ATOM     14  C   UNL     1       0.976   9.004  21.571  0.00  0.00    +0.000 A 
ATOM     15  C   UNL     1       0.434   9.380  22.800  0.00  0.00    +0.000 A 
ATOM     16  C   UNL     1      -0.538  10.389  22.854  0.00  0.00    +0.000 A 
ATOM     17  C   UNL     1      -0.964  11.021  21.685  0.00  0.00    +0.000 A 
ATOM     18 CL   UNL     1      -2.177  12.239  21.754  0.00  0.00    +0.000 Cl
ATOM     19  C   UNL     1      -0.416  10.667  20.459  0.00  0.00    +0.000 A 
ATOM     20  C   UNL     1       0.559   9.652  20.407  0.00  0.00    +0.000 A 
ENDBRANCH  13  14
ENDBRANCH  12  13
ENDBRANCH   9  12
ENDBRANCH   3   8
BRANCH   1  22
ATOM     21  C   UNL     1       7.749   7.499  17.863  0.00  0.00    +0.000 C 
ATOM     22  O   UNL     1       7.763   6.085  18.022  0.00  0.00    +0.000 OA
ENDBRANCH   1  22
BRANCH   7  23
ATOM     23  N   UNL     1       7.117   4.346  15.801  0.00  0.00    +0.000 N 
ATOM     24  H   UNL     1       8.071   4.636  16.003  0.00  0.00    +0.000 HD
BRANCH  23  25
ATOM     25  C   UNL     1       6.690   4.837  14.482  0.00  0.00    +0.000 C 
BRANCH  25  26
ATOM     26  C   UNL     1       5.794   3.788  13.763  0.00  0.00    +0.000 C 
BRANCH  26  27
ATOM     27  N   UNL     1       5.956   3.792  12.294  0.00  0.00    +0.000 NA
ATOM     28  C   UNL     1       5.043   2.846  11.632  0.00  0.00    +0.000 C 
ATOM     29  C   UNL     1       5.847   1.571  11.469  0.00  0.00    +0.000 C 
ATOM     30  C   UNL     1       7.228   2.091  11.140  0.00  0.00    +0.000 C 
ATOM     31  C   UNL     1       7.317   3.421  11.873  0.00  0.00    +0.000 C 
ENDBRANCH  26  27
ENDBRANCH  25  26
ENDBRANCH  23  25
ENDBRANCH   7  23
TORSDOF 9
ENDMDL
MODEL 7
REMARK VINA RESULT:      -7.2      3.000      9.120
REMARK  Name = 
REMARK  10 active torsions:
REMARK  status: ('A' for Active; 'I' for Inactive)
REMARK    1  A    between atoms: C_1  and  O_2
REMARK    2  A    between atoms: O_2  and  C_3
REMARK    3  A    between atoms: C_5  and  N_6
REMARK    4  A    between atoms: C_7  and  C_9
REMARK    5  A    between atoms: C_9  and  O_10
REMARK    6  A    between atoms: O_10  and  C_11
REMARK    7  A    between atoms: C_21  and  N_22
REMARK    8  A    between atoms: N_22  and  C_23
REMARK    9  A    between atoms: C_23  and  C_24
REMARK   10  A    between atoms: C_24  and  N_25
REMARK                            x       y       z     vdW  Elec       q    Type
REMARK                         _______ _______ _______ _____ _____    ______ ____
ROOT
ATOM      1  C   UNL     1       2.401   4.700  19.741  0.00  0.00    +0.000 A 
ATOM      2  C   UNL     1       2.106   5.769  20.609  0.00  0.00    +0.000 A 
ATOM      3  C   UNL     1       2.033   7.083  20.141  0.00  0.00    +0.000 A 
ATOM      4  C   UNL     1       2.269   7.336  18.792  0.00  0.00    +0.000 A 
ATOM      5 CL   UNL     1       2.197   8.937  18.148  0.00  0.00    +0.000 Cl
ATOM      6  C   UNL     1       2.572   6.278  17.921  0.00  0.00    +0.000 A 
ATOM      7  C   UNL     1       2.635   4.941  18.365  0.00  0.00    +0.000 A 
ENDROOT
BRANCH   3   8
ATOM      8  N   UNL     1       1.889   8.103  21.109  0.00  0.00    +0.000 N 
ATOM      9  C   UNL     1       0.642   8.516  21.567  0.00  0.00    +0.000 C 
ATOM     10  O   UNL     1      -0.425   8.027  21.189  0.00  0.00    +0.000 OA
ATOM     11  H   UNL     1       2.689   8.695  21.269  0.00  0.00    +0.000 HD
BRANCH   9  12
ATOM     12  C   UNL     1       0.701   9.604  22.638  0.00  0.00    +0.000 C 
BRANCH  12  13
ATOM     13  O   UNL     1       0.568  10.855  21.958  0.00  0.00    +0.000 OA
BRANCH  13  14
ATOM     14  C   UNL     1      -0.671  11.427  21.861  0.00  0.00    +0.000 A 
ATOM     15  C   UNL     1      -1.274  11.932  20.710  0.00  0.00    +0.000 A 
ATOM     16  C   UNL     1      -2.539  12.532  20.792  0.00  0.00    +0.000 A 
ATOM     17  C   UNL     1      -3.198  12.624  22.019  0.00  0.00    +0.000 A 
ATOM     18 CL   UNL     1      -4.737  13.386  22.119  0.00  0.00    +0.000 Cl
ATOM     19  C   UNL     1      -2.612  12.107  23.167  0.00  0.00    +0.000 A 
ATOM     20  C   UNL     1      -1.341  11.506  23.082  0.00  0.00    +0.000 A 
ENDBRANCH  13  14
ENDBRANCH  12  13
ENDBRANCH   9  12
ENDBRANCH   3   8
BRANCH   1  22
ATOM     21  C   UNL     1       1.364   2.613  20.259  0.00  0.00    +0.000 C 
ATOM     22  O   UNL     1       2.538   3.417  20.209  0.00  0.00    +0.000 OA
ENDBRANCH   1  22
BRANCH   7  23
ATOM     23  N   UNL     1       3.064   3.978  17.419  0.00  0.00    +0.000 N 
ATOM     24  H   UNL     1       2.448   3.169  17.420  0.00  0.00    +0.000 HD
BRANCH  23  25
ATOM     25  C   UNL     1       4.474   3.561  17.425  0.00  0.00    +0.000 C 
BRANCH  25  26
ATOM     26  C   UNL     1       5.238   4.166  16.212  0.00  0.00    +0.000 C 
BRANCH  26  27
ATOM     27  N   UNL     1       6.628   4.548  16.531  0.00  0.00    +0.000 NA
ATOM     28  C   UNL     1       6.905   4.483  17.976  0.00  0.00    +0.000 C 
ATOM     29  C   UNL     1       6.663   5.889  18.488  0.00  0.00    +0.000 C 
ATOM     30  C   UNL     1       7.197   6.746  17.362  0.00  0.00    +0.000 C 
ATOM     31  C   UNL     1       6.951   5.920  16.107  0.00  0.00    +0.000 C 
ENDBRANCH  26  27
ENDBRANCH  25  26
ENDBRANCH  23  25
ENDBRANCH   7  23
TORSDOF 9
ENDMDL
MODEL 8
REMARK VINA RESULT:      -7.1      3.096      9.042
REMARK  Name = 
REMARK  10 active torsions:
REMARK  status: ('A' for Active; 'I' for Inactive)
REMARK    1  A    between atoms: C_1  and  O_2
REMARK    2  A    between atoms: O_2  and  C_3
REMARK    3  A    between atoms: C_5  and  N_6
REMARK    4  A    between atoms: C_7  and  C_9
REMARK    5  A    between atoms: C_9  and  O_10
REMARK    6  A    between atoms: O_10  and  C_11
REMARK    7  A    between atoms: C_21  and  N_22
REMARK    8  A    between atoms: N_22  and  C_23
REMARK    9  A    between atoms: C_23  and  C_24
REMARK   10  A    between atoms: C_24  and  N_25
REMARK                            x       y       z     vdW  Elec       q    Type
REMARK                         _______ _______ _______ _____ _____    ______ ____
ROOT
ATOM      1  C   UNL     1       2.331   4.686  19.812  0.00  0.00    +0.000 A 
ATOM      2  C   UNL     1       2.010   5.700  20.735  0.00  0.00    +0.000 A 
ATOM      3  C   UNL     1       1.898   7.034  20.337  0.00  0.00    +0.000 A 
ATOM      4  C   UNL     1       2.124   7.363  19.002  0.00  0.00    +0.000 A 
ATOM      5 CL   UNL     1       2.006   8.994  18.443  0.00  0.00    +0.000 Cl
ATOM      6  C   UNL     1       2.453   6.361  18.076  0.00  0.00    +0.000 A 
ATOM      7  C   UNL     1       2.554   5.005  18.450  0.00  0.00    +0.000 A 
ENDROOT
BRANCH   3   8
ATOM      8  N   UNL     1       1.730   7.997  21.357  0.00  0.00    +0.000 N 
ATOM      9  C   UNL     1       0.474   8.468  21.729  0.00  0.00    +0.000 C 
ATOM     10  O   UNL     1      -0.582   8.080  21.222  0.00  0.00    +0.000 OA
ATOM     11  H   UNL     1       2.548   8.520  21.630  0.00  0.00    +0.000 HD
BRANCH   9  12
ATOM     12  C   UNL     1       0.501   9.478  22.874  0.00  0.00    +0.000 C 
BRANCH  12  13
ATOM     13  O   UNL     1       0.517  10.776  22.275  0.00  0.00    +0.000 OA
BRANCH  13  14
ATOM     14  C   UNL     1      -0.672  11.408  22.032  0.00  0.00    +0.000 A 
ATOM     15  C   UNL     1      -1.090  11.977  20.830  0.00  0.00    +0.000 A 
ATOM     16  C   UNL     1      -2.328  12.632  20.762  0.00  0.00    +0.000 A 
ATOM     17  C   UNL     1      -3.145  12.714  21.891  0.00  0.00    +0.000 A 
ATOM     18 CL   UNL     1      -4.651  13.542  21.810  0.00  0.00    +0.000 Cl
ATOM     19  C   UNL     1      -2.745  12.132  23.087  0.00  0.00    +0.000 A 
ATOM     20  C   UNL     1      -1.500  11.476  23.153  0.00  0.00    +0.000 A 
ENDBRANCH  13  14
ENDBRANCH  12  13
ENDBRANCH   9  12
ENDBRANCH   3   8
BRANCH   1  22
ATOM     21  C   UNL     1       3.843   2.926  20.372  0.00  0.00    +0.000 C 
ATOM     22  O   UNL     1       2.505   3.385  20.212  0.00  0.00    +0.000 OA
ENDBRANCH   1  22
BRANCH   7  23
ATOM     23  N   UNL     1       3.007   4.105  17.454  0.00  0.00    +0.000 N 
ATOM     24  H   UNL     1       3.136   3.173  17.840  0.00  0.00    +0.000 HD
BRANCH  23  25
ATOM     25  C   UNL     1       4.156   4.491  16.622  0.00  0.00    +0.000 C 
BRANCH  25  26
ATOM     26  C   UNL     1       5.479   4.430  17.439  0.00  0.00    +0.000 C 
BRANCH  26  27
ATOM     27  N   UNL     1       5.718   5.641  18.251  0.00  0.00    +0.000 NA
ATOM     28  C   UNL     1       6.036   6.814  17.419  0.00  0.00    +0.000 C 
ATOM     29  C   UNL     1       7.550   6.856  17.359  0.00  0.00    +0.000 C 
ATOM     30  C   UNL     1       7.947   6.429  18.754  0.00  0.00    +0.000 C 
ATOM     31  C   UNL     1       6.839   5.482  19.191  0.00  0.00    +0.000 C 
ENDBRANCH  26  27
ENDBRANCH  25  26
ENDBRANCH  23  25
ENDBRANCH   7  23
TORSDOF 9
ENDMDL
MODEL 9
REMARK VINA RESULT:      -7.1      3.407      9.254
REMARK  Name = 
REMARK  10 active torsions:
REMARK  status: ('A' for Active; 'I' for Inactive)
REMARK    1  A    between atoms: C_1  and  O_2
REMARK    2  A    between atoms: O_2  and  C_3
REMARK    3  A    between atoms: C_5  and  N_6
REMARK    4  A    between atoms: C_7  and  C_9
REMARK    5  A    between atoms: C_9  and  O_10
REMARK    6  A    between atoms: O_10  and  C_11
REMARK    7  A    between atoms: C_21  and  N_22
REMARK    8  A    between atoms: N_22  and  C_23
REMARK    9  A    between atoms: C_23  and  C_24
REMARK   10  A    between atoms: C_24  and  N_25
REMARK                            x       y       z     vdW  Elec       q    Type
REMARK                         _______ _______ _______ _____ _____    ______ ____
ROOT
ATOM      1  C   UNL     1       5.925   4.725  18.050  0.00  0.00    +0.000 A 
ATOM      2  C   UNL     1       5.089   5.442  18.928  0.00  0.00    +0.000 A 
ATOM      3  C   UNL     1       3.703   5.448  18.766  0.00  0.00    +0.000 A 
ATOM      4  C   UNL     1       3.142   4.740  17.705  0.00  0.00    +0.000 A 
ATOM      5 CL   UNL     1       1.434   4.708  17.444  0.00  0.00    +0.000 Cl
ATOM      6  C   UNL     1       3.967   4.030  16.819  0.00  0.00    +0.000 A 
ATOM      7  C   UNL     1       5.368   3.994  16.972  0.00  0.00    +0.000 A 
ENDROOT
BRANCH   3   8
ATOM      8  N   UNL     1       2.962   6.320  19.596  0.00  0.00    +0.000 N 
ATOM      9  C   UNL     1       2.048   5.849  20.532  0.00  0.00    +0.000 C 
ATOM     10  O   UNL     1       1.820   4.652  20.728  0.00  0.00    +0.000 OA
ATOM     11  H   UNL     1       2.923   7.289  19.319  0.00  0.00    +0.000 HD
BRANCH   9  12
ATOM     12  C   UNL     1       1.376   6.947  21.355  0.00  0.00    +0.000 C 
BRANCH  12  13
ATOM     13  O   UNL     1       1.267   8.089  20.502  0.00  0.00    +0.000 OA
BRANCH  13  14
ATOM     14  C   UNL     1       0.662   9.219  20.982  0.00  0.00    +0.000 A 
ATOM     15  C   UNL     1       0.601  10.466  20.362  0.00  0.00    +0.000 A 
ATOM     16  C   UNL     1      -0.023  11.539  21.015  0.00  0.00    +0.000 A 
ATOM     17  C   UNL     1      -0.585  11.363  22.281  0.00  0.00    +0.000 A 
ATOM     18 CL   UNL     1      -1.324  12.690  23.090  0.00  0.00    +0.000 Cl
ATOM     19  C   UNL     1      -0.546  10.119  22.897  0.00  0.00    +0.000 A 
ATOM     20  C   UNL     1       0.082   9.043  22.239  0.00  0.00    +0.000 A 
ENDBRANCH  13  14
ENDBRANCH  12  13
ENDBRANCH   9  12
ENDBRANCH   3   8
BRANCH   1  22
ATOM     21  C   UNL     1       7.842   5.795  18.988  0.00  0.00    +0.000 C 
ATOM     22  O   UNL     1       7.292   4.770  18.168  0.00  0.00    +0.000 OA
ENDBRANCH   1  22
BRANCH   7  23
ATOM     23  N   UNL     1       6.101   3.342  15.950  0.00  0.00    +0.000 N 
ATOM     24  H   UNL     1       6.980   2.979  16.309  0.00  0.00    +0.000 HD
BRANCH  23  25
ATOM     25  C   UNL     1       6.307   4.040  14.672  0.00  0.00    +0.000 C 
BRANCH  25  26
ATOM     26  C   UNL     1       5.162   3.714  13.670  0.00  0.00    +0.000 C 
BRANCH  26  27
ATOM     27  N   UNL     1       5.586   3.790  12.257  0.00  0.00    +0.000 NA
ATOM     28  C   UNL     1       4.890   2.803  11.415  0.00  0.00    +0.000 C 
ATOM     29  C   UNL     1       5.813   1.601  11.370  0.00  0.00    +0.000 C 
ATOM     30  C   UNL     1       7.183   2.239  11.312  0.00  0.00    +0.000 C 
ATOM     31  C   UNL     1       7.027   3.543  12.083  0.00  0.00    +0.000 C 
ENDBRANCH  26  27
ENDBRANCH  25  26
ENDBRANCH  23  25
ENDBRANCH   7  23
TORSDOF 9
ENDMDL
