MODEL 1
REMARK VINA RESULT:      -7.8      0.000      0.000
REMARK  Name = 
REMARK  3 active torsions:
REMARK  status: ('A' for Active; 'I' for Inactive)
REMARK    1  A    between atoms: C_2  and  C_3
REMARK    2  A    between atoms: N_11  and  S_12
REMARK    3  A    between atoms: S_12  and  C_15
REMARK                            x       y       z     vdW  Elec       q    Type
REMARK                         _______ _______ _______ _____ _____    ______ ____
ROOT
ATOM      1  O   UNL     1       1.721   9.134  19.251  0.00  0.00    +0.000 OA
ATOM      2  C   UNL     1       1.702   8.224  20.081  0.00  0.00    +0.000 C 
ATOM      3  N   UNL     1       2.148   6.944  19.760  0.00  0.00    +0.000 N 
ATOM      4  C   UNL     1       2.185   5.825  20.707  0.00  0.00    +0.000 C 
ATOM      5  C   UNL     1       1.812   4.511  20.022  0.00  0.00    +0.000 C 
ATOM      6  N   UNL     1       2.654   4.246  18.824  0.00  0.00    +0.000 NA
ATOM      7  C   UNL     1       2.501   5.377  17.847  0.00  0.00    +0.000 C 
ATOM      8  C   UNL     1       2.859   6.731  18.487  0.00  0.00    +0.000 C 
ENDROOT
BRANCH   2   9
ATOM      9  C   UNL     1       1.095   8.433  21.488  0.00  0.00    +0.000 C 
ATOM     10  C   UNL     1      -0.427   8.374  21.489  0.00  0.00    +0.000 C 
ATOM     11  C   UNL     1      -0.780   9.210  22.691  0.00  0.00    +0.000 C 
ATOM     12  C   UNL     1       0.267  10.297  22.626  0.00  0.00    +0.000 C 
ATOM     13  O   UNL     1       1.449   9.691  22.090  0.00  0.00    +0.000 OA
ENDBRANCH   2   9
BRANCH   6  14
ATOM     14  S   UNL     1       4.258   3.729  19.090  0.00  0.00    +0.000 S 
ATOM     15  O   UNL     1       4.814   4.475  20.198  0.00  0.00    +0.000 OA
ATOM     16  O   UNL     1       4.248   2.283  19.134  0.00  0.00    +0.000 OA
BRANCH  14  17
ATOM     17  C   UNL     1       5.110   4.187  17.625  0.00  0.00    +0.000 A 
ATOM     18  C   UNL     1       4.710   3.662  16.372  0.00  0.00    +0.000 A 
ATOM     19  C   UNL     1       5.264   4.091  15.143  0.00  0.00    +0.000 A 
ATOM     20  C   UNL     1       6.253   5.084  15.060  0.00  0.00    +0.000 A 
ATOM     21  C   UNL     1       6.676   5.653  16.284  0.00  0.00    +0.000 A 
ATOM     22  N   UNL     1       7.578   6.641  16.411  0.00  0.00    +0.000 NA
ATOM     23  S   UNL     1       7.694   6.964  18.035  0.00  0.00    +0.000 S 
ATOM     24  N   UNL     1       6.606   5.874  18.645  0.00  0.00    +0.000 NA
ATOM     25  C   UNL     1       6.099   5.192  17.605  0.00  0.00    +0.000 A 
ENDBRANCH  14  17
ENDBRANCH   6  14
TORSDOF 3
ENDMDL
MODEL 2
REMARK VINA RESULT:      -7.7      1.506      1.917
REMARK  Name = 
REMARK  3 active torsions:
REMARK  status: ('A' for Active; 'I' for Inactive)
REMARK    1  A    between atoms: C_2  and  C_3
REMARK    2  A    between atoms: N_11  and  S_12
REMARK    3  A    between atoms: S_12  and  C_15
REMARK                            x       y       z     vdW  Elec       q    Type
REMARK                         _______ _______ _______ _____ _____    ______ ____
ROOT
ATOM      1  O   UNL     1       2.118   8.779  19.342  0.00  0.00    +0.000 OA
ATOM      2  C   UNL     1       1.881   7.802  20.053  0.00  0.00    +0.000 C 
ATOM      3  N   UNL     1       2.197   6.512  19.635  0.00  0.00    +0.000 N 
ATOM      4  C   UNL     1       1.974   5.308  20.443  0.00  0.00    +0.000 C 
ATOM      5  C   UNL     1       1.524   4.135  19.573  0.00  0.00    +0.000 C 
ATOM      6  N   UNL     1       2.466   3.877  18.450  0.00  0.00    +0.000 NA
ATOM      7  C   UNL     1       2.581   5.112  17.602  0.00  0.00    +0.000 C 
ATOM      8  C   UNL     1       3.026   6.331  18.430  0.00  0.00    +0.000 C 
ENDROOT
BRANCH   2   9
ATOM      9  C   UNL     1       1.137   7.950  21.400  0.00  0.00    +0.000 C 
ATOM     10  C   UNL     1      -0.324   8.346  21.227  0.00  0.00    +0.000 C 
ATOM     11  C   UNL     1      -0.624   9.043  22.528  0.00  0.00    +0.000 C 
ATOM     12  C   UNL     1       0.675   9.766  22.795  0.00  0.00    +0.000 C 
ATOM     13  O   UNL     1       1.718   8.932  22.278  0.00  0.00    +0.000 OA
ENDBRANCH   2   9
BRANCH   6  14
ATOM     14  S   UNL     1       3.947   3.116  18.826  0.00  0.00    +0.000 S 
ATOM     15  O   UNL     1       4.033   2.939  20.260  0.00  0.00    +0.000 OA
ATOM     16  O   UNL     1       4.080   1.969  17.955  0.00  0.00    +0.000 OA
BRANCH  14  17
ATOM     17  C   UNL     1       5.168   4.276  18.333  0.00  0.00    +0.000 A 
ATOM     18  C   UNL     1       5.835   5.066  19.302  0.00  0.00    +0.000 A 
ATOM     19  C   UNL     1       6.919   5.919  18.988  0.00  0.00    +0.000 A 
ATOM     20  C   UNL     1       7.435   6.048  17.689  0.00  0.00    +0.000 A 
ATOM     21  C   UNL     1       6.814   5.266  16.686  0.00  0.00    +0.000 A 
ATOM     22  N   UNL     1       7.186   5.218  15.396  0.00  0.00    +0.000 NA
ATOM     23  S   UNL     1       6.168   4.138  14.654  0.00  0.00    +0.000 S 
ATOM     24  N   UNL     1       5.217   3.682  15.932  0.00  0.00    +0.000 NA
ATOM     25  C   UNL     1       5.645   4.360  17.009  0.00  0.00    +0.000 A 
ENDBRANCH  14  17
ENDBRANCH   6  14
TORSDOF 3
ENDMDL
MODEL 3
REMARK VINA RESULT:      -6.4      4.808      8.961
REMARK  Name = 
REMARK  3 active torsions:
REMARK  status: ('A' for Active; 'I' for Inactive)
REMARK    1  A    between atoms: C_2  and  C_3
REMARK    2  A    between atoms: N_11  and  S_12
REMARK    3  A    between atoms: S_12  and  C_15
REMARK                            x       y       z     vdW  Elec       q    Type
REMARK                         _______ _______ _______ _____ _____    ______ ____
ROOT
ATOM      1  O   UNL     1       2.137   5.936  20.671  0.00  0.00    +0.000 OA
ATOM      2  C   UNL     1       2.302   6.661  19.689  0.00  0.00    +0.000 C 
ATOM      3  N   UNL     1       1.730   7.929  19.623  0.00  0.00    +0.000 N 
ATOM      4  C   UNL     1       1.913   8.856  18.501  0.00  0.00    +0.000 C 
ATOM      5  C   UNL     1       0.628   9.630  18.211  0.00  0.00    +0.000 C 
ATOM      6  N   UNL     1       0.108  10.325  19.420  0.00  0.00    +0.000 NA
ATOM      7  C   UNL     1      -0.152   9.317  20.502  0.00  0.00    +0.000 C 
ATOM      8  C   UNL     1       1.111   8.500  20.833  0.00  0.00    +0.000 C 
ENDROOT
BRANCH   2   9
ATOM      9  C   UNL     1       3.070   6.162  18.444  0.00  0.00    +0.000 C 
ATOM     10  C   UNL     1       2.483   4.883  17.861  0.00  0.00    +0.000 C 
ATOM     11  C   UNL     1       3.672   4.268  17.171  0.00  0.00    +0.000 C 
ATOM     12  C   UNL     1       4.792   4.617  18.123  0.00  0.00    +0.000 C 
ATOM     13  O   UNL     1       4.461   5.889  18.691  0.00  0.00    +0.000 OA
ENDBRANCH   2   9
BRANCH   6  14
ATOM     14  S   UNL     1       0.923  11.737  19.925  0.00  0.00    +0.000 S 
ATOM     15  O   UNL     1       1.552  11.484  21.204  0.00  0.00    +0.000 OA
ATOM     16  O   UNL     1       1.724  12.199  18.813  0.00  0.00    +0.000 OA
BRANCH  14  17
ATOM     17  C   UNL     1      -0.355  12.917  20.157  0.00  0.00    +0.000 A 
ATOM     18  C   UNL     1      -1.711  12.503  20.197  0.00  0.00    +0.000 A 
ATOM     19  C   UNL     1      -2.775  13.380  20.513  0.00  0.00    +0.000 A 
ATOM     20  C   UNL     1      -2.579  14.735  20.824  0.00  0.00    +0.000 A 
ATOM     21  C   UNL     1      -1.240  15.194  20.814  0.00  0.00    +0.000 A 
ATOM     22  N   UNL     1      -0.844  16.440  21.123  0.00  0.00    +0.000 NA
ATOM     23  S   UNL     1       0.809  16.453  20.989  0.00  0.00    +0.000 S 
ATOM     24  N   UNL     1       1.096  14.884  20.541  0.00  0.00    +0.000 NA
ATOM     25  C   UNL     1      -0.095  14.268  20.464  0.00  0.00    +0.000 A 
ENDBRANCH  14  17
ENDBRANCH   6  14
TORSDOF 3
ENDMDL
MODEL 4
REMARK VINA RESULT:      -6.4      4.970      9.619
REMARK  Name = 
REMARK  3 active torsions:
REMARK  status: ('A' for Active; 'I' for Inactive)
REMARK    1  A    between atoms: C_2  and  C_3
REMARK    2  A    between atoms: N_11  and  S_12
REMARK    3  A    between atoms: S_12  and  C_15
REMARK                            x       y       z     vdW  Elec       q    Type
REMARK                         _______ _______ _______ _____ _____    ______ ____
ROOT
ATOM      1  O   UNL     1       2.383   8.478  17.232  0.00  0.00    +0.000 OA
ATOM      2  C   UNL     1       2.209   8.048  18.373  0.00  0.00    +0.000 C 
ATOM      3  N   UNL     1       1.653   8.848  19.369  0.00  0.00    +0.000 N 
ATOM      4  C   UNL     1       1.387   8.391  20.737  0.00  0.00    +0.000 C 
ATOM      5  C   UNL     1       1.674   9.496  21.753  0.00  0.00    +0.000 C 
ATOM      6  N   UNL     1       0.936  10.750  21.439  0.00  0.00    +0.000 NA
ATOM      7  C   UNL     1       1.320  11.223  20.066  0.00  0.00    +0.000 C 
ATOM      8  C   UNL     1       1.058  10.145  18.999  0.00  0.00    +0.000 C 
ENDROOT
BRANCH   2   9
ATOM      9  C   UNL     1       2.686   6.635  18.780  0.00  0.00    +0.000 C 
ATOM     10  C   UNL     1       4.032   6.267  18.167  0.00  0.00    +0.000 C 
ATOM     11  C   UNL     1       3.967   4.763  18.129  0.00  0.00    +0.000 C 
ATOM     12  C   UNL     1       2.515   4.528  17.788  0.00  0.00    +0.000 C 
ATOM     13  O   UNL     1       1.775   5.586  18.406  0.00  0.00    +0.000 OA
ENDBRANCH   2   9
BRANCH   6  14
ATOM     14  S   UNL     1      -0.736  10.783  21.776  0.00  0.00    +0.000 S 
ATOM     15  O   UNL     1      -1.468  10.735  20.527  0.00  0.00    +0.000 OA
ATOM     16  O   UNL     1      -0.995   9.788  22.794  0.00  0.00    +0.000 OA
BRANCH  14  17
ATOM     17  C   UNL     1      -0.999  12.351  22.517  0.00  0.00    +0.000 A 
ATOM     18  C   UNL     1      -0.119  13.428  22.242  0.00  0.00    +0.000 A 
ATOM     19  C   UNL     1      -0.348  14.747  22.698  0.00  0.00    +0.000 A 
ATOM     20  C   UNL     1      -1.476  15.106  23.454  0.00  0.00    +0.000 A 
ATOM     21  C   UNL     1      -2.395  14.069  23.742  0.00  0.00    +0.000 A 
ATOM     22  N   UNL     1      -3.549  14.218  24.414  0.00  0.00    +0.000 NA
ATOM     23  S   UNL     1      -4.266  12.723  24.453  0.00  0.00    +0.000 S 
ATOM     24  N   UNL     1      -3.152  11.825  23.617  0.00  0.00    +0.000 NA
ATOM     25  C   UNL     1      -2.152  12.652  23.271  0.00  0.00    +0.000 A 
ENDBRANCH  14  17
ENDBRANCH   6  14
TORSDOF 3
ENDMDL
MODEL 5
REMARK VINA RESULT:      -6.4      4.905      9.506
REMARK  Name = 
REMARK  3 active torsions:
REMARK  status: ('A' for Active; 'I' for Inactive)
REMARK    1  A    between atoms: C_2  and  C_3
REMARK    2  A    between atoms: N_11  and  S_12
REMARK    3  A    between atoms: S_12  and  C_15
REMARK                            x       y       z     vdW  Elec       q    Type
REMARK                         _______ _______ _______ _____ _____    ______ ____
ROOT
ATOM      1  O   UNL     1       2.377   6.836  20.371  0.00  0.00    +0.000 OA
ATOM      2  C   UNL     1       2.245   7.472  19.325  0.00  0.00    +0.000 C 
ATOM      3  N   UNL     1       1.459   8.621  19.272  0.00  0.00    +0.000 N 
ATOM      4  C   UNL     1       1.286   9.445  18.072  0.00  0.00    +0.000 C 
ATOM      5  C   UNL     1      -0.144   9.972  17.966  0.00  0.00    +0.000 C 
ATOM      6  N   UNL     1      -0.566  10.696  19.195  0.00  0.00    +0.000 NA
ATOM      7  C   UNL     1      -0.460   9.776  20.378  0.00  0.00    +0.000 C 
ATOM      8  C   UNL     1       0.962   9.208  20.530  0.00  0.00    +0.000 C 
ENDROOT
BRANCH   2   9
ATOM      9  C   UNL     1       2.868   6.976  18.000  0.00  0.00    +0.000 C 
ATOM     10  C   UNL     1       3.084   5.469  17.977  0.00  0.00    +0.000 C 
ATOM     11  C   UNL     1       4.217   5.321  16.995  0.00  0.00    +0.000 C 
ATOM     12  C   UNL     1       5.056   6.537  17.310  0.00  0.00    +0.000 C 
ATOM     13  O   UNL     1       4.144   7.570  17.701  0.00  0.00    +0.000 OA
ENDBRANCH   2   9
BRANCH   6  14
ATOM     14  S   UNL     1       0.064  12.264  19.439  0.00  0.00    +0.000 S 
ATOM     15  O   UNL     1       1.462  12.157  19.798  0.00  0.00    +0.000 OA
ATOM     16  O   UNL     1      -0.323  13.070  18.301  0.00  0.00    +0.000 OA
BRANCH  14  17
ATOM     17  C   UNL     1      -0.822  12.878  20.823  0.00  0.00    +0.000 A 
ATOM     18  C   UNL     1      -0.130  13.478  21.905  0.00  0.00    +0.000 A 
ATOM     19  C   UNL     1      -0.788  14.111  22.985  0.00  0.00    +0.000 A 
ATOM     20  C   UNL     1      -2.186  14.209  23.073  0.00  0.00    +0.000 A 
ATOM     21  C   UNL     1      -2.924  13.639  22.008  0.00  0.00    +0.000 A 
ATOM     22  N   UNL     1      -4.261  13.666  21.888  0.00  0.00    +0.000 NA
ATOM     23  S   UNL     1      -4.620  12.897  20.462  0.00  0.00    +0.000 S 
ATOM     24  N   UNL     1      -3.100  12.503  19.933  0.00  0.00    +0.000 NA
ATOM     25  C   UNL     1      -2.229  12.948  20.854  0.00  0.00    +0.000 A 
ENDBRANCH  14  17
ENDBRANCH   6  14
TORSDOF 3
ENDMDL
MODEL 6
REMARK VINA RESULT:      -6.4      4.439      9.202
REMARK  Name = 
REMARK  3 active torsions:
REMARK  status: ('A' for Active; 'I' for Inactive)
REMARK    1  A    between atoms: C_2  and  C_3
REMARK    2  A    between atoms: N_11  and  S_12
REMARK    3  A    between atoms: S_12  and  C_15
REMARK                            x       y       z     vdW  Elec       q    Type
REMARK                         _______ _______ _______ _____ _____    ______ ____
ROOT
ATOM      1  O   UNL     1       2.057   5.754  20.978  0.00  0.00    +0.000 OA
ATOM      2  C   UNL     1       2.273   6.569  20.080  0.00  0.00    +0.000 C 
ATOM      3  N   UNL     1       1.620   7.799  20.049  0.00  0.00    +0.000 N 
ATOM      4  C   UNL     1       1.854   8.828  19.030  0.00  0.00    +0.000 C 
ATOM      5  C   UNL     1       0.554   9.540  18.658  0.00  0.00    +0.000 C 
ATOM      6  N   UNL     1      -0.142  10.095  19.850  0.00  0.00    +0.000 NA
ATOM      7  C   UNL     1      -0.442   8.982  20.814  0.00  0.00    +0.000 C 
ATOM      8  C   UNL     1       0.834   8.224  21.221  0.00  0.00    +0.000 C 
ENDROOT
BRANCH   2   9
ATOM      9  C   UNL     1       3.204   6.228  18.894  0.00  0.00    +0.000 C 
ATOM     10  C   UNL     1       2.580   5.241  17.917  0.00  0.00    +0.000 C 
ATOM     11  C   UNL     1       3.790   4.589  17.301  0.00  0.00    +0.000 C 
ATOM     12  C   UNL     1       4.727   4.506  18.483  0.00  0.00    +0.000 C 
ATOM     13  O   UNL     1       4.464   5.657  19.292  0.00  0.00    +0.000 OA
ENDBRANCH   2   9
BRANCH   6  14
ATOM     14  S   UNL     1       0.508  11.507  20.553  0.00  0.00    +0.000 S 
ATOM     15  O   UNL     1       1.504  11.129  21.533  0.00  0.00    +0.000 OA
ATOM     16  O   UNL     1       0.869  12.403  19.475  0.00  0.00    +0.000 OA
BRANCH  14  17
ATOM     17  C   UNL     1      -0.849  12.240  21.391  0.00  0.00    +0.000 A 
ATOM     18  C   UNL     1      -0.658  12.867  22.647  0.00  0.00    +0.000 A 
ATOM     19  C   UNL     1      -1.676  13.591  23.311  0.00  0.00    +0.000 A 
ATOM     20  C   UNL     1      -2.963  13.759  22.775  0.00  0.00    +0.000 A 
ATOM     21  C   UNL     1      -3.200  13.165  21.512  0.00  0.00    +0.000 A 
ATOM     22  N   UNL     1      -4.348  13.247  20.818  0.00  0.00    +0.000 NA
ATOM     23  S   UNL     1      -4.101  12.416  19.403  0.00  0.00    +0.000 S 
ATOM     24  N   UNL     1      -2.532  11.922  19.605  0.00  0.00    +0.000 NA
ATOM     25  C   UNL     1      -2.121  12.377  20.800  0.00  0.00    +0.000 A 
ENDBRANCH  14  17
ENDBRANCH   6  14
TORSDOF 3
ENDMDL
MODEL 7
REMARK VINA RESULT:      -6.4      4.599      9.053
REMARK  Name = 
REMARK  3 active torsions:
REMARK  status: ('A' for Active; 'I' for Inactive)
REMARK    1  A    between atoms: C_2  and  C_3
REMARK    2  A    between atoms: N_11  and  S_12
REMARK    3  A    between atoms: S_12  and  C_15
REMARK                            x       y       z     vdW  Elec       q    Type
REMARK                         _______ _______ _______ _____ _____    ______ ____
ROOT
ATOM      1  O   UNL     1       2.062   5.942  20.599  0.00  0.00    +0.000 OA
ATOM      2  C   UNL     1       2.219   6.701  19.641  0.00  0.00    +0.000 C 
ATOM      3  N   UNL     1       1.709   7.997  19.657  0.00  0.00    +0.000 N 
ATOM      4  C   UNL     1       1.887   8.963  18.568  0.00  0.00    +0.000 C 
ATOM      5  C   UNL     1       0.631   9.811  18.372  0.00  0.00    +0.000 C 
ATOM      6  N   UNL     1       0.202  10.475  19.632  0.00  0.00    +0.000 NA
ATOM      7  C   UNL     1      -0.059   9.433  20.682  0.00  0.00    +0.000 C 
ATOM      8  C   UNL     1       1.175   8.543  20.917  0.00  0.00    +0.000 C 
ENDROOT
BRANCH   2   9
ATOM      9  C   UNL     1       2.903   6.222  18.341  0.00  0.00    +0.000 C 
ATOM     10  C   UNL     1       2.438   4.839  17.903  0.00  0.00    +0.000 C 
ATOM     11  C   UNL     1       3.616   4.340  17.109  0.00  0.00    +0.000 C 
ATOM     12  C   UNL     1       4.776   4.899  17.898  0.00  0.00    +0.000 C 
ATOM     13  O   UNL     1       4.338   6.152  18.433  0.00  0.00    +0.000 OA
ENDBRANCH   2   9
BRANCH   6  14
ATOM     14  S   UNL     1       1.109  11.822  20.158  0.00  0.00    +0.000 S 
ATOM     15  O   UNL     1       1.770  11.487  21.401  0.00  0.00    +0.000 OA
ATOM     16  O   UNL     1       1.893  12.285  19.033  0.00  0.00    +0.000 OA
BRANCH  14  17
ATOM     17  C   UNL     1      -0.096  13.057  20.481  0.00  0.00    +0.000 A 
ATOM     18  C   UNL     1      -0.203  14.189  19.635  0.00  0.00    +0.000 A 
ATOM     19  C   UNL     1      -1.234  15.150  19.759  0.00  0.00    +0.000 A 
ATOM     20  C   UNL     1      -2.247  15.058  20.727  0.00  0.00    +0.000 A 
ATOM     21  C   UNL     1      -2.194  13.936  21.587  0.00  0.00    +0.000 A 
ATOM     22  N   UNL     1      -3.091  13.649  22.546  0.00  0.00    +0.000 NA
ATOM     23  S   UNL     1      -2.597  12.225  23.239  0.00  0.00    +0.000 S 
ATOM     24  N   UNL     1      -1.232  11.908  22.354  0.00  0.00    +0.000 NA
ATOM     25  C   UNL     1      -1.088  12.909  21.471  0.00  0.00    +0.000 A 
ENDBRANCH  14  17
ENDBRANCH   6  14
TORSDOF 3
ENDMDL
MODEL 8
REMARK VINA RESULT:      -6.3      3.277      7.609
REMARK  Name = 
REMARK  3 active torsions:
REMARK  status: ('A' for Active; 'I' for Inactive)
REMARK    1  A    between atoms: C_2  and  C_3
REMARK    2  A    between atoms: N_11  and  S_12
REMARK    3  A    between atoms: S_12  and  C_15
REMARK                            x       y       z     vdW  Elec       q    Type
REMARK                         _______ _______ _______ _____ _____    ______ ____
ROOT
ATOM      1  O   UNL     1       7.680   5.614  14.181  0.00  0.00    +0.000 OA
ATOM      2  C   UNL     1       6.762   4.859  14.504  0.00  0.00    +0.000 C 
ATOM      3  N   UNL     1       6.089   5.016  15.712  0.00  0.00    +0.000 N 
ATOM      4  C   UNL     1       4.967   4.175  16.144  0.00  0.00    +0.000 C 
ATOM      5  C   UNL     1       5.025   3.907  17.647  0.00  0.00    +0.000 C 
ATOM      6  N   UNL     1       5.106   5.165  18.438  0.00  0.00    +0.000 NA
ATOM      7  C   UNL     1       6.325   5.938  18.022  0.00  0.00    +0.000 C 
ATOM      8  C   UNL     1       6.323   6.233  16.511  0.00  0.00    +0.000 C 
ENDROOT
BRANCH   2   9
ATOM      9  C   UNL     1       6.377   3.644  13.629  0.00  0.00    +0.000 C 
ATOM     10  C   UNL     1       7.167   3.580  12.327  0.00  0.00    +0.000 C 
ATOM     11  C   UNL     1       6.237   2.814  11.424  0.00  0.00    +0.000 C 
ATOM     12  C   UNL     1       4.889   3.342  11.855  0.00  0.00    +0.000 C 
ATOM     13  O   UNL     1       4.988   3.615  13.257  0.00  0.00    +0.000 OA
ENDBRANCH   2   9
BRANCH   6  14
ATOM     14  S   UNL     1       3.679   6.089  18.591  0.00  0.00    +0.000 S 
ATOM     15  O   UNL     1       3.739   6.843  19.825  0.00  0.00    +0.000 OA
ATOM     16  O   UNL     1       3.473   6.782  17.338  0.00  0.00    +0.000 OA
BRANCH  14  17
ATOM     17  C   UNL     1       2.401   4.894  18.729  0.00  0.00    +0.000 A 
ATOM     18  C   UNL     1       1.631   4.538  17.593  0.00  0.00    +0.000 A 
ATOM     19  C   UNL     1       0.680   3.490  17.604  0.00  0.00    +0.000 A 
ATOM     20  C   UNL     1       0.425   2.706  18.740  0.00  0.00    +0.000 A 
ATOM     21  C   UNL     1       1.180   3.011  19.897  0.00  0.00    +0.000 A 
ATOM     22  N   UNL     1       1.112   2.352  21.066  0.00  0.00    +0.000 NA
ATOM     23  S   UNL     1       2.211   3.075  22.077  0.00  0.00    +0.000 S 
ATOM     24  N   UNL     1       2.823   4.248  21.079  0.00  0.00    +0.000 NA
ATOM     25  C   UNL     1       2.191   4.138  19.900  0.00  0.00    +0.000 A 
ENDBRANCH  14  17
ENDBRANCH   6  14
TORSDOF 3
ENDMDL
MODEL 9
REMARK VINA RESULT:      -6.3      4.971      9.395
REMARK  Name = 
REMARK  3 active torsions:
REMARK  status: ('A' for Active; 'I' for Inactive)
REMARK    1  A    between atoms: C_2  and  C_3
REMARK    2  A    between atoms: N_11  and  S_12
REMARK    3  A    between atoms: S_12  and  C_15
REMARK                            x       y       z     vdW  Elec       q    Type
REMARK                         _______ _______ _______ _____ _____    ______ ____
ROOT
ATOM      1  O   UNL     1       3.402   7.682  17.279  0.00  0.00    +0.000 OA
ATOM      2  C   UNL     1       2.679   7.593  18.272  0.00  0.00    +0.000 C 
ATOM      3  N   UNL     1       1.935   8.680  18.723  0.00  0.00    +0.000 N 
ATOM      4  C   UNL     1       1.029   8.635  19.875  0.00  0.00    +0.000 C 
ATOM      5  C   UNL     1       1.084   9.939  20.671  0.00  0.00    +0.000 C 
ATOM      6  N   UNL     1       0.825  11.128  19.814  0.00  0.00    +0.000 NA
ATOM      7  C   UNL     1       1.841  11.176  18.708  0.00  0.00    +0.000 C 
ATOM      8  C   UNL     1       1.835   9.882  17.875  0.00  0.00    +0.000 C 
ENDROOT
BRANCH   2   9
ATOM      9  C   UNL     1       2.636   6.301  19.120  0.00  0.00    +0.000 C 
ATOM     10  C   UNL     1       4.020   5.725  19.389  0.00  0.00    +0.000 C 
ATOM     11  C   UNL     1       3.725   4.263  19.600  0.00  0.00    +0.000 C 
ATOM     12  C   UNL     1       2.624   4.026  18.593  0.00  0.00    +0.000 C 
ATOM     13  O   UNL     1       1.869   5.241  18.522  0.00  0.00    +0.000 OA
ENDBRANCH   2   9
BRANCH   6  14
ATOM     14  S   UNL     1      -0.787  11.413  19.331  0.00  0.00    +0.000 S 
ATOM     15  O   UNL     1      -0.794  12.413  18.285  0.00  0.00    +0.000 OA
ATOM     16  O   UNL     1      -1.404  10.126  19.095  0.00  0.00    +0.000 OA
BRANCH  14  17
ATOM     17  C   UNL     1      -1.554  12.091  20.757  0.00  0.00    +0.000 A 
ATOM     18  C   UNL     1      -0.786  12.375  21.914  0.00  0.00    +0.000 A 
ATOM     19  C   UNL     1      -1.313  13.043  23.044  0.00  0.00    +0.000 A 
ATOM     20  C   UNL     1      -2.641  13.493  23.112  0.00  0.00    +0.000 A 
ATOM     21  C   UNL     1      -3.446  13.248  21.974  0.00  0.00    +0.000 A 
ATOM     22  N   UNL     1      -4.724  13.635  21.828  0.00  0.00    +0.000 NA
ATOM     23  S   UNL     1      -5.196  13.137  20.317  0.00  0.00    +0.000 S 
ATOM     24  N   UNL     1      -3.804  12.417  19.781  0.00  0.00    +0.000 NA
ATOM     25  C   UNL     1      -2.896  12.522  20.765  0.00  0.00    +0.000 A 
ENDBRANCH  14  17
ENDBRANCH   6  14
TORSDOF 3
ENDMDL
