MODEL 1
REMARK VINA RESULT:      -6.5      0.000      0.000
REMARK  Name = 
REMARK  10 active torsions:
REMARK  status: ('A' for Active; 'I' for Inactive)
REMARK    1  A    between atoms: C_1  and  C_2
REMARK    2  A    between atoms: C_2  and  C_3
REMARK    3  A    between atoms: C_3  and  C_4
REMARK    4  A    between atoms: C_3  and  N_6
REMARK    5  A    between atoms: C_4  and  O_5
REMARK    6  A    between atoms: N_6  and  S_7
REMARK    7  A    between atoms: S_7  and  C_10
REMARK    8  A    between atoms: C_12  and  C_13
REMARK    9  A    between atoms: C_16  and  O_17
REMARK   10  A    between atoms: O_17  and  C_18
REMARK                            x       y       z     vdW  Elec       q    Type
REMARK                         _______ _______ _______ _____ _____    ______ ____
ROOT
ATOM      1  S   UNL     1       3.480   2.997  17.783  0.00  0.00    +0.000 S 
ATOM      2  O   UNL     1       3.707   1.608  18.103  0.00  0.00    +0.000 OA
ATOM      3  O   UNL     1       2.345   3.343  16.954  0.00  0.00    +0.000 OA
ENDROOT
BRANCH   1   4
ATOM      4  C   UNL     1       4.949   3.679  17.058  0.00  0.00    +0.000 A 
ATOM      5  C   UNL     1       5.046   3.564  15.651  0.00  0.00    +0.000 A 
ATOM      6  C   UNL     1       6.144   4.069  14.940  0.00  0.00    +0.000 A 
ATOM      7  C   UNL     1       6.191   4.012  13.440  0.00  0.00    +0.000 C 
ATOM      8  C   UNL     1       7.183   4.658  15.651  0.00  0.00    +0.000 A 
ATOM      9  C   UNL     1       7.091   4.780  17.039  0.00  0.00    +0.000 A 
ATOM     10  C   UNL     1       5.976   4.315  17.763  0.00  0.00    +0.000 A 
BRANCH  10  11
ATOM     11  O   UNL     1       6.016   4.731  19.063  0.00  0.00    +0.000 OA
ATOM     12  C   UNL     1       7.079   5.563  19.498  0.00  0.00    +0.000 C 
ENDBRANCH  10  11
ENDBRANCH   1   4
BRANCH   1  13
ATOM     13  N   UNL     1       3.217   3.817  19.250  0.00  0.00    +0.000 NA
ATOM     14  H   UNL     1       3.181   3.087  19.968  0.00  0.00    +0.000 HD
BRANCH  13  15
ATOM     15  C   UNL     1       2.051   4.757  19.391  0.00  0.00    +0.000 C 
BRANCH  15  17
ATOM     16  C   UNL     1       1.473   3.010  21.165  0.00  0.00    +0.000 C 
ATOM     17  C   UNL     1       1.110   4.345  20.530  0.00  0.00    +0.000 C 
ENDBRANCH  15  17
BRANCH  15  18
ATOM     18  C   UNL     1       2.635   6.169  19.640  0.00  0.00    +0.000 C 
BRANCH  18  19
ATOM     19  O   UNL     1       2.063   6.762  20.803  0.00  0.00    +0.000 OA
ATOM     20  H   UNL     1       2.142   7.727  20.685  0.00  0.00    +0.000 HD
ENDBRANCH  18  19
ENDBRANCH  15  18
ENDBRANCH  13  15
ENDBRANCH   1  13
TORSDOF 7
ENDMDL
MODEL 2
REMARK VINA RESULT:      -6.4      2.993      6.229
REMARK  Name = 
REMARK  10 active torsions:
REMARK  status: ('A' for Active; 'I' for Inactive)
REMARK    1  A    between atoms: C_1  and  C_2
REMARK    2  A    between atoms: C_2  and  C_3
REMARK    3  A    between atoms: C_3  and  C_4
REMARK    4  A    between atoms: C_3  and  N_6
REMARK    5  A    between atoms: C_4  and  O_5
REMARK    6  A    between atoms: N_6  and  S_7
REMARK    7  A    between atoms: S_7  and  C_10
REMARK    8  A    between atoms: C_12  and  C_13
REMARK    9  A    between atoms: C_16  and  O_17
REMARK   10  A    between atoms: O_17  and  C_18
REMARK                            x       y       z     vdW  Elec       q    Type
REMARK                         _______ _______ _______ _____ _____    ______ ____
ROOT
ATOM      1  S   UNL     1       6.659   5.672  16.550  0.00  0.00    +0.000 S 
ATOM      2  O   UNL     1       7.289   4.420  16.894  0.00  0.00    +0.000 OA
ATOM      3  O   UNL     1       7.315   6.907  16.926  0.00  0.00    +0.000 OA
ENDROOT
BRANCH   1   4
ATOM      4  C   UNL     1       5.001   5.688  17.183  0.00  0.00    +0.000 A 
ATOM      5  C   UNL     1       4.424   6.968  17.351  0.00  0.00    +0.000 A 
ATOM      6  C   UNL     1       3.116   7.134  17.830  0.00  0.00    +0.000 A 
ATOM      7  C   UNL     1       2.490   8.496  17.923  0.00  0.00    +0.000 C 
ATOM      8  C   UNL     1       2.391   6.004  18.189  0.00  0.00    +0.000 A 
ATOM      9  C   UNL     1       2.953   4.737  18.020  0.00  0.00    +0.000 A 
ATOM     10  C   UNL     1       4.249   4.552  17.502  0.00  0.00    +0.000 A 
BRANCH  10  11
ATOM     11  O   UNL     1       4.496   3.237  17.233  0.00  0.00    +0.000 OA
ATOM     12  C   UNL     1       3.651   2.240  17.784  0.00  0.00    +0.000 C 
ENDBRANCH  10  11
ENDBRANCH   1   4
BRANCH   1  13
ATOM     13  N   UNL     1       6.549   5.732  14.853  0.00  0.00    +0.000 NA
ATOM     14  H   UNL     1       5.581   6.000  14.652  0.00  0.00    +0.000 HD
BRANCH  13  15
ATOM     15  C   UNL     1       6.951   4.539  14.028  0.00  0.00    +0.000 C 
BRANCH  15  17
ATOM     16  C   UNL     1       5.819   3.240  12.140  0.00  0.00    +0.000 C 
ATOM     17  C   UNL     1       5.740   3.707  13.587  0.00  0.00    +0.000 C 
ENDBRANCH  15  17
BRANCH  15  18
ATOM     18  C   UNL     1       7.727   5.078  12.803  0.00  0.00    +0.000 C 
BRANCH  18  19
ATOM     19  O   UNL     1       8.743   5.995  13.203  0.00  0.00    +0.000 OA
ATOM     20  H   UNL     1       9.556   5.469  13.318  0.00  0.00    +0.000 HD
ENDBRANCH  18  19
ENDBRANCH  15  18
ENDBRANCH  13  15
ENDBRANCH   1  13
TORSDOF 7
ENDMDL
MODEL 3
REMARK VINA RESULT:      -6.3      1.593      2.013
REMARK  Name = 
REMARK  10 active torsions:
REMARK  status: ('A' for Active; 'I' for Inactive)
REMARK    1  A    between atoms: C_1  and  C_2
REMARK    2  A    between atoms: C_2  and  C_3
REMARK    3  A    between atoms: C_3  and  C_4
REMARK    4  A    between atoms: C_3  and  N_6
REMARK    5  A    between atoms: C_4  and  O_5
REMARK    6  A    between atoms: N_6  and  S_7
REMARK    7  A    between atoms: S_7  and  C_10
REMARK    8  A    between atoms: C_12  and  C_13
REMARK    9  A    between atoms: C_16  and  O_17
REMARK   10  A    between atoms: O_17  and  C_18
REMARK                            x       y       z     vdW  Elec       q    Type
REMARK                         _______ _______ _______ _____ _____    ______ ____
ROOT
ATOM      1  S   UNL     1       3.939   3.363  18.792  0.00  0.00    +0.000 S 
ATOM      2  O   UNL     1       5.088   2.826  19.482  0.00  0.00    +0.000 OA
ATOM      3  O   UNL     1       2.976   2.442  18.225  0.00  0.00    +0.000 OA
ENDROOT
BRANCH   1   4
ATOM      4  C   UNL     1       4.485   4.475  17.522  0.00  0.00    +0.000 A 
ATOM      5  C   UNL     1       5.069   3.867  16.387  0.00  0.00    +0.000 A 
ATOM      6  C   UNL     1       5.534   4.620  15.298  0.00  0.00    +0.000 A 
ATOM      7  C   UNL     1       6.074   3.953  14.066  0.00  0.00    +0.000 C 
ATOM      8  C   UNL     1       5.454   6.006  15.367  0.00  0.00    +0.000 A 
ATOM      9  C   UNL     1       4.874   6.613  16.483  0.00  0.00    +0.000 A 
ATOM     10  C   UNL     1       4.365   5.869  17.565  0.00  0.00    +0.000 A 
BRANCH  10  11
ATOM     11  O   UNL     1       3.664   6.659  18.429  0.00  0.00    +0.000 OA
ATOM     12  C   UNL     1       2.884   7.729  17.921  0.00  0.00    +0.000 C 
ENDBRANCH  10  11
ENDBRANCH   1   4
BRANCH   1  13
ATOM     13  N   UNL     1       3.057   4.282  19.920  0.00  0.00    +0.000 NA
ATOM     14  H   UNL     1       3.411   4.000  20.838  0.00  0.00    +0.000 HD
BRANCH  13  15
ATOM     15  C   UNL     1       1.552   4.255  19.902  0.00  0.00    +0.000 C 
BRANCH  15  17
ATOM     16  C   UNL     1       1.899   2.624  21.839  0.00  0.00    +0.000 C 
ATOM     17  C   UNL     1       0.984   3.083  20.712  0.00  0.00    +0.000 C 
ENDBRANCH  15  17
BRANCH  15  18
ATOM     18  C   UNL     1       1.070   5.609  20.478  0.00  0.00    +0.000 C 
BRANCH  18  19
ATOM     19  O   UNL     1       2.154   6.336  21.052  0.00  0.00    +0.000 OA
ATOM     20  H   UNL     1       1.766   7.144  21.437  0.00  0.00    +0.000 HD
ENDBRANCH  18  19
ENDBRANCH  15  18
ENDBRANCH  13  15
ENDBRANCH   1  13
TORSDOF 7
ENDMDL
MODEL 4
REMARK VINA RESULT:      -6.3      2.996      5.382
REMARK  Name = 
REMARK  10 active torsions:
REMARK  status: ('A' for Active; 'I' for Inactive)
REMARK    1  A    between atoms: C_1  and  C_2
REMARK    2  A    between atoms: C_2  and  C_3
REMARK    3  A    between atoms: C_3  and  C_4
REMARK    4  A    between atoms: C_3  and  N_6
REMARK    5  A    between atoms: C_4  and  O_5
REMARK    6  A    between atoms: N_6  and  S_7
REMARK    7  A    between atoms: S_7  and  C_10
REMARK    8  A    between atoms: C_12  and  C_13
REMARK    9  A    between atoms: C_16  and  O_17
REMARK   10  A    between atoms: O_17  and  C_18
REMARK                            x       y       z     vdW  Elec       q    Type
REMARK                         _______ _______ _______ _____ _____    ______ ____
ROOT
ATOM      1  S   UNL     1       5.661   5.830  16.298  0.00  0.00    +0.000 S 
ATOM      2  O   UNL     1       5.195   6.599  15.169  0.00  0.00    +0.000 OA
ATOM      3  O   UNL     1       6.645   4.791  16.073  0.00  0.00    +0.000 OA
ENDROOT
BRANCH   1   4
ATOM      4  C   UNL     1       4.268   5.127  17.143  0.00  0.00    +0.000 A 
ATOM      5  C   UNL     1       4.286   3.720  17.284  0.00  0.00    +0.000 A 
ATOM      6  C   UNL     1       3.258   3.027  17.942  0.00  0.00    +0.000 A 
ATOM      7  C   UNL     1       3.334   1.543  18.155  0.00  0.00    +0.000 C 
ATOM      8  C   UNL     1       2.174   3.750  18.427  0.00  0.00    +0.000 A 
ATOM      9  C   UNL     1       2.153   5.140  18.296  0.00  0.00    +0.000 A 
ATOM     10  C   UNL     1       3.197   5.853  17.675  0.00  0.00    +0.000 A 
BRANCH  10  11
ATOM     11  O   UNL     1       3.057   7.199  17.852  0.00  0.00    +0.000 OA
ATOM     12  C   UNL     1       2.322   7.685  18.965  0.00  0.00    +0.000 C 
ENDBRANCH  10  11
ENDBRANCH   1   4
BRANCH   1  13
ATOM     13  N   UNL     1       6.407   6.915  17.375  0.00  0.00    +0.000 NA
ATOM     14  H   UNL     1       6.624   7.747  16.818  0.00  0.00    +0.000 HD
BRANCH  13  15
ATOM     15  C   UNL     1       7.610   6.482  18.170  0.00  0.00    +0.000 C 
BRANCH  15  17
ATOM     16  C   UNL     1       8.161   8.966  17.924  0.00  0.00    +0.000 C 
ATOM     17  C   UNL     1       8.419   7.677  18.691  0.00  0.00    +0.000 C 
ENDBRANCH  15  17
BRANCH  15  18
ATOM     18  C   UNL     1       7.089   5.614  19.341  0.00  0.00    +0.000 C 
BRANCH  18  19
ATOM     19  O   UNL     1       8.048   5.547  20.393  0.00  0.00    +0.000 OA
ATOM     20  H   UNL     1       8.604   4.767  20.206  0.00  0.00    +0.000 HD
ENDBRANCH  18  19
ENDBRANCH  15  18
ENDBRANCH  13  15
ENDBRANCH   1  13
TORSDOF 7
ENDMDL
MODEL 5
REMARK VINA RESULT:      -6.3      3.021      6.042
REMARK  Name = 
REMARK  10 active torsions:
REMARK  status: ('A' for Active; 'I' for Inactive)
REMARK    1  A    between atoms: C_1  and  C_2
REMARK    2  A    between atoms: C_2  and  C_3
REMARK    3  A    between atoms: C_3  and  C_4
REMARK    4  A    between atoms: C_3  and  N_6
REMARK    5  A    between atoms: C_4  and  O_5
REMARK    6  A    between atoms: N_6  and  S_7
REMARK    7  A    between atoms: S_7  and  C_10
REMARK    8  A    between atoms: C_12  and  C_13
REMARK    9  A    between atoms: C_16  and  O_17
REMARK   10  A    between atoms: O_17  and  C_18
REMARK                            x       y       z     vdW  Elec       q    Type
REMARK                         _______ _______ _______ _____ _____    ______ ____
ROOT
ATOM      1  S   UNL     1       6.542   5.593  16.730  0.00  0.00    +0.000 S 
ATOM      2  O   UNL     1       7.453   4.516  17.033  0.00  0.00    +0.000 OA
ATOM      3  O   UNL     1       6.831   6.914  17.247  0.00  0.00    +0.000 OA
ENDROOT
BRANCH   1   4
ATOM      4  C   UNL     1       4.902   5.130  17.224  0.00  0.00    +0.000 A 
ATOM      5  C   UNL     1       4.690   3.745  17.418  0.00  0.00    +0.000 A 
ATOM      6  C   UNL     1       3.448   3.234  17.822  0.00  0.00    +0.000 A 
ATOM      7  C   UNL     1       3.264   1.771  18.104  0.00  0.00    +0.000 C 
ATOM      8  C   UNL     1       2.389   4.119  17.991  0.00  0.00    +0.000 A 
ATOM      9  C   UNL     1       2.592   5.488  17.806  0.00  0.00    +0.000 A 
ATOM     10  C   UNL     1       3.844   6.020  17.441  0.00  0.00    +0.000 A 
BRANCH  10  11
ATOM     11  O   UNL     1       3.851   7.382  17.526  0.00  0.00    +0.000 OA
ATOM     12  C   UNL     1       2.704   8.058  18.014  0.00  0.00    +0.000 C 
ENDBRANCH  10  11
ENDBRANCH   1   4
BRANCH   1  13
ATOM     13  N   UNL     1       6.524   5.779  15.039  0.00  0.00    +0.000 NA
ATOM     14  H   UNL     1       5.564   6.050  14.805  0.00  0.00    +0.000 HD
BRANCH  13  15
ATOM     15  C   UNL     1       6.988   4.656  14.151  0.00  0.00    +0.000 C 
BRANCH  15  17
ATOM     16  C   UNL     1       5.921   3.317  12.254  0.00  0.00    +0.000 C 
ATOM     17  C   UNL     1       5.832   3.750  13.710  0.00  0.00    +0.000 C 
ENDBRANCH  15  17
BRANCH  15  18
ATOM     18  C   UNL     1       7.680   5.305  12.928  0.00  0.00    +0.000 C 
BRANCH  18  19
ATOM     19  O   UNL     1       8.869   5.989  13.315  0.00  0.00    +0.000 OA
ATOM     20  H   UNL     1       9.189   5.544  14.122  0.00  0.00    +0.000 HD
ENDBRANCH  18  19
ENDBRANCH  15  18
ENDBRANCH  13  15
ENDBRANCH   1  13
TORSDOF 7
ENDMDL
MODEL 6
REMARK VINA RESULT:      -6.2      1.925      5.445
REMARK  Name = 
REMARK  10 active torsions:
REMARK  status: ('A' for Active; 'I' for Inactive)
REMARK    1  A    between atoms: C_1  and  C_2
REMARK    2  A    between atoms: C_2  and  C_3
REMARK    3  A    between atoms: C_3  and  C_4
REMARK    4  A    between atoms: C_3  and  N_6
REMARK    5  A    between atoms: C_4  and  O_5
REMARK    6  A    between atoms: N_6  and  S_7
REMARK    7  A    between atoms: S_7  and  C_10
REMARK    8  A    between atoms: C_12  and  C_13
REMARK    9  A    between atoms: C_16  and  O_17
REMARK   10  A    between atoms: O_17  and  C_18
REMARK                            x       y       z     vdW  Elec       q    Type
REMARK                         _______ _______ _______ _____ _____    ______ ____
ROOT
ATOM      1  S   UNL     1       4.551   3.505  18.773  0.00  0.00    +0.000 S 
ATOM      2  O   UNL     1       4.045   2.961  17.535  0.00  0.00    +0.000 OA
ATOM      3  O   UNL     1       4.788   2.606  19.882  0.00  0.00    +0.000 OA
ENDROOT
BRANCH   1   4
ATOM      4  C   UNL     1       3.486   4.817  19.315  0.00  0.00    +0.000 A 
ATOM      5  C   UNL     1       3.461   5.965  18.489  0.00  0.00    +0.000 A 
ATOM      6  C   UNL     1       2.655   7.074  18.786  0.00  0.00    +0.000 A 
ATOM      7  C   UNL     1       2.578   8.249  17.855  0.00  0.00    +0.000 C 
ATOM      8  C   UNL     1       1.896   7.052  19.950  0.00  0.00    +0.000 A 
ATOM      9  C   UNL     1       1.912   5.920  20.767  0.00  0.00    +0.000 A 
ATOM     10  C   UNL     1       2.684   4.782  20.461  0.00  0.00    +0.000 A 
BRANCH  10  11
ATOM     11  O   UNL     1       2.377   3.735  21.281  0.00  0.00    +0.000 OA
ATOM     12  C   UNL     1       1.280   2.895  20.961  0.00  0.00    +0.000 C 
ENDBRANCH  10  11
ENDBRANCH   1   4
BRANCH   1  13
ATOM     13  N   UNL     1       6.068   4.197  18.437  0.00  0.00    +0.000 NA
ATOM     14  H   UNL     1       6.328   4.711  19.284  0.00  0.00    +0.000 HD
BRANCH  13  15
ATOM     15  C   UNL     1       6.251   5.062  17.218  0.00  0.00    +0.000 C 
BRANCH  15  17
ATOM     16  C   UNL     1       7.841   6.298  18.791  0.00  0.00    +0.000 C 
ATOM     17  C   UNL     1       6.974   6.375  17.543  0.00  0.00    +0.000 C 
ENDBRANCH  15  17
BRANCH  15  18
ATOM     18  C   UNL     1       7.053   4.228  16.189  0.00  0.00    +0.000 C 
BRANCH  18  19
ATOM     19  O   UNL     1       6.224   3.249  15.567  0.00  0.00    +0.000 OA
ATOM     20  H   UNL     1       5.414   3.195  16.107  0.00  0.00    +0.000 HD
ENDBRANCH  18  19
ENDBRANCH  15  18
ENDBRANCH  13  15
ENDBRANCH   1  13
TORSDOF 7
ENDMDL
MODEL 7
REMARK VINA RESULT:      -6.2      1.673      2.488
REMARK  Name = 
REMARK  10 active torsions:
REMARK  status: ('A' for Active; 'I' for Inactive)
REMARK    1  A    between atoms: C_1  and  C_2
REMARK    2  A    between atoms: C_2  and  C_3
REMARK    3  A    between atoms: C_3  and  C_4
REMARK    4  A    between atoms: C_3  and  N_6
REMARK    5  A    between atoms: C_4  and  O_5
REMARK    6  A    between atoms: N_6  and  S_7
REMARK    7  A    between atoms: S_7  and  C_10
REMARK    8  A    between atoms: C_12  and  C_13
REMARK    9  A    between atoms: C_16  and  O_17
REMARK   10  A    between atoms: O_17  and  C_18
REMARK                            x       y       z     vdW  Elec       q    Type
REMARK                         _______ _______ _______ _____ _____    ______ ____
ROOT
ATOM      1  S   UNL     1       4.228   3.154  18.598  0.00  0.00    +0.000 S 
ATOM      2  O   UNL     1       5.263   3.118  19.603  0.00  0.00    +0.000 OA
ATOM      3  O   UNL     1       3.856   1.919  17.939  0.00  0.00    +0.000 OA
ENDROOT
BRANCH   1   4
ATOM      4  C   UNL     1       4.651   4.356  17.364  0.00  0.00    +0.000 A 
ATOM      5  C   UNL     1       5.305   3.851  16.217  0.00  0.00    +0.000 A 
ATOM      6  C   UNL     1       5.687   4.683  15.154  0.00  0.00    +0.000 A 
ATOM      7  C   UNL     1       6.305   4.117  13.908  0.00  0.00    +0.000 C 
ATOM      8  C   UNL     1       5.451   6.049  15.260  0.00  0.00    +0.000 A 
ATOM      9  C   UNL     1       4.801   6.554  16.388  0.00  0.00    +0.000 A 
ATOM     10  C   UNL     1       4.374   5.726  17.445  0.00  0.00    +0.000 A 
BRANCH  10  11
ATOM     11  O   UNL     1       3.585   6.407  18.325  0.00  0.00    +0.000 OA
ATOM     12  C   UNL     1       3.007   7.642  17.935  0.00  0.00    +0.000 C 
ENDBRANCH  10  11
ENDBRANCH   1   4
BRANCH   1  13
ATOM     13  N   UNL     1       2.804   3.692  19.358  0.00  0.00    +0.000 NA
ATOM     14  H   UNL     1       3.109   4.121  20.236  0.00  0.00    +0.000 HD
BRANCH  13  15
ATOM     15  C   UNL     1       1.670   2.734  19.603  0.00  0.00    +0.000 C 
BRANCH  15  17
ATOM     16  C   UNL     1       2.183   3.129  22.075  0.00  0.00    +0.000 C 
ATOM     17  C   UNL     1       1.115   2.847  21.028  0.00  0.00    +0.000 C 
ENDBRANCH  15  17
BRANCH  15  18
ATOM     18  C   UNL     1       0.576   3.051  18.556  0.00  0.00    +0.000 C 
BRANCH  18  19
ATOM     19  O   UNL     1       1.125   3.739  17.434  0.00  0.00    +0.000 OA
ATOM     20  H   UNL     1       0.945   3.178  16.656  0.00  0.00    +0.000 HD
ENDBRANCH  18  19
ENDBRANCH  15  18
ENDBRANCH  13  15
ENDBRANCH   1  13
TORSDOF 7
ENDMDL
MODEL 8
REMARK VINA RESULT:      -6.2      1.824      5.521
REMARK  Name = 
REMARK  10 active torsions:
REMARK  status: ('A' for Active; 'I' for Inactive)
REMARK    1  A    between atoms: C_1  and  C_2
REMARK    2  A    between atoms: C_2  and  C_3
REMARK    3  A    between atoms: C_3  and  C_4
REMARK    4  A    between atoms: C_3  and  N_6
REMARK    5  A    between atoms: C_4  and  O_5
REMARK    6  A    between atoms: N_6  and  S_7
REMARK    7  A    between atoms: S_7  and  C_10
REMARK    8  A    between atoms: C_12  and  C_13
REMARK    9  A    between atoms: C_16  and  O_17
REMARK   10  A    between atoms: O_17  and  C_18
REMARK                            x       y       z     vdW  Elec       q    Type
REMARK                         _______ _______ _______ _____ _____    ______ ____
ROOT
ATOM      1  S   UNL     1       4.277   3.884  18.361  0.00  0.00    +0.000 S 
ATOM      2  O   UNL     1       3.419   2.775  18.019  0.00  0.00    +0.000 OA
ATOM      3  O   UNL     1       5.409   3.645  19.231  0.00  0.00    +0.000 OA
ENDROOT
BRANCH   1   4
ATOM      4  C   UNL     1       3.296   5.196  19.043  0.00  0.00    +0.000 A 
ATOM      5  C   UNL     1       3.202   6.364  18.252  0.00  0.00    +0.000 A 
ATOM      6  C   UNL     1       2.450   7.476  18.657  0.00  0.00    +0.000 A 
ATOM      7  C   UNL     1       2.294   8.675  17.767  0.00  0.00    +0.000 C 
ATOM      8  C   UNL     1       1.819   7.436  19.895  0.00  0.00    +0.000 A 
ATOM      9  C   UNL     1       1.903   6.284  20.679  0.00  0.00    +0.000 A 
ATOM     10  C   UNL     1       2.620   5.143  20.267  0.00  0.00    +0.000 A 
BRANCH  10  11
ATOM     11  O   UNL     1       2.385   4.081  21.091  0.00  0.00    +0.000 OA
ATOM     12  C   UNL     1       1.262   3.247  20.853  0.00  0.00    +0.000 C 
ENDBRANCH  10  11
ENDBRANCH   1   4
BRANCH   1  13
ATOM     13  N   UNL     1       4.954   4.465  16.912  0.00  0.00    +0.000 NA
ATOM     14  H   UNL     1       4.616   3.832  16.180  0.00  0.00    +0.000 HD
BRANCH  13  15
ATOM     15  C   UNL     1       6.442   4.659  16.798  0.00  0.00    +0.000 C 
BRANCH  15  17
ATOM     16  C   UNL     1       5.824   4.233  14.354  0.00  0.00    +0.000 C 
ATOM     17  C   UNL     1       6.941   4.469  15.360  0.00  0.00    +0.000 C 
ENDBRANCH  15  17
BRANCH  15  18
ATOM     18  C   UNL     1       6.751   6.087  17.307  0.00  0.00    +0.000 C 
BRANCH  18  19
ATOM     19  O   UNL     1       7.646   6.761  16.425  0.00  0.00    +0.000 OA
ATOM     20  H   UNL     1       8.371   7.103  16.981  0.00  0.00    +0.000 HD
ENDBRANCH  18  19
ENDBRANCH  15  18
ENDBRANCH  13  15
ENDBRANCH   1  13
TORSDOF 7
ENDMDL
MODEL 9
REMARK VINA RESULT:      -6.2      1.709      2.294
REMARK  Name = 
REMARK  10 active torsions:
REMARK  status: ('A' for Active; 'I' for Inactive)
REMARK    1  A    between atoms: C_1  and  C_2
REMARK    2  A    between atoms: C_2  and  C_3
REMARK    3  A    between atoms: C_3  and  C_4
REMARK    4  A    between atoms: C_3  and  N_6
REMARK    5  A    between atoms: C_4  and  O_5
REMARK    6  A    between atoms: N_6  and  S_7
REMARK    7  A    between atoms: S_7  and  C_10
REMARK    8  A    between atoms: C_12  and  C_13
REMARK    9  A    between atoms: C_16  and  O_17
REMARK   10  A    between atoms: O_17  and  C_18
REMARK                            x       y       z     vdW  Elec       q    Type
REMARK                         _______ _______ _______ _____ _____    ______ ____
ROOT
ATOM      1  S   UNL     1       3.371   5.160  18.373  0.00  0.00    +0.000 S 
ATOM      2  O   UNL     1       2.268   4.850  17.495  0.00  0.00    +0.000 OA
ATOM      3  O   UNL     1       3.435   6.478  18.970  0.00  0.00    +0.000 OA
ENDROOT
BRANCH   1   4
ATOM      4  C   UNL     1       4.899   4.837  17.532  0.00  0.00    +0.000 A 
ATOM      5  C   UNL     1       4.796   4.618  16.139  0.00  0.00    +0.000 A 
ATOM      6  C   UNL     1       5.922   4.364  15.342  0.00  0.00    +0.000 A 
ATOM      7  C   UNL     1       5.803   4.217  13.853  0.00  0.00    +0.000 C 
ATOM      8  C   UNL     1       7.166   4.284  15.957  0.00  0.00    +0.000 A 
ATOM      9  C   UNL     1       7.277   4.504  17.331  0.00  0.00    +0.000 A 
ATOM     10  C   UNL     1       6.160   4.801  18.138  0.00  0.00    +0.000 A 
BRANCH  10  11
ATOM     11  O   UNL     1       6.538   5.182  19.393  0.00  0.00    +0.000 OA
ATOM     12  C   UNL     1       7.808   5.783  19.588  0.00  0.00    +0.000 C 
ENDBRANCH  10  11
ENDBRANCH   1   4
BRANCH   1  13
ATOM     13  N   UNL     1       3.285   4.086  19.690  0.00  0.00    +0.000 NA
ATOM     14  H   UNL     1       4.064   3.434  19.561  0.00  0.00    +0.000 HD
BRANCH  13  15
ATOM     15  C   UNL     1       2.010   3.337  19.971  0.00  0.00    +0.000 C 
BRANCH  15  17
ATOM     16  C   UNL     1       3.301   1.600  18.612  0.00  0.00    +0.000 C 
ATOM     17  C   UNL     1       2.030   1.920  19.386  0.00  0.00    +0.000 C 
ENDBRANCH  15  17
BRANCH  15  18
ATOM     18  C   UNL     1       1.840   3.298  21.509  0.00  0.00    +0.000 C 
BRANCH  18  19
ATOM     19  O   UNL     1       2.782   2.410  22.105  0.00  0.00    +0.000 OA
ATOM     20  H   UNL     1       3.286   2.940  22.751  0.00  0.00    +0.000 HD
ENDBRANCH  18  19
ENDBRANCH  15  18
ENDBRANCH  13  15
ENDBRANCH   1  13
TORSDOF 7
ENDMDL
