MODEL 1
REMARK VINA RESULT:      -8.2      0.000      0.000
REMARK  Name = 
REMARK  12 active torsions:
REMARK  status: ('A' for Active; 'I' for Inactive)
REMARK    1  A    between atoms: C_1  and  O_2
REMARK    2  A    between atoms: O_2  and  C_3
REMARK    3  A    between atoms: C_8  and  N_9
REMARK    4  A    between atoms: C_10  and  C_12
REMARK    5  A    between atoms: C_15  and  N_16
REMARK    6  A    between atoms: C_17  and  C_19
REMARK    7  A    between atoms: C_19  and  N_20
REMARK    8  A    between atoms: C_21  and  C_23
REMARK    9  A    between atoms: C_26  and  O_27
REMARK   10  A    between atoms: O_27  and  C_28
REMARK   11  A    between atoms: C_29  and  O_30
REMARK   12  A    between atoms: O_30  and  C_31
REMARK                            x       y       z     vdW  Elec       q    Type
REMARK                         _______ _______ _______ _____ _____    ______ ____
ROOT
ATOM      1  N   UNL     1       2.723   6.317  20.048  0.00  0.00    +0.000 N 
ATOM      2  C   UNL     1       2.158   5.054  20.199  0.00  0.00    +0.000 C 
ATOM      3  O   UNL     1       1.026   4.804  20.610  0.00  0.00    +0.000 OA
ATOM      4  H   UNL     1       3.652   6.370  19.642  0.00  0.00    +0.000 HD
ENDROOT
BRANCH   1   8
ATOM      5  C   UNL     1       0.486   9.834  20.762  0.00  0.00    +0.000 A 
ATOM      6  C   UNL     1       0.830   9.001  21.820  0.00  0.00    +0.000 A 
ATOM      7  C   UNL     1       1.606   7.869  21.584  0.00  0.00    +0.000 A 
ATOM      8  C   UNL     1       2.039   7.523  20.298  0.00  0.00    +0.000 A 
ATOM      9  C   UNL     1       1.743   8.399  19.239  0.00  0.00    +0.000 A 
ATOM     10  C   UNL     1       0.944   9.532  19.470  0.00  0.00    +0.000 A 
BRANCH   5  12
ATOM     11  N   UNL     1      -0.411  11.590  22.226  0.00  0.00    +0.000 N 
ATOM     12  C   UNL     1      -0.467  10.960  20.983  0.00  0.00    +0.000 C 
ATOM     13  O   UNL     1      -1.218  11.234  20.052  0.00  0.00    +0.000 OA
ATOM     14  H   UNL     1       0.414  11.458  22.805  0.00  0.00    +0.000 HD
BRANCH  11  20
ATOM     15  C   UNL     1      -0.993  13.907  22.897  0.00  0.00    +0.000 A 
ATOM     16  C   UNL     1      -1.989  14.824  23.280  0.00  0.00    +0.000 A 
ATOM     17  C   UNL     1      -3.280  14.405  23.574  0.00  0.00    +0.000 A 
ATOM     18  C   UNL     1      -3.602  13.064  23.481  0.00  0.00    +0.000 A 
ATOM     19  C   UNL     1      -2.646  12.156  23.042  0.00  0.00    +0.000 A 
ATOM     20  C   UNL     1      -1.344  12.549  22.706  0.00  0.00    +0.000 A 
BRANCH  15  22
ATOM     21  C   UNL     1       0.486  15.738  22.642  0.00  0.00    +0.000 C 
ATOM     22  O   UNL     1       0.310  14.311  22.674  0.00  0.00    +0.000 OA
ENDBRANCH  15  22
ENDBRANCH  11  20
ENDBRANCH   5  12
ENDBRANCH   1   8
BRANCH   2  23
ATOM     23  C   UNL     1       3.089   3.895  19.855  0.00  0.00    +0.000 C 
BRANCH  23  24
ATOM     24  N   UNL     1       4.077   4.324  18.884  0.00  0.00    +0.000 N 
ATOM     25  C   UNL     1       3.940   3.970  17.560  0.00  0.00    +0.000 C 
ATOM     26  O   UNL     1       3.009   3.284  17.154  0.00  0.00    +0.000 OA
ATOM     27  H   UNL     1       4.657   5.116  19.130  0.00  0.00    +0.000 HD
BRANCH  25  28
ATOM     28  C   UNL     1       4.984   4.474  16.628  0.00  0.00    +0.000 A 
ATOM     29  C   UNL     1       5.166   3.823  15.411  0.00  0.00    +0.000 A 
ATOM     30  C   UNL     1       6.197   4.224  14.562  0.00  0.00    +0.000 A 
ATOM     31  C   UNL     1       7.071   5.264  14.918  0.00  0.00    +0.000 A 
ATOM     32  C   UNL     1       6.894   5.923  16.149  0.00  0.00    +0.000 A 
ATOM     33  C   UNL     1       5.839   5.528  16.988  0.00  0.00    +0.000 A 
BRANCH  31  34
ATOM     34  O   UNL     1       8.026   5.485  13.959  0.00  0.00    +0.000 OA
ATOM     35  C   UNL     1       7.755   5.122  12.613  0.00  0.00    +0.000 C 
ENDBRANCH  31  34
BRANCH  32  36
ATOM     36  O   UNL     1       7.781   6.910  16.488  0.00  0.00    +0.000 OA
ATOM     37  C   UNL     1       7.735   7.457  17.796  0.00  0.00    +0.000 C 
ENDBRANCH  32  36
ENDBRANCH  25  28
ENDBRANCH  23  24
ENDBRANCH   2  23
TORSDOF 9
ENDMDL
MODEL 2
REMARK VINA RESULT:      -7.9      1.938      2.421
REMARK  Name = 
REMARK  12 active torsions:
REMARK  status: ('A' for Active; 'I' for Inactive)
REMARK    1  A    between atoms: C_1  and  O_2
REMARK    2  A    between atoms: O_2  and  C_3
REMARK    3  A    between atoms: C_8  and  N_9
REMARK    4  A    between atoms: C_10  and  C_12
REMARK    5  A    between atoms: C_15  and  N_16
REMARK    6  A    between atoms: C_17  and  C_19
REMARK    7  A    between atoms: C_19  and  N_20
REMARK    8  A    between atoms: C_21  and  C_23
REMARK    9  A    between atoms: C_26  and  O_27
REMARK   10  A    between atoms: O_27  and  C_28
REMARK   11  A    between atoms: C_29  and  O_30
REMARK   12  A    between atoms: O_30  and  C_31
REMARK                            x       y       z     vdW  Elec       q    Type
REMARK                         _______ _______ _______ _____ _____    ______ ____
ROOT
ATOM      1  N   UNL     1       2.621   6.392  19.932  0.00  0.00    +0.000 N 
ATOM      2  C   UNL     1       2.046   5.144  20.151  0.00  0.00    +0.000 C 
ATOM      3  O   UNL     1       0.907   4.927  20.565  0.00  0.00    +0.000 OA
ATOM      4  H   UNL     1       3.555   6.414  19.533  0.00  0.00    +0.000 HD
ENDROOT
BRANCH   1   8
ATOM      5  C   UNL     1       0.776  10.155  20.497  0.00  0.00    +0.000 A 
ATOM      6  C   UNL     1       1.214   9.777  19.234  0.00  0.00    +0.000 A 
ATOM      7  C   UNL     1       1.779   8.518  19.046  0.00  0.00    +0.000 A 
ATOM      8  C   UNL     1       1.944   7.616  20.103  0.00  0.00    +0.000 A 
ATOM      9  C   UNL     1       1.444   7.974  21.367  0.00  0.00    +0.000 A 
ATOM     10  C   UNL     1       0.891   9.251  21.566  0.00  0.00    +0.000 A 
BRANCH   5  12
ATOM     11  N   UNL     1      -0.009  12.304  19.606  0.00  0.00    +0.000 N 
ATOM     12  C   UNL     1       0.310  11.552  20.735  0.00  0.00    +0.000 C 
ATOM     13  O   UNL     1       0.249  11.917  21.905  0.00  0.00    +0.000 OA
ATOM     14  H   UNL     1      -0.173  11.822  18.727  0.00  0.00    +0.000 HD
BRANCH  11  20
ATOM     15  C   UNL     1       0.537  14.624  18.914  0.00  0.00    +0.000 A 
ATOM     16  C   UNL     1       0.150  15.976  18.863  0.00  0.00    +0.000 A 
ATOM     17  C   UNL     1      -0.964  16.434  19.555  0.00  0.00    +0.000 A 
ATOM     18  C   UNL     1      -1.718  15.548  20.301  0.00  0.00    +0.000 A 
ATOM     19  C   UNL     1      -1.385  14.199  20.310  0.00  0.00    +0.000 A 
ATOM     20  C   UNL     1      -0.288  13.698  19.597  0.00  0.00    +0.000 A 
BRANCH  15  22
ATOM     21  C   UNL     1       2.779  15.111  18.334  0.00  0.00    +0.000 C 
ATOM     22  O   UNL     1       1.684  14.179  18.286  0.00  0.00    +0.000 OA
ENDBRANCH  15  22
ENDBRANCH  11  20
ENDBRANCH   5  12
ENDBRANCH   1   8
BRANCH   2  23
ATOM     23  C   UNL     1       2.971   3.960  19.886  0.00  0.00    +0.000 C 
BRANCH  23  24
ATOM     24  N   UNL     1       3.991   4.334  18.927  0.00  0.00    +0.000 N 
ATOM     25  C   UNL     1       3.810   4.066  17.588  0.00  0.00    +0.000 C 
ATOM     26  O   UNL     1       2.809   3.503  17.158  0.00  0.00    +0.000 OA
ATOM     27  H   UNL     1       4.653   5.047  19.206  0.00  0.00    +0.000 HD
BRANCH  25  28
ATOM     28  C   UNL     1       4.895   4.507  16.671  0.00  0.00    +0.000 A 
ATOM     29  C   UNL     1       5.097   3.803  15.485  0.00  0.00    +0.000 A 
ATOM     30  C   UNL     1       6.163   4.145  14.654  0.00  0.00    +0.000 A 
ATOM     31  C   UNL     1       7.053   5.175  14.997  0.00  0.00    +0.000 A 
ATOM     32  C   UNL     1       6.855   5.887  16.196  0.00  0.00    +0.000 A 
ATOM     33  C   UNL     1       5.765   5.552  17.016  0.00  0.00    +0.000 A 
BRANCH  31  34
ATOM     34  O   UNL     1       8.042   5.334  14.062  0.00  0.00    +0.000 OA
ATOM     35  C   UNL     1       7.721   5.208  12.684  0.00  0.00    +0.000 C 
ENDBRANCH  31  34
BRANCH  32  36
ATOM     36  O   UNL     1       7.757   6.864  16.524  0.00  0.00    +0.000 OA
ATOM     37  C   UNL     1       7.586   7.579  17.737  0.00  0.00    +0.000 C 
ENDBRANCH  32  36
ENDBRANCH  25  28
ENDBRANCH  23  24
ENDBRANCH   2  23
TORSDOF 9
ENDMDL
MODEL 3
REMARK VINA RESULT:      -7.8      1.080      1.947
REMARK  Name = 
REMARK  12 active torsions:
REMARK  status: ('A' for Active; 'I' for Inactive)
REMARK    1  A    between atoms: C_1  and  O_2
REMARK    2  A    between atoms: O_2  and  C_3
REMARK    3  A    between atoms: C_8  and  N_9
REMARK    4  A    between atoms: C_10  and  C_12
REMARK    5  A    between atoms: C_15  and  N_16
REMARK    6  A    between atoms: C_17  and  C_19
REMARK    7  A    between atoms: C_19  and  N_20
REMARK    8  A    between atoms: C_21  and  C_23
REMARK    9  A    between atoms: C_26  and  O_27
REMARK   10  A    between atoms: O_27  and  C_28
REMARK   11  A    between atoms: C_29  and  O_30
REMARK   12  A    between atoms: O_30  and  C_31
REMARK                            x       y       z     vdW  Elec       q    Type
REMARK                         _______ _______ _______ _____ _____    ______ ____
ROOT
ATOM      1  N   UNL     1       2.233   6.970  20.675  0.00  0.00    +0.000 N 
ATOM      2  C   UNL     1       1.741   5.680  20.496  0.00  0.00    +0.000 C 
ATOM      3  O   UNL     1       0.558   5.345  20.480  0.00  0.00    +0.000 OA
ATOM      4  H   UNL     1       3.237   7.103  20.608  0.00  0.00    +0.000 HD
ENDROOT
BRANCH   1   8
ATOM      5  C   UNL     1      -0.032  10.510  21.145  0.00  0.00    +0.000 A 
ATOM      6  C   UNL     1       0.509  10.188  19.906  0.00  0.00    +0.000 A 
ATOM      7  C   UNL     1       1.214   8.998  19.747  0.00  0.00    +0.000 A 
ATOM      8  C   UNL     1       1.420   8.113  20.811  0.00  0.00    +0.000 A 
ATOM      9  C   UNL     1       0.820   8.408  22.048  0.00  0.00    +0.000 A 
ATOM     10  C   UNL     1       0.124   9.617  22.218  0.00  0.00    +0.000 A 
BRANCH   5  12
ATOM     11  N   UNL     1      -0.910  12.214  22.680  0.00  0.00    +0.000 N 
ATOM     12  C   UNL     1      -0.656  11.848  21.359  0.00  0.00    +0.000 C 
ATOM     13  O   UNL     1      -0.892  12.509  20.353  0.00  0.00    +0.000 OA
ATOM     14  H   UNL     1      -0.437  11.713  23.426  0.00  0.00    +0.000 HD
BRANCH  11  20
ATOM     15  C   UNL     1      -3.076  13.360  23.068  0.00  0.00    +0.000 A 
ATOM     16  C   UNL     1      -3.759  14.479  23.579  0.00  0.00    +0.000 A 
ATOM     17  C   UNL     1      -3.074  15.610  24.004  0.00  0.00    +0.000 A 
ATOM     18  C   UNL     1      -1.694  15.639  23.937  0.00  0.00    +0.000 A 
ATOM     19  C   UNL     1      -1.003  14.518  23.495  0.00  0.00    +0.000 A 
ATOM     20  C   UNL     1      -1.660  13.350  23.090  0.00  0.00    +0.000 A 
BRANCH  15  22
ATOM     21  C   UNL     1      -4.684  12.570  21.521  0.00  0.00    +0.000 C 
ATOM     22  O   UNL     1      -3.757  12.263  22.577  0.00  0.00    +0.000 OA
ENDBRANCH  15  22
ENDBRANCH  11  20
ENDBRANCH   5  12
ENDBRANCH   1   8
BRANCH   2  23
ATOM     23  C   UNL     1       2.814   4.603  20.359  0.00  0.00    +0.000 C 
BRANCH  23  24
ATOM     24  N   UNL     1       3.743   4.962  19.305  0.00  0.00    +0.000 N 
ATOM     25  C   UNL     1       4.008   4.072  18.288  0.00  0.00    +0.000 C 
ATOM     26  O   UNL     1       3.493   2.961  18.233  0.00  0.00    +0.000 OA
ATOM     27  H   UNL     1       3.932   5.946  19.167  0.00  0.00    +0.000 HD
BRANCH  25  28
ATOM     28  C   UNL     1       4.954   4.530  17.236  0.00  0.00    +0.000 A 
ATOM     29  C   UNL     1       5.041   3.804  16.050  0.00  0.00    +0.000 A 
ATOM     30  C   UNL     1       5.984   4.166  15.088  0.00  0.00    +0.000 A 
ATOM     31  C   UNL     1       6.864   5.240  15.298  0.00  0.00    +0.000 A 
ATOM     32  C   UNL     1       6.783   5.974  16.497  0.00  0.00    +0.000 A 
ATOM     33  C   UNL     1       5.815   5.618  17.451  0.00  0.00    +0.000 A 
BRANCH  31  34
ATOM     34  O   UNL     1       7.725   5.413  14.245  0.00  0.00    +0.000 OA
ATOM     35  C   UNL     1       7.428   4.803  12.998  0.00  0.00    +0.000 C 
ENDBRANCH  31  34
BRANCH  32  36
ATOM     36  O   UNL     1       7.675   6.994  16.691  0.00  0.00    +0.000 OA
ATOM     37  C   UNL     1       7.798   7.564  17.984  0.00  0.00    +0.000 C 
ENDBRANCH  32  36
ENDBRANCH  25  28
ENDBRANCH  23  24
ENDBRANCH   2  23
TORSDOF 9
ENDMDL
MODEL 4
REMARK VINA RESULT:      -7.6      3.105     10.858
REMARK  Name = 
REMARK  12 active torsions:
REMARK  status: ('A' for Active; 'I' for Inactive)
REMARK    1  A    between atoms: C_1  and  O_2
REMARK    2  A    between atoms: O_2  and  C_3
REMARK    3  A    between atoms: C_8  and  N_9
REMARK    4  A    between atoms: C_10  and  C_12
REMARK    5  A    between atoms: C_15  and  N_16
REMARK    6  A    between atoms: C_17  and  C_19
REMARK    7  A    between atoms: C_19  and  N_20
REMARK    8  A    between atoms: C_21  and  C_23
REMARK    9  A    between atoms: C_26  and  O_27
REMARK   10  A    between atoms: O_27  and  C_28
REMARK   11  A    between atoms: C_29  and  O_30
REMARK   12  A    between atoms: O_30  and  C_31
REMARK                            x       y       z     vdW  Elec       q    Type
REMARK                         _______ _______ _______ _____ _____    ______ ____
ROOT
ATOM      1  N   UNL     1       0.207  10.958  20.189  0.00  0.00    +0.000 N 
ATOM      2  C   UNL     1       0.143  11.274  21.543  0.00  0.00    +0.000 C 
ATOM      3  O   UNL     1       0.585  10.599  22.472  0.00  0.00    +0.000 OA
ATOM      4  H   UNL     1      -0.152  11.642  19.530  0.00  0.00    +0.000 HD
ENDROOT
BRANCH   1   8
ATOM      5  C   UNL     1       2.331   7.624  18.685  0.00  0.00    +0.000 A 
ATOM      6  C   UNL     1       1.927   7.651  20.015  0.00  0.00    +0.000 A 
ATOM      7  C   UNL     1       1.188   8.731  20.492  0.00  0.00    +0.000 A 
ATOM      8  C   UNL     1       0.852   9.816  19.674  0.00  0.00    +0.000 A 
ATOM      9  C   UNL     1       1.207   9.759  18.314  0.00  0.00    +0.000 A 
ATOM     10  C   UNL     1       1.969   8.681  17.834  0.00  0.00    +0.000 A 
BRANCH   5  12
ATOM     11  N   UNL     1       4.406   6.961  17.552  0.00  0.00    +0.000 N 
ATOM     12  C   UNL     1       3.247   6.548  18.209  0.00  0.00    +0.000 C 
ATOM     13  O   UNL     1       2.902   5.393  18.437  0.00  0.00    +0.000 OA
ATOM     14  H   UNL     1       4.712   7.924  17.658  0.00  0.00    +0.000 HD
BRANCH  11  20
ATOM     15  C   UNL     1       6.324   5.388  17.538  0.00  0.00    +0.000 A 
ATOM     16  C   UNL     1       7.122   4.485  16.810  0.00  0.00    +0.000 A 
ATOM     17  C   UNL     1       7.002   4.366  15.431  0.00  0.00    +0.000 A 
ATOM     18  C   UNL     1       6.076   5.139  14.756  0.00  0.00    +0.000 A 
ATOM     19  C   UNL     1       5.238   5.988  15.468  0.00  0.00    +0.000 A 
ATOM     20  C   UNL     1       5.309   6.108  16.862  0.00  0.00    +0.000 A 
BRANCH  15  22
ATOM     21  C   UNL     1       7.856   5.768  19.302  0.00  0.00    +0.000 C 
ATOM     22  O   UNL     1       6.491   5.560  18.898  0.00  0.00    +0.000 OA
ENDBRANCH  15  22
ENDBRANCH  11  20
ENDBRANCH   5  12
ENDBRANCH   1   8
BRANCH   2  23
ATOM     23  C   UNL     1      -0.597  12.570  21.861  0.00  0.00    +0.000 C 
BRANCH  23  24
ATOM     24  N   UNL     1      -0.194  13.610  20.934  0.00  0.00    +0.000 N 
ATOM     25  C   UNL     1       0.420  14.751  21.403  0.00  0.00    +0.000 C 
ATOM     26  O   UNL     1       0.637  14.939  22.594  0.00  0.00    +0.000 OA
ATOM     27  H   UNL     1      -0.086  13.350  19.962  0.00  0.00    +0.000 HD
BRANCH  25  28
ATOM     28  C   UNL     1       0.822  15.754  20.382  0.00  0.00    +0.000 A 
ATOM     29  C   UNL     1      -0.171  16.397  19.646  0.00  0.00    +0.000 A 
ATOM     30  C   UNL     1       0.188  17.276  18.625  0.00  0.00    +0.000 A 
ATOM     31  C   UNL     1       1.535  17.514  18.308  0.00  0.00    +0.000 A 
ATOM     32  C   UNL     1       2.543  16.864  19.047  0.00  0.00    +0.000 A 
ATOM     33  C   UNL     1       2.173  15.998  20.089  0.00  0.00    +0.000 A 
BRANCH  31  34
ATOM     34  O   UNL     1       1.671  18.388  17.261  0.00  0.00    +0.000 OA
ATOM     35  C   UNL     1       0.661  18.440  16.265  0.00  0.00    +0.000 C 
ENDBRANCH  31  34
BRANCH  32  36
ATOM     36  O   UNL     1       3.847  17.087  18.695  0.00  0.00    +0.000 OA
ATOM     37  C   UNL     1       4.726  15.980  18.573  0.00  0.00    +0.000 C 
ENDBRANCH  32  36
ENDBRANCH  25  28
ENDBRANCH  23  24
ENDBRANCH   2  23
TORSDOF 9
ENDMDL
MODEL 5
REMARK VINA RESULT:      -7.5      1.924      3.060
REMARK  Name = 
REMARK  12 active torsions:
REMARK  status: ('A' for Active; 'I' for Inactive)
REMARK    1  A    between atoms: C_1  and  O_2
REMARK    2  A    between atoms: O_2  and  C_3
REMARK    3  A    between atoms: C_8  and  N_9
REMARK    4  A    between atoms: C_10  and  C_12
REMARK    5  A    between atoms: C_15  and  N_16
REMARK    6  A    between atoms: C_17  and  C_19
REMARK    7  A    between atoms: C_19  and  N_20
REMARK    8  A    between atoms: C_21  and  C_23
REMARK    9  A    between atoms: C_26  and  O_27
REMARK   10  A    between atoms: O_27  and  C_28
REMARK   11  A    between atoms: C_29  and  O_30
REMARK   12  A    between atoms: O_30  and  C_31
REMARK                            x       y       z     vdW  Elec       q    Type
REMARK                         _______ _______ _______ _____ _____    ______ ____
ROOT
ATOM      1  N   UNL     1       0.938   8.352  21.516  0.00  0.00    +0.000 N 
ATOM      2  C   UNL     1       1.525   8.055  20.290  0.00  0.00    +0.000 C 
ATOM      3  O   UNL     1       1.615   8.808  19.321  0.00  0.00    +0.000 OA
ATOM      4  H   UNL     1       0.990   7.647  22.244  0.00  0.00    +0.000 HD
ENDROOT
BRANCH   1   8
ATOM      5  C   UNL     1      -0.836  12.094  22.373  0.00  0.00    +0.000 A 
ATOM      6  C   UNL     1      -1.170  10.976  23.128  0.00  0.00    +0.000 A 
ATOM      7  C   UNL     1      -0.547   9.757  22.870  0.00  0.00    +0.000 A 
ATOM      8  C   UNL     1       0.399   9.611  21.849  0.00  0.00    +0.000 A 
ATOM      9  C   UNL     1       0.781  10.755  21.128  0.00  0.00    +0.000 A 
ATOM     10  C   UNL     1       0.142  11.983  21.372  0.00  0.00    +0.000 A 
BRANCH   5  12
ATOM     11  N   UNL     1      -2.578  13.371  23.541  0.00  0.00    +0.000 N 
ATOM     12  C   UNL     1      -1.605  13.361  22.543  0.00  0.00    +0.000 C 
ATOM     13  O   UNL     1      -1.313  14.284  21.789  0.00  0.00    +0.000 OA
ATOM     14  H   UNL     1      -2.546  12.658  24.263  0.00  0.00    +0.000 HD
BRANCH  11  20
ATOM     15  C   UNL     1      -4.741  14.459  22.996  0.00  0.00    +0.000 A 
ATOM     16  C   UNL     1      -5.694  15.445  23.312  0.00  0.00    +0.000 A 
ATOM     17  C   UNL     1      -5.434  16.419  24.268  0.00  0.00    +0.000 A 
ATOM     18  C   UNL     1      -4.222  16.420  24.932  0.00  0.00    +0.000 A 
ATOM     19  C   UNL     1      -3.297  15.416  24.676  0.00  0.00    +0.000 A 
ATOM     20  C   UNL     1      -3.539  14.399  23.743  0.00  0.00    +0.000 A 
BRANCH  15  22
ATOM     21  C   UNL     1      -6.176  12.770  22.164  0.00  0.00    +0.000 C 
ATOM     22  O   UNL     1      -4.967  13.533  21.996  0.00  0.00    +0.000 OA
ENDBRANCH  15  22
ENDBRANCH  11  20
ENDBRANCH   5  12
ENDBRANCH   1   8
BRANCH   2  23
ATOM     23  C   UNL     1       2.052   6.628  20.164  0.00  0.00    +0.000 C 
BRANCH  23  24
ATOM     24  N   UNL     1       3.071   6.566  19.135  0.00  0.00    +0.000 N 
ATOM     25  C   UNL     1       3.542   5.344  18.705  0.00  0.00    +0.000 C 
ATOM     26  O   UNL     1       3.140   4.283  19.168  0.00  0.00    +0.000 OA
ATOM     27  H   UNL     1       3.186   7.379  18.544  0.00  0.00    +0.000 HD
BRANCH  25  28
ATOM     28  C   UNL     1       4.568   5.371  17.628  0.00  0.00    +0.000 A 
ATOM     29  C   UNL     1       4.554   4.366  16.664  0.00  0.00    +0.000 A 
ATOM     30  C   UNL     1       5.559   4.323  15.699  0.00  0.00    +0.000 A 
ATOM     31  C   UNL     1       6.601   5.265  15.688  0.00  0.00    +0.000 A 
ATOM     32  C   UNL     1       6.621   6.281  16.663  0.00  0.00    +0.000 A 
ATOM     33  C   UNL     1       5.592   6.331  17.619  0.00  0.00    +0.000 A 
BRANCH  31  34
ATOM     34  O   UNL     1       7.496   5.033  14.677  0.00  0.00    +0.000 OA
ATOM     35  C   UNL     1       7.025   4.530  13.435  0.00  0.00    +0.000 C 
ENDBRANCH  31  34
BRANCH  32  36
ATOM     36  O   UNL     1       7.666   7.166  16.653  0.00  0.00    +0.000 OA
ATOM     37  C   UNL     1       7.825   8.057  17.745  0.00  0.00    +0.000 C 
ENDBRANCH  32  36
ENDBRANCH  25  28
ENDBRANCH  23  24
ENDBRANCH   2  23
TORSDOF 9
ENDMDL
MODEL 6
REMARK VINA RESULT:      -7.5      1.317      2.031
REMARK  Name = 
REMARK  12 active torsions:
REMARK  status: ('A' for Active; 'I' for Inactive)
REMARK    1  A    between atoms: C_1  and  O_2
REMARK    2  A    between atoms: O_2  and  C_3
REMARK    3  A    between atoms: C_8  and  N_9
REMARK    4  A    between atoms: C_10  and  C_12
REMARK    5  A    between atoms: C_15  and  N_16
REMARK    6  A    between atoms: C_17  and  C_19
REMARK    7  A    between atoms: C_19  and  N_20
REMARK    8  A    between atoms: C_21  and  C_23
REMARK    9  A    between atoms: C_26  and  O_27
REMARK   10  A    between atoms: O_27  and  C_28
REMARK   11  A    between atoms: C_29  and  O_30
REMARK   12  A    between atoms: O_30  and  C_31
REMARK                            x       y       z     vdW  Elec       q    Type
REMARK                         _______ _______ _______ _____ _____    ______ ____
ROOT
ATOM      1  N   UNL     1       2.420   6.970  20.496  0.00  0.00    +0.000 N 
ATOM      2  C   UNL     1       1.966   5.655  20.476  0.00  0.00    +0.000 C 
ATOM      3  O   UNL     1       0.792   5.287  20.492  0.00  0.00    +0.000 OA
ATOM      4  H   UNL     1       3.421   7.122  20.421  0.00  0.00    +0.000 HD
ENDROOT
BRANCH   1   8
ATOM      5  C   UNL     1       0.051  10.473  20.522  0.00  0.00    +0.000 A 
ATOM      6  C   UNL     1       0.709  10.085  19.360  0.00  0.00    +0.000 A 
ATOM      7  C   UNL     1       1.450   8.906  19.346  0.00  0.00    +0.000 A 
ATOM      8  C   UNL     1       1.576   8.098  20.482  0.00  0.00    +0.000 A 
ATOM      9  C   UNL     1       0.860   8.458  21.637  0.00  0.00    +0.000 A 
ATOM     10  C   UNL     1       0.127   9.657  21.662  0.00  0.00    +0.000 A 
BRANCH   5  12
ATOM     11  N   UNL     1      -1.544  11.988  21.613  0.00  0.00    +0.000 N 
ATOM     12  C   UNL     1      -0.617  11.805  20.588  0.00  0.00    +0.000 C 
ATOM     13  O   UNL     1      -0.292  12.624  19.734  0.00  0.00    +0.000 OA
ATOM     14  H   UNL     1      -1.533  11.349  22.403  0.00  0.00    +0.000 HD
BRANCH  11  20
ATOM     15  C   UNL     1      -3.432  13.146  22.731  0.00  0.00    +0.000 A 
ATOM     16  C   UNL     1      -4.200  14.318  22.869  0.00  0.00    +0.000 A 
ATOM     17  C   UNL     1      -4.054  15.383  21.990  0.00  0.00    +0.000 A 
ATOM     18  C   UNL     1      -3.132  15.303  20.964  0.00  0.00    +0.000 A 
ATOM     19  C   UNL     1      -2.322  14.179  20.854  0.00  0.00    +0.000 A 
ATOM     20  C   UNL     1      -2.419  13.100  21.743  0.00  0.00    +0.000 A 
BRANCH  15  22
ATOM     21  C   UNL     1      -4.481  12.319  24.685  0.00  0.00    +0.000 C 
ATOM     22  O   UNL     1      -3.625  12.058  23.559  0.00  0.00    +0.000 OA
ENDBRANCH  15  22
ENDBRANCH  11  20
ENDBRANCH   5  12
ENDBRANCH   1   8
BRANCH   2  23
ATOM     23  C   UNL     1       3.068   4.600  20.483  0.00  0.00    +0.000 C 
BRANCH  23  24
ATOM     24  N   UNL     1       4.025   4.876  19.428  0.00  0.00    +0.000 N 
ATOM     25  C   UNL     1       4.018   4.121  18.276  0.00  0.00    +0.000 C 
ATOM     26  O   UNL     1       3.232   3.198  18.099  0.00  0.00    +0.000 OA
ATOM     27  H   UNL     1       4.457   5.791  19.421  0.00  0.00    +0.000 HD
BRANCH  25  28
ATOM     28  C   UNL     1       5.016   4.489  17.237  0.00  0.00    +0.000 A 
ATOM     29  C   UNL     1       5.147   3.673  16.116  0.00  0.00    +0.000 A 
ATOM     30  C   UNL     1       6.137   3.951  15.173  0.00  0.00    +0.000 A 
ATOM     31  C   UNL     1       7.020   5.029  15.340  0.00  0.00    +0.000 A 
ATOM     32  C   UNL     1       6.894   5.855  16.474  0.00  0.00    +0.000 A 
ATOM     33  C   UNL     1       5.880   5.582  17.407  0.00  0.00    +0.000 A 
BRANCH  31  34
ATOM     34  O   UNL     1       7.929   5.113  14.318  0.00  0.00    +0.000 OA
ATOM     35  C   UNL     1       7.465   5.141  12.976  0.00  0.00    +0.000 C 
ENDBRANCH  31  34
BRANCH  32  36
ATOM     36  O   UNL     1       7.789   6.879  16.630  0.00  0.00    +0.000 OA
ATOM     37  C   UNL     1       7.480   7.933  17.528  0.00  0.00    +0.000 C 
ENDBRANCH  32  36
ENDBRANCH  25  28
ENDBRANCH  23  24
ENDBRANCH   2  23
TORSDOF 9
ENDMDL
MODEL 7
REMARK VINA RESULT:      -7.4      5.085     10.218
REMARK  Name = 
REMARK  12 active torsions:
REMARK  status: ('A' for Active; 'I' for Inactive)
REMARK    1  A    between atoms: C_1  and  O_2
REMARK    2  A    between atoms: O_2  and  C_3
REMARK    3  A    between atoms: C_8  and  N_9
REMARK    4  A    between atoms: C_10  and  C_12
REMARK    5  A    between atoms: C_15  and  N_16
REMARK    6  A    between atoms: C_17  and  C_19
REMARK    7  A    between atoms: C_19  and  N_20
REMARK    8  A    between atoms: C_21  and  C_23
REMARK    9  A    between atoms: C_26  and  O_27
REMARK   10  A    between atoms: O_27  and  C_28
REMARK   11  A    between atoms: C_29  and  O_30
REMARK   12  A    between atoms: O_30  and  C_31
REMARK                            x       y       z     vdW  Elec       q    Type
REMARK                         _______ _______ _______ _____ _____    ______ ____
ROOT
ATOM      1  N   UNL     1       8.574   9.278  17.438  0.00  0.00    +0.000 N 
ATOM      2  C   UNL     1       9.083  10.083  18.453  0.00  0.00    +0.000 C 
ATOM      3  O   UNL     1       8.897   9.940  19.661  0.00  0.00    +0.000 OA
ATOM      4  H   UNL     1       8.859   9.487  16.486  0.00  0.00    +0.000 HD
ENDROOT
BRANCH   1   8
ATOM      5  C   UNL     1       6.157   5.908  18.267  0.00  0.00    +0.000 A 
ATOM      6  C   UNL     1       5.735   6.858  17.345  0.00  0.00    +0.000 A 
ATOM      7  C   UNL     1       6.556   7.942  17.042  0.00  0.00    +0.000 A 
ATOM      8  C   UNL     1       7.800   8.122  17.659  0.00  0.00    +0.000 A 
ATOM      9  C   UNL     1       8.253   7.129  18.545  0.00  0.00    +0.000 A 
ATOM     10  C   UNL     1       7.419   6.044  18.867  0.00  0.00    +0.000 A 
BRANCH   5  12
ATOM     11  N   UNL     1       3.889   4.969  18.323  0.00  0.00    +0.000 N 
ATOM     12  C   UNL     1       5.223   4.832  18.706  0.00  0.00    +0.000 C 
ATOM     13  O   UNL     1       5.709   3.919  19.365  0.00  0.00    +0.000 OA
ATOM     14  H   UNL     1       3.660   5.610  17.568  0.00  0.00    +0.000 HD
BRANCH  11  20
ATOM     15  C   UNL     1       2.086   4.490  19.959  0.00  0.00    +0.000 A 
ATOM     16  C   UNL     1       0.970   3.708  20.310  0.00  0.00    +0.000 A 
ATOM     17  C   UNL     1       0.633   2.569  19.590  0.00  0.00    +0.000 A 
ATOM     18  C   UNL     1       1.398   2.196  18.501  0.00  0.00    +0.000 A 
ATOM     19  C   UNL     1       2.465   2.993  18.105  0.00  0.00    +0.000 A 
ATOM     20  C   UNL     1       2.812   4.166  18.787  0.00  0.00    +0.000 A 
BRANCH  15  22
ATOM     21  C   UNL     1       1.728   6.782  20.426  0.00  0.00    +0.000 C 
ATOM     22  O   UNL     1       2.467   5.582  20.715  0.00  0.00    +0.000 OA
ENDBRANCH  15  22
ENDBRANCH  11  20
ENDBRANCH   5  12
ENDBRANCH   1   8
BRANCH   2  23
ATOM     23  C   UNL     1       9.904  11.275  17.971  0.00  0.00    +0.000 C 
BRANCH  23  24
ATOM     24  N   UNL     1       9.270  12.512  18.382  0.00  0.00    +0.000 N 
ATOM     25  C   UNL     1       8.159  12.974  17.709  0.00  0.00    +0.000 C 
ATOM     26  O   UNL     1       7.677  12.382  16.750  0.00  0.00    +0.000 OA
ATOM     27  H   UNL     1       9.453  12.839  19.321  0.00  0.00    +0.000 HD
BRANCH  25  28
ATOM     28  C   UNL     1       7.557  14.237  18.212  0.00  0.00    +0.000 A 
ATOM     29  C   UNL     1       6.198  14.462  18.003  0.00  0.00    +0.000 A 
ATOM     30  C   UNL     1       5.633  15.676  18.388  0.00  0.00    +0.000 A 
ATOM     31  C   UNL     1       6.411  16.691  18.969  0.00  0.00    +0.000 A 
ATOM     32  C   UNL     1       7.786  16.470  19.180  0.00  0.00    +0.000 A 
ATOM     33  C   UNL     1       8.343  15.235  18.809  0.00  0.00    +0.000 A 
BRANCH  31  34
ATOM     34  O   UNL     1       5.672  17.810  19.251  0.00  0.00    +0.000 OA
ATOM     35  C   UNL     1       5.264  18.053  20.589  0.00  0.00    +0.000 C 
ENDBRANCH  31  34
BRANCH  32  36
ATOM     36  O   UNL     1       8.530  17.488  19.715  0.00  0.00    +0.000 OA
ATOM     37  C   UNL     1       9.747  17.178  20.374  0.00  0.00    +0.000 C 
ENDBRANCH  32  36
ENDBRANCH  25  28
ENDBRANCH  23  24
ENDBRANCH   2  23
TORSDOF 9
ENDMDL
MODEL 8
REMARK VINA RESULT:      -7.4      1.525      1.904
REMARK  Name = 
REMARK  12 active torsions:
REMARK  status: ('A' for Active; 'I' for Inactive)
REMARK    1  A    between atoms: C_1  and  O_2
REMARK    2  A    between atoms: O_2  and  C_3
REMARK    3  A    between atoms: C_8  and  N_9
REMARK    4  A    between atoms: C_10  and  C_12
REMARK    5  A    between atoms: C_15  and  N_16
REMARK    6  A    between atoms: C_17  and  C_19
REMARK    7  A    between atoms: C_19  and  N_20
REMARK    8  A    between atoms: C_21  and  C_23
REMARK    9  A    between atoms: C_26  and  O_27
REMARK   10  A    between atoms: O_27  and  C_28
REMARK   11  A    between atoms: C_29  and  O_30
REMARK   12  A    between atoms: O_30  and  C_31
REMARK                            x       y       z     vdW  Elec       q    Type
REMARK                         _______ _______ _______ _____ _____    ______ ____
ROOT
ATOM      1  N   UNL     1       1.945   7.476  21.141  0.00  0.00    +0.000 N 
ATOM      2  C   UNL     1       1.407   6.222  20.866  0.00  0.00    +0.000 C 
ATOM      3  O   UNL     1       0.221   5.965  20.660  0.00  0.00    +0.000 OA
ATOM      4  H   UNL     1       2.954   7.543  21.233  0.00  0.00    +0.000 HD
ENDROOT
BRANCH   1   8
ATOM      5  C   UNL     1      -0.482  10.939  21.198  0.00  0.00    +0.000 A 
ATOM      6  C   UNL     1      -0.144  10.305  22.387  0.00  0.00    +0.000 A 
ATOM      7  C   UNL     1       0.694   9.192  22.365  0.00  0.00    +0.000 A 
ATOM      8  C   UNL     1       1.196   8.669  21.168  0.00  0.00    +0.000 A 
ATOM      9  C   UNL     1       0.904   9.346  19.971  0.00  0.00    +0.000 A 
ATOM     10  C   UNL     1       0.044  10.458  19.987  0.00  0.00    +0.000 A 
BRANCH   5  12
ATOM     11  N   UNL     1      -2.354  12.085  22.297  0.00  0.00    +0.000 N 
ATOM     12  C   UNL     1      -1.494  12.034  21.200  0.00  0.00    +0.000 C 
ATOM     13  O   UNL     1      -1.482  12.794  20.237  0.00  0.00    +0.000 OA
ATOM     14  H   UNL     1      -2.101  11.581  23.141  0.00  0.00    +0.000 HD
BRANCH  11  20
ATOM     15  C   UNL     1      -3.534  14.030  23.288  0.00  0.00    +0.000 A 
ATOM     16  C   UNL     1      -4.659  14.876  23.277  0.00  0.00    +0.000 A 
ATOM     17  C   UNL     1      -5.772  14.586  22.498  0.00  0.00    +0.000 A 
ATOM     18  C   UNL     1      -5.777  13.452  21.708  0.00  0.00    +0.000 A 
ATOM     19  C   UNL     1      -4.649  12.642  21.660  0.00  0.00    +0.000 A 
ATOM     20  C   UNL     1      -3.498  12.923  22.406  0.00  0.00    +0.000 A 
BRANCH  15  22
ATOM     21  C   UNL     1      -2.799  14.936  25.347  0.00  0.00    +0.000 C 
ATOM     22  O   UNL     1      -2.456  14.277  24.115  0.00  0.00    +0.000 OA
ENDBRANCH  15  22
ENDBRANCH  11  20
ENDBRANCH   5  12
ENDBRANCH   1   8
BRANCH   2  23
ATOM     23  C   UNL     1       2.417   5.078  20.879  0.00  0.00    +0.000 C 
BRANCH  23  24
ATOM     24  N   UNL     1       3.416   5.289  19.849  0.00  0.00    +0.000 N 
ATOM     25  C   UNL     1       3.254   4.722  18.605  0.00  0.00    +0.000 C 
ATOM     26  O   UNL     1       2.289   4.022  18.321  0.00  0.00    +0.000 OA
ATOM     27  H   UNL     1       4.035   6.082  19.958  0.00  0.00    +0.000 HD
BRANCH  25  28
ATOM     28  C   UNL     1       4.314   5.010  17.602  0.00  0.00    +0.000 A 
ATOM     29  C   UNL     1       4.616   4.039  16.650  0.00  0.00    +0.000 A 
ATOM     30  C   UNL     1       5.665   4.254  15.756  0.00  0.00    +0.000 A 
ATOM     31  C   UNL     1       6.439   5.425  15.808  0.00  0.00    +0.000 A 
ATOM     32  C   UNL     1       6.139   6.408  16.771  0.00  0.00    +0.000 A 
ATOM     33  C   UNL     1       5.066   6.194  17.652  0.00  0.00    +0.000 A 
BRANCH  31  34
ATOM     34  O   UNL     1       7.432   5.428  14.863  0.00  0.00    +0.000 OA
ATOM     35  C   UNL     1       7.225   4.743  13.637  0.00  0.00    +0.000 C 
ENDBRANCH  31  34
BRANCH  32  36
ATOM     36  O   UNL     1       6.930   7.524  16.823  0.00  0.00    +0.000 OA
ATOM     37  C   UNL     1       7.849   7.667  17.893  0.00  0.00    +0.000 C 
ENDBRANCH  32  36
ENDBRANCH  25  28
ENDBRANCH  23  24
ENDBRANCH   2  23
TORSDOF 9
ENDMDL
MODEL 9
REMARK VINA RESULT:      -7.3      0.994      1.146
REMARK  Name = 
REMARK  12 active torsions:
REMARK  status: ('A' for Active; 'I' for Inactive)
REMARK    1  A    between atoms: C_1  and  O_2
REMARK    2  A    between atoms: O_2  and  C_3
REMARK    3  A    between atoms: C_8  and  N_9
REMARK    4  A    between atoms: C_10  and  C_12
REMARK    5  A    between atoms: C_15  and  N_16
REMARK    6  A    between atoms: C_17  and  C_19
REMARK    7  A    between atoms: C_19  and  N_20
REMARK    8  A    between atoms: C_21  and  C_23
REMARK    9  A    between atoms: C_26  and  O_27
REMARK   10  A    between atoms: O_27  and  C_28
REMARK   11  A    between atoms: C_29  and  O_30
REMARK   12  A    between atoms: O_30  and  C_31
REMARK                            x       y       z     vdW  Elec       q    Type
REMARK                         _______ _______ _______ _____ _____    ______ ____
ROOT
ATOM      1  N   UNL     1       2.405   6.855  19.965  0.00  0.00    +0.000 N 
ATOM      2  C   UNL     1       1.797   5.617  20.152  0.00  0.00    +0.000 C 
ATOM      3  O   UNL     1       0.682   5.415  20.632  0.00  0.00    +0.000 OA
ATOM      4  H   UNL     1       3.308   6.869  19.503  0.00  0.00    +0.000 HD
ENDROOT
BRANCH   1   8
ATOM      5  C   UNL     1       0.369  10.465  20.808  0.00  0.00    +0.000 A 
ATOM      6  C   UNL     1       0.709   9.599  21.841  0.00  0.00    +0.000 A 
ATOM      7  C   UNL     1       1.419   8.434  21.562  0.00  0.00    +0.000 A 
ATOM      8  C   UNL     1       1.790   8.089  20.257  0.00  0.00    +0.000 A 
ATOM      9  C   UNL     1       1.501   8.995  19.221  0.00  0.00    +0.000 A 
ATOM     10  C   UNL     1       0.767  10.162  19.496  0.00  0.00    +0.000 A 
BRANCH   5  12
ATOM     11  N   UNL     1       0.025  12.667  21.840  0.00  0.00    +0.000 N 
ATOM     12  C   UNL     1      -0.519  11.632  21.079  0.00  0.00    +0.000 C 
ATOM     13  O   UNL     1      -1.650  11.581  20.609  0.00  0.00    +0.000 OA
ATOM     14  H   UNL     1       1.034  12.720  21.944  0.00  0.00    +0.000 HD
BRANCH  11  20
ATOM     15  C   UNL     1      -0.625  15.061  21.785  0.00  0.00    +0.000 A 
ATOM     16  C   UNL     1      -1.443  16.087  22.292  0.00  0.00    +0.000 A 
ATOM     17  C   UNL     1      -2.240  15.887  23.412  0.00  0.00    +0.000 A 
ATOM     18  C   UNL     1      -2.242  14.655  24.039  0.00  0.00    +0.000 A 
ATOM     19  C   UNL     1      -1.489  13.614  23.512  0.00  0.00    +0.000 A 
ATOM     20  C   UNL     1      -0.700  13.771  22.365  0.00  0.00    +0.000 A 
BRANCH  15  22
ATOM     21  C   UNL     1      -0.441  15.321  19.439  0.00  0.00    +0.000 C 
ATOM     22  O   UNL     1       0.222  15.278  20.716  0.00  0.00    +0.000 OA
ENDBRANCH  15  22
ENDBRANCH  11  20
ENDBRANCH   5  12
ENDBRANCH   1   8
BRANCH   2  23
ATOM     23  C   UNL     1       2.654   4.419  19.751  0.00  0.00    +0.000 C 
BRANCH  23  24
ATOM     24  N   UNL     1       3.626   4.819  18.752  0.00  0.00    +0.000 N 
ATOM     25  C   UNL     1       4.117   3.892  17.860  0.00  0.00    +0.000 C 
ATOM     26  O   UNL     1       3.773   2.715  17.876  0.00  0.00    +0.000 OA
ATOM     27  H   UNL     1       3.686   5.804  18.530  0.00  0.00    +0.000 HD
BRANCH  25  28
ATOM     28  C   UNL     1       5.092   4.392  16.854  0.00  0.00    +0.000 A 
ATOM     29  C   UNL     1       5.213   3.713  15.643  0.00  0.00    +0.000 A 
ATOM     30  C   UNL     1       6.181   4.113  14.723  0.00  0.00    +0.000 A 
ATOM     31  C   UNL     1       7.053   5.178  14.999  0.00  0.00    +0.000 A 
ATOM     32  C   UNL     1       6.937   5.865  16.223  0.00  0.00    +0.000 A 
ATOM     33  C   UNL     1       5.944   5.471  17.135  0.00  0.00    +0.000 A 
BRANCH  31  34
ATOM     34  O   UNL     1       7.943   5.393  13.978  0.00  0.00    +0.000 OA
ATOM     35  C   UNL     1       7.606   4.974  12.664  0.00  0.00    +0.000 C 
ENDBRANCH  31  34
BRANCH  32  36
ATOM     36  O   UNL     1       7.822   6.877  16.482  0.00  0.00    +0.000 OA
ATOM     37  C   UNL     1       7.549   7.775  17.545  0.00  0.00    +0.000 C 
ENDBRANCH  32  36
ENDBRANCH  25  28
ENDBRANCH  23  24
ENDBRANCH   2  23
TORSDOF 9
ENDMDL
