MODEL 1
REMARK VINA RESULT:      -9.2      0.000      0.000
REMARK  Name = 
REMARK  5 active torsions:
REMARK  status: ('A' for Active; 'I' for Inactive)
REMARK    1  A    between atoms: C_2  and  C_3
REMARK    2  A    between atoms: C_3  and  C_22
REMARK    3  A    between atoms: C_4  and  C_5
REMARK    4  A    between atoms: C_15  and  C_16
REMARK    5  A    between atoms: N_24  and  C_25
REMARK                            x       y       z     vdW  Elec       q    Type
REMARK                         _______ _______ _______ _____ _____    ______ ____
ROOT
ATOM      1  C   UNL     1       1.417   9.350  19.529  0.00  0.00    +0.000 C 
ATOM      2  C   UNL     1       1.377  10.171  18.460  0.00  0.00    +0.000 C 
ENDROOT
BRANCH   2   3
ATOM      3  C   UNL     1       0.888  11.520  18.551  0.00  0.00    +0.000 A 
ATOM      4  S   UNL     1       2.015  12.803  18.845  0.00  0.00    +0.000 S 
ATOM      5  C   UNL     1       0.757  13.995  18.814  0.00  0.00    +0.000 A 
ATOM      6  N   UNL     1       0.953  15.322  19.046  0.00  0.00    +0.000 N 
ATOM      7  C   UNL     1      -0.189  16.242  19.175  0.00  0.00    +0.000 C 
ATOM      8  C   UNL     1      -0.117  17.338  18.098  0.00  0.00    +0.000 C 
ATOM      9  O   UNL     1       1.153  18.015  18.116  0.00  0.00    +0.000 OA
ATOM     10  C   UNL     1       2.217  17.076  17.887  0.00  0.00    +0.000 C 
ATOM     11  C   UNL     1       2.252  15.993  18.978  0.00  0.00    +0.000 C 
ATOM     12  N   UNL     1      -0.422  13.475  18.580  0.00  0.00    +0.000 NA
ATOM     13  C   UNL     1      -0.380  12.089  18.458  0.00  0.00    +0.000 A 
BRANCH  13  14
ATOM     14  C   UNL     1      -1.649  11.384  18.289  0.00  0.00    +0.000 A 
ATOM     15  C   UNL     1      -1.700  10.261  17.446  0.00  0.00    +0.000 A 
ATOM     16  C   UNL     1      -2.924   9.677  17.105  0.00  0.00    +0.000 A 
ATOM     17  C   UNL     1      -4.107  10.206  17.612  0.00  0.00    +0.000 A 
ATOM     18  C   UNL     1      -4.068  11.292  18.483  0.00  0.00    +0.000 A 
ATOM     19  C   UNL     1      -2.846  11.880  18.820  0.00  0.00    +0.000 A 
ENDBRANCH  13  14
ENDBRANCH   2   3
BRANCH   1  20
ATOM     20  C   UNL     1       1.868   7.930  19.455  0.00  0.00    +0.000 C 
ATOM     21  O   UNL     1       1.840   7.252  20.480  0.00  0.00    +0.000 OA
ATOM     22  N   UNL     1       2.350   7.517  18.209  0.00  0.00    +0.000 N 
ATOM     23  H   UNL     1       2.567   8.230  17.517  0.00  0.00    +0.000 HD
BRANCH  22  24
ATOM     24  C   UNL     1       2.813   6.209  17.895  0.00  0.00    +0.000 A 
ATOM     25  C   UNL     1       1.922   5.128  17.987  0.00  0.00    +0.000 A 
ATOM     26  C   UNL     1       2.361   3.820  17.811  0.00  0.00    +0.000 A 
ATOM     27  C   UNL     1       3.706   3.569  17.585  0.00  0.00    +0.000 A 
ATOM     28  C   UNL     1       4.622   4.620  17.472  0.00  0.00    +0.000 A 
ATOM     29  C   UNL     1       5.984   4.312  17.325  0.00  0.00    +0.000 A 
ATOM     30  C   UNL     1       6.936   5.317  17.186  0.00  0.00    +0.000 A 
ATOM     31  C   UNL     1       6.525   6.639  17.120  0.00  0.00    +0.000 A 
ATOM     32  C   UNL     1       5.170   6.965  17.289  0.00  0.00    +0.000 A 
ATOM     33  C   UNL     1       4.181   5.972  17.540  0.00  0.00    +0.000 A 
ENDBRANCH  22  24
ENDBRANCH   1  20
BRANCH   1  35
ATOM     34  N   UNL     1       0.611  10.304  22.013  0.00  0.00    +0.000 NA
ATOM     35  C   UNL     1       0.977   9.871  20.887  0.00  0.00    +0.000 C 
ENDBRANCH   1  35
TORSDOF 5
ENDMDL
MODEL 2
REMARK VINA RESULT:      -9.0      2.706      3.644
REMARK  Name = 
REMARK  5 active torsions:
REMARK  status: ('A' for Active; 'I' for Inactive)
REMARK    1  A    between atoms: C_2  and  C_3
REMARK    2  A    between atoms: C_3  and  C_22
REMARK    3  A    between atoms: C_4  and  C_5
REMARK    4  A    between atoms: C_15  and  C_16
REMARK    5  A    between atoms: N_24  and  C_25
REMARK                            x       y       z     vdW  Elec       q    Type
REMARK                         _______ _______ _______ _____ _____    ______ ____
ROOT
ATOM      1  C   UNL     1       1.233   9.773  18.727  0.00  0.00    +0.000 C 
ATOM      2  C   UNL     1       0.051   9.592  19.351  0.00  0.00    +0.000 C 
ENDROOT
BRANCH   2   3
ATOM      3  C   UNL     1      -0.732  10.693  19.842  0.00  0.00    +0.000 A 
ATOM      4  S   UNL     1      -0.303  11.419  21.355  0.00  0.00    +0.000 S 
ATOM      5  C   UNL     1      -1.602  12.561  21.244  0.00  0.00    +0.000 A 
ATOM      6  N   UNL     1      -1.902  13.477  22.205  0.00  0.00    +0.000 N 
ATOM      7  C   UNL     1      -3.125  14.292  22.114  0.00  0.00    +0.000 C 
ATOM      8  C   UNL     1      -2.767  15.787  22.069  0.00  0.00    +0.000 C 
ATOM      9  O   UNL     1      -1.923  16.164  23.172  0.00  0.00    +0.000 OA
ATOM     10  C   UNL     1      -0.705  15.401  23.145  0.00  0.00    +0.000 C 
ATOM     11  C   UNL     1      -0.986  13.894  23.268  0.00  0.00    +0.000 C 
ATOM     12  N   UNL     1      -2.298  12.423  20.142  0.00  0.00    +0.000 NA
ATOM     13  C   UNL     1      -1.849  11.367  19.355  0.00  0.00    +0.000 A 
BRANCH  13  14
ATOM     14  C   UNL     1      -2.605  11.055  18.144  0.00  0.00    +0.000 A 
ATOM     15  C   UNL     1      -1.962  10.383  17.091  0.00  0.00    +0.000 A 
ATOM     16  C   UNL     1      -2.586  10.237  15.848  0.00  0.00    +0.000 A 
ATOM     17  C   UNL     1      -3.863  10.753  15.651  0.00  0.00    +0.000 A 
ATOM     18  C   UNL     1      -4.530  11.384  16.700  0.00  0.00    +0.000 A 
ATOM     19  C   UNL     1      -3.905  11.536  17.940  0.00  0.00    +0.000 A 
ENDBRANCH  13  14
ENDBRANCH   2   3
BRANCH   1  20
ATOM     20  C   UNL     1       2.092   8.648  18.255  0.00  0.00    +0.000 C 
ATOM     21  O   UNL     1       2.595   8.725  17.136  0.00  0.00    +0.000 OA
ATOM     22  N   UNL     1       2.190   7.561  19.128  0.00  0.00    +0.000 N 
ATOM     23  H   UNL     1       1.528   7.500  19.896  0.00  0.00    +0.000 HD
BRANCH  22  24
ATOM     24  C   UNL     1       2.965   6.389  18.902  0.00  0.00    +0.000 A 
ATOM     25  C   UNL     1       4.095   6.466  18.073  0.00  0.00    +0.000 A 
ATOM     26  C   UNL     1       4.808   5.323  17.726  0.00  0.00    +0.000 A 
ATOM     27  C   UNL     1       4.376   4.081  18.166  0.00  0.00    +0.000 A 
ATOM     28  C   UNL     1       3.263   3.965  19.005  0.00  0.00    +0.000 A 
ATOM     29  C   UNL     1       2.816   2.681  19.356  0.00  0.00    +0.000 A 
ATOM     30  C   UNL     1       1.728   2.507  20.205  0.00  0.00    +0.000 A 
ATOM     31  C   UNL     1       1.122   3.618  20.770  0.00  0.00    +0.000 A 
ATOM     32  C   UNL     1       1.541   4.908  20.411  0.00  0.00    +0.000 A 
ATOM     33  C   UNL     1       2.581   5.128  19.463  0.00  0.00    +0.000 A 
ENDBRANCH  22  24
ENDBRANCH   1  20
BRANCH   1  35
ATOM     34  N   UNL     1       2.162  12.357  18.289  0.00  0.00    +0.000 NA
ATOM     35  C   UNL     1       1.740  11.186  18.488  0.00  0.00    +0.000 C 
ENDBRANCH   1  35
TORSDOF 5
ENDMDL
MODEL 3
REMARK VINA RESULT:      -8.8      2.571      3.314
REMARK  Name = 
REMARK  5 active torsions:
REMARK  status: ('A' for Active; 'I' for Inactive)
REMARK    1  A    between atoms: C_2  and  C_3
REMARK    2  A    between atoms: C_3  and  C_22
REMARK    3  A    between atoms: C_4  and  C_5
REMARK    4  A    between atoms: C_15  and  C_16
REMARK    5  A    between atoms: N_24  and  C_25
REMARK                            x       y       z     vdW  Elec       q    Type
REMARK                         _______ _______ _______ _____ _____    ______ ____
ROOT
ATOM      1  C   UNL     1       1.079   9.491  19.062  0.00  0.00    +0.000 C 
ATOM      2  C   UNL     1       0.661  10.696  18.622  0.00  0.00    +0.000 C 
ENDROOT
BRANCH   2   3
ATOM      3  C   UNL     1      -0.267  11.502  19.367  0.00  0.00    +0.000 A 
ATOM      4  S   UNL     1       0.284  12.311  20.796  0.00  0.00    +0.000 S 
ATOM      5  C   UNL     1      -1.278  13.003  21.079  0.00  0.00    +0.000 A 
ATOM      6  N   UNL     1      -1.591  13.777  22.156  0.00  0.00    +0.000 N 
ATOM      7  C   UNL     1      -2.983  14.181  22.415  0.00  0.00    +0.000 C 
ATOM      8  C   UNL     1      -3.103  15.714  22.412  0.00  0.00    +0.000 C 
ATOM      9  O   UNL     1      -2.165  16.321  23.319  0.00  0.00    +0.000 OA
ATOM     10  C   UNL     1      -0.821  15.965  22.951  0.00  0.00    +0.000 C 
ATOM     11  C   UNL     1      -0.608  14.443  23.011  0.00  0.00    +0.000 C 
ATOM     12  N   UNL     1      -2.150  12.670  20.159  0.00  0.00    +0.000 NA
ATOM     13  C   UNL     1      -1.616  11.807  19.206  0.00  0.00    +0.000 A 
BRANCH  13  14
ATOM     14  C   UNL     1      -2.518  11.290  18.180  0.00  0.00    +0.000 A 
ATOM     15  C   UNL     1      -2.005  10.440  17.185  0.00  0.00    +0.000 A 
ATOM     16  C   UNL     1      -2.783  10.080  16.080  0.00  0.00    +0.000 A 
ATOM     17  C   UNL     1      -4.085  10.559  15.966  0.00  0.00    +0.000 A 
ATOM     18  C   UNL     1      -4.620  11.368  16.967  0.00  0.00    +0.000 A 
ATOM     19  C   UNL     1      -3.842  11.733  18.068  0.00  0.00    +0.000 A 
ENDBRANCH  13  14
ENDBRANCH   2   3
BRANCH   1  20
ATOM     20  C   UNL     1       1.998   8.609  18.285  0.00  0.00    +0.000 C 
ATOM     21  O   UNL     1       2.432   9.016  17.210  0.00  0.00    +0.000 OA
ATOM     22  N   UNL     1       2.231   7.348  18.840  0.00  0.00    +0.000 N 
ATOM     23  H   UNL     1       1.619   7.030  19.587  0.00  0.00    +0.000 HD
BRANCH  22  24
ATOM     24  C   UNL     1       3.085   6.349  18.292  0.00  0.00    +0.000 A 
ATOM     25  C   UNL     1       4.245   6.742  17.607  0.00  0.00    +0.000 A 
ATOM     26  C   UNL     1       5.040   5.809  16.950  0.00  0.00    +0.000 A 
ATOM     27  C   UNL     1       4.663   4.475  16.929  0.00  0.00    +0.000 A 
ATOM     28  C   UNL     1       3.522   4.042  17.612  0.00  0.00    +0.000 A 
ATOM     29  C   UNL     1       3.136   2.697  17.493  0.00  0.00    +0.000 A 
ATOM     30  C   UNL     1       2.023   2.207  18.168  0.00  0.00    +0.000 A 
ATOM     31  C   UNL     1       1.326   3.043  19.027  0.00  0.00    +0.000 A 
ATOM     32  C   UNL     1       1.684   4.395  19.138  0.00  0.00    +0.000 A 
ATOM     33  C   UNL     1       2.751   4.958  18.382  0.00  0.00    +0.000 A 
ENDBRANCH  22  24
ENDBRANCH   1  20
BRANCH   1  35
ATOM     34  N   UNL     1       0.194   8.557  21.526  0.00  0.00    +0.000 NA
ATOM     35  C   UNL     1       0.595   8.980  20.409  0.00  0.00    +0.000 C 
ENDBRANCH   1  35
TORSDOF 5
ENDMDL
MODEL 4
REMARK VINA RESULT:      -8.7      1.966      2.881
REMARK  Name = 
REMARK  5 active torsions:
REMARK  status: ('A' for Active; 'I' for Inactive)
REMARK    1  A    between atoms: C_2  and  C_3
REMARK    2  A    between atoms: C_3  and  C_22
REMARK    3  A    between atoms: C_4  and  C_5
REMARK    4  A    between atoms: C_15  and  C_16
REMARK    5  A    between atoms: N_24  and  C_25
REMARK                            x       y       z     vdW  Elec       q    Type
REMARK                         _______ _______ _______ _____ _____    ______ ____
ROOT
ATOM      1  C   UNL     1       1.491   9.446  19.050  0.00  0.00    +0.000 C 
ATOM      2  C   UNL     1       1.311  10.692  18.567  0.00  0.00    +0.000 C 
ENDROOT
BRANCH   2   3
ATOM      3  C   UNL     1       0.633  11.713  19.318  0.00  0.00    +0.000 A 
ATOM      4  S   UNL     1       1.558  12.748  20.355  0.00  0.00    +0.000 S 
ATOM      5  C   UNL     1       0.143  13.617  20.849  0.00  0.00    +0.000 A 
ATOM      6  N   UNL     1       0.142  14.619  21.771  0.00  0.00    +0.000 N 
ATOM      7  C   UNL     1      -1.123  15.188  22.265  0.00  0.00    +0.000 C 
ATOM      8  C   UNL     1      -1.190  16.693  21.952  0.00  0.00    +0.000 C 
ATOM      9  O   UNL     1      -0.031  17.388  22.446  0.00  0.00    +0.000 OA
ATOM     10  C   UNL     1       1.161  16.849  21.851  0.00  0.00    +0.000 C 
ATOM     11  C   UNL     1       1.333  15.359  22.192  0.00  0.00    +0.000 C 
ATOM     12  N   UNL     1      -0.945  13.179  20.266  0.00  0.00    +0.000 NA
ATOM     13  C   UNL     1      -0.702  12.095  19.427  0.00  0.00    +0.000 A 
BRANCH  13  14
ATOM     14  C   UNL     1      -1.854  11.459  18.791  0.00  0.00    +0.000 A 
ATOM     15  C   UNL     1      -1.636  10.460  17.827  0.00  0.00    +0.000 A 
ATOM     16  C   UNL     1      -2.694   9.964  17.059  0.00  0.00    +0.000 A 
ATOM     17  C   UNL     1      -3.981  10.456  17.256  0.00  0.00    +0.000 A 
ATOM     18  C   UNL     1      -4.218  11.415  18.239  0.00  0.00    +0.000 A 
ATOM     19  C   UNL     1      -3.161  11.915  19.002  0.00  0.00    +0.000 A 
ENDBRANCH  13  14
ENDBRANCH   2   3
BRANCH   1  20
ATOM     20  C   UNL     1       2.143   8.352  18.272  0.00  0.00    +0.000 C 
ATOM     21  O   UNL     1       2.373   8.538  17.079  0.00  0.00    +0.000 OA
ATOM     22  N   UNL     1       2.376   7.170  18.979  0.00  0.00    +0.000 N 
ATOM     23  H   UNL     1       1.911   7.044  19.874  0.00  0.00    +0.000 HD
BRANCH  22  24
ATOM     24  C   UNL     1       3.002   6.004  18.455  0.00  0.00    +0.000 A 
ATOM     25  C   UNL     1       4.138   6.145  17.642  0.00  0.00    +0.000 A 
ATOM     26  C   UNL     1       4.706   5.044  17.009  0.00  0.00    +0.000 A 
ATOM     27  C   UNL     1       4.122   3.794  17.142  0.00  0.00    +0.000 A 
ATOM     28  C   UNL     1       2.999   3.611  17.955  0.00  0.00    +0.000 A 
ATOM     29  C   UNL     1       2.394   2.344  17.992  0.00  0.00    +0.000 A 
ATOM     30  C   UNL     1       1.289   2.100  18.800  0.00  0.00    +0.000 A 
ATOM     31  C   UNL     1       0.821   3.103  19.634  0.00  0.00    +0.000 A 
ATOM     32  C   UNL     1       1.398   4.381  19.591  0.00  0.00    +0.000 A 
ATOM     33  C   UNL     1       2.462   4.699  18.700  0.00  0.00    +0.000 A 
ENDBRANCH  22  24
ENDBRANCH   1  20
BRANCH   1  35
ATOM     34  N   UNL     1       0.602   8.833  21.612  0.00  0.00    +0.000 NA
ATOM     35  C   UNL     1       1.005   9.112  20.450  0.00  0.00    +0.000 C 
ENDBRANCH   1  35
TORSDOF 5
ENDMDL
MODEL 5
REMARK VINA RESULT:      -8.7      0.977      1.308
REMARK  Name = 
REMARK  5 active torsions:
REMARK  status: ('A' for Active; 'I' for Inactive)
REMARK    1  A    between atoms: C_2  and  C_3
REMARK    2  A    between atoms: C_3  and  C_22
REMARK    3  A    between atoms: C_4  and  C_5
REMARK    4  A    between atoms: C_15  and  C_16
REMARK    5  A    between atoms: N_24  and  C_25
REMARK                            x       y       z     vdW  Elec       q    Type
REMARK                         _______ _______ _______ _____ _____    ______ ____
ROOT
ATOM      1  C   UNL     1       0.996   9.771  20.224  0.00  0.00    +0.000 C 
ATOM      2  C   UNL     1       1.147  10.435  19.059  0.00  0.00    +0.000 C 
ENDROOT
BRANCH   2   3
ATOM      3  C   UNL     1       0.716  11.796  18.893  0.00  0.00    +0.000 A 
ATOM      4  S   UNL     1       1.817  13.078  19.271  0.00  0.00    +0.000 S 
ATOM      5  C   UNL     1       0.651  14.286  18.844  0.00  0.00    +0.000 A 
ATOM      6  N   UNL     1       0.858  15.627  18.961  0.00  0.00    +0.000 N 
ATOM      7  C   UNL     1      -0.242  16.581  18.743  0.00  0.00    +0.000 C 
ATOM      8  C   UNL     1       0.103  17.539  17.589  0.00  0.00    +0.000 C 
ATOM      9  O   UNL     1       1.372  18.183  17.797  0.00  0.00    +0.000 OA
ATOM     10  C   UNL     1       2.415  17.200  17.904  0.00  0.00    +0.000 C 
ATOM     11  C   UNL     1       2.174  16.254  19.092  0.00  0.00    +0.000 C 
ATOM     12  N   UNL     1      -0.479  13.769  18.427  0.00  0.00    +0.000 NA
ATOM     13  C   UNL     1      -0.478  12.378  18.473  0.00  0.00    +0.000 A 
BRANCH  13  14
ATOM     14  C   UNL     1      -1.717  11.688  18.121  0.00  0.00    +0.000 A 
ATOM     15  C   UNL     1      -2.930  12.141  18.668  0.00  0.00    +0.000 A 
ATOM     16  C   UNL     1      -4.105  11.399  18.515  0.00  0.00    +0.000 A 
ATOM     17  C   UNL     1      -4.080  10.202  17.805  0.00  0.00    +0.000 A 
ATOM     18  C   UNL     1      -2.893   9.764  17.221  0.00  0.00    +0.000 A 
ATOM     19  C   UNL     1      -1.717  10.501  17.378  0.00  0.00    +0.000 A 
ENDBRANCH  13  14
ENDBRANCH   2   3
BRANCH   1  20
ATOM     20  C   UNL     1       1.386   8.343  20.410  0.00  0.00    +0.000 C 
ATOM     21  O   UNL     1       1.104   7.792  21.472  0.00  0.00    +0.000 OA
ATOM     22  N   UNL     1       2.108   7.776  19.356  0.00  0.00    +0.000 N 
ATOM     23  H   UNL     1       2.504   8.396  18.655  0.00  0.00    +0.000 HD
BRANCH  22  24
ATOM     24  C   UNL     1       2.566   6.429  19.300  0.00  0.00    +0.000 A 
ATOM     25  C   UNL     1       2.043   5.491  20.204  0.00  0.00    +0.000 A 
ATOM     26  C   UNL     1       2.551   4.197  20.267  0.00  0.00    +0.000 A 
ATOM     27  C   UNL     1       3.619   3.836  19.461  0.00  0.00    +0.000 A 
ATOM     28  C   UNL     1       4.158   4.738  18.538  0.00  0.00    +0.000 A 
ATOM     29  C   UNL     1       5.291   4.352  17.803  0.00  0.00    +0.000 A 
ATOM     30  C   UNL     1       5.855   5.201  16.857  0.00  0.00    +0.000 A 
ATOM     31  C   UNL     1       5.246   6.416  16.584  0.00  0.00    +0.000 A 
ATOM     32  C   UNL     1       4.129   6.826  17.326  0.00  0.00    +0.000 A 
ATOM     33  C   UNL     1       3.587   6.032  18.376  0.00  0.00    +0.000 A 
ENDBRANCH  22  24
ENDBRANCH   1  20
BRANCH   1  35
ATOM     34  N   UNL     1      -0.108  11.086  22.411  0.00  0.00    +0.000 NA
ATOM     35  C   UNL     1       0.393  10.491  21.419  0.00  0.00    +0.000 C 
ENDBRANCH   1  35
TORSDOF 5
ENDMDL
MODEL 6
REMARK VINA RESULT:      -8.6      2.821      5.057
REMARK  Name = 
REMARK  5 active torsions:
REMARK  status: ('A' for Active; 'I' for Inactive)
REMARK    1  A    between atoms: C_2  and  C_3
REMARK    2  A    between atoms: C_3  and  C_22
REMARK    3  A    between atoms: C_4  and  C_5
REMARK    4  A    between atoms: C_15  and  C_16
REMARK    5  A    between atoms: N_24  and  C_25
REMARK                            x       y       z     vdW  Elec       q    Type
REMARK                         _______ _______ _______ _____ _____    ______ ____
ROOT
ATOM      1  C   UNL     1       1.440   9.482  19.183  0.00  0.00    +0.000 C 
ATOM      2  C   UNL     1       1.055  10.678  18.692  0.00  0.00    +0.000 C 
ENDROOT
BRANCH   2   3
ATOM      3  C   UNL     1       0.435  11.679  19.516  0.00  0.00    +0.000 A 
ATOM      4  S   UNL     1      -1.218  11.469  19.990  0.00  0.00    +0.000 S 
ATOM      5  C   UNL     1      -1.214  12.955  20.881  0.00  0.00    +0.000 A 
ATOM      6  N   UNL     1      -2.301  13.470  21.519  0.00  0.00    +0.000 N 
ATOM      7  C   UNL     1      -2.262  14.821  22.104  0.00  0.00    +0.000 C 
ATOM      8  C   UNL     1      -2.528  14.754  23.618  0.00  0.00    +0.000 C 
ATOM      9  O   UNL     1      -3.748  14.051  23.911  0.00  0.00    +0.000 OA
ATOM     10  C   UNL     1      -3.681  12.710  23.398  0.00  0.00    +0.000 C 
ATOM     11  C   UNL     1      -3.496  12.703  21.871  0.00  0.00    +0.000 C 
ATOM     12  N   UNL     1      -0.052  13.559  20.844  0.00  0.00    +0.000 NA
ATOM     13  C   UNL     1       0.879  12.880  20.063  0.00  0.00    +0.000 A 
BRANCH  13  14
ATOM     14  C   UNL     1       2.186  13.505  19.869  0.00  0.00    +0.000 A 
ATOM     15  C   UNL     1       2.940  13.873  20.996  0.00  0.00    +0.000 A 
ATOM     16  C   UNL     1       4.100  14.643  20.860  0.00  0.00    +0.000 A 
ATOM     17  C   UNL     1       4.520  15.043  19.595  0.00  0.00    +0.000 A 
ATOM     18  C   UNL     1       3.805  14.648  18.466  0.00  0.00    +0.000 A 
ATOM     19  C   UNL     1       2.643  13.884  18.601  0.00  0.00    +0.000 A 
ENDBRANCH  13  14
ENDBRANCH   2   3
BRANCH   1  20
ATOM     20  C   UNL     1       2.037   8.404  18.341  0.00  0.00    +0.000 C 
ATOM     21  O   UNL     1       2.149   8.599  17.133  0.00  0.00    +0.000 OA
ATOM     22  N   UNL     1       2.358   7.224  19.017  0.00  0.00    +0.000 N 
ATOM     23  H   UNL     1       1.982   7.086  19.951  0.00  0.00    +0.000 HD
BRANCH  22  24
ATOM     24  C   UNL     1       2.954   6.073  18.430  0.00  0.00    +0.000 A 
ATOM     25  C   UNL     1       4.040   6.236  17.555  0.00  0.00    +0.000 A 
ATOM     26  C   UNL     1       4.572   5.152  16.863  0.00  0.00    +0.000 A 
ATOM     27  C   UNL     1       3.999   3.898  17.002  0.00  0.00    +0.000 A 
ATOM     28  C   UNL     1       2.926   3.692  17.875  0.00  0.00    +0.000 A 
ATOM     29  C   UNL     1       2.327   2.422  17.918  0.00  0.00    +0.000 A 
ATOM     30  C   UNL     1       1.271   2.156  18.783  0.00  0.00    +0.000 A 
ATOM     31  C   UNL     1       0.852   3.138  19.667  0.00  0.00    +0.000 A 
ATOM     32  C   UNL     1       1.423   4.419  19.620  0.00  0.00    +0.000 A 
ATOM     33  C   UNL     1       2.432   4.761  18.676  0.00  0.00    +0.000 A 
ENDBRANCH  22  24
ENDBRANCH   1  20
BRANCH   1  35
ATOM     34  N   UNL     1       1.105   8.947  21.891  0.00  0.00    +0.000 NA
ATOM     35  C   UNL     1       1.257   9.190  20.663  0.00  0.00    +0.000 C 
ENDBRANCH   1  35
TORSDOF 5
ENDMDL
MODEL 7
REMARK VINA RESULT:      -8.5      1.515      1.766
REMARK  Name = 
REMARK  5 active torsions:
REMARK  status: ('A' for Active; 'I' for Inactive)
REMARK    1  A    between atoms: C_2  and  C_3
REMARK    2  A    between atoms: C_3  and  C_22
REMARK    3  A    between atoms: C_4  and  C_5
REMARK    4  A    between atoms: C_15  and  C_16
REMARK    5  A    between atoms: N_24  and  C_25
REMARK                            x       y       z     vdW  Elec       q    Type
REMARK                         _______ _______ _______ _____ _____    ______ ____
ROOT
ATOM      1  C   UNL     1       1.336   9.310  19.237  0.00  0.00    +0.000 C 
ATOM      2  C   UNL     1       0.296   9.707  19.998  0.00  0.00    +0.000 C 
ENDROOT
BRANCH   2   3
ATOM      3  C   UNL     1      -0.186  11.061  19.987  0.00  0.00    +0.000 A 
ATOM      4  S   UNL     1       0.542  12.221  21.049  0.00  0.00    +0.000 S 
ATOM      5  C   UNL     1      -0.498  13.484  20.480  0.00  0.00    +0.000 A 
ATOM      6  N   UNL     1      -0.499  14.755  20.968  0.00  0.00    +0.000 N 
ATOM      7  C   UNL     1      -1.531  15.721  20.555  0.00  0.00    +0.000 C 
ATOM      8  C   UNL     1      -0.880  16.941  19.880  0.00  0.00    +0.000 C 
ATOM      9  O   UNL     1       0.136  17.527  20.712  0.00  0.00    +0.000 OA
ATOM     10  C   UNL     1       1.161  16.561  20.997  0.00  0.00    +0.000 C 
ATOM     11  C   UNL     1       0.591  15.345  21.747  0.00  0.00    +0.000 C 
ATOM     12  N   UNL     1      -1.322  13.075  19.546  0.00  0.00    +0.000 NA
ATOM     13  C   UNL     1      -1.186  11.717  19.273  0.00  0.00    +0.000 A 
BRANCH  13  14
ATOM     14  C   UNL     1      -2.116  11.123  18.315  0.00  0.00    +0.000 A 
ATOM     15  C   UNL     1      -1.611  10.292  17.299  0.00  0.00    +0.000 A 
ATOM     16  C   UNL     1      -2.433   9.861  16.253  0.00  0.00    +0.000 A 
ATOM     17  C   UNL     1      -3.769  10.250  16.218  0.00  0.00    +0.000 A 
ATOM     18  C   UNL     1      -4.292  11.038  17.241  0.00  0.00    +0.000 A 
ATOM     19  C   UNL     1      -3.471  11.474  18.284  0.00  0.00    +0.000 A 
ENDBRANCH  13  14
ENDBRANCH   2   3
BRANCH   1  20
ATOM     20  C   UNL     1       1.892   7.926  19.267  0.00  0.00    +0.000 C 
ATOM     21  O   UNL     1       1.900   7.321  20.337  0.00  0.00    +0.000 OA
ATOM     22  N   UNL     1       2.421   7.465  18.059  0.00  0.00    +0.000 N 
ATOM     23  H   UNL     1       2.595   8.141  17.320  0.00  0.00    +0.000 HD
BRANCH  22  24
ATOM     24  C   UNL     1       2.985   6.176  17.843  0.00  0.00    +0.000 A 
ATOM     25  C   UNL     1       2.161   5.044  17.943  0.00  0.00    +0.000 A 
ATOM     26  C   UNL     1       2.693   3.761  17.862  0.00  0.00    +0.000 A 
ATOM     27  C   UNL     1       4.062   3.590  17.727  0.00  0.00    +0.000 A 
ATOM     28  C   UNL     1       4.914   4.692  17.609  0.00  0.00    +0.000 A 
ATOM     29  C   UNL     1       6.300   4.469  17.557  0.00  0.00    +0.000 A 
ATOM     30  C   UNL     1       7.192   5.527  17.418  0.00  0.00    +0.000 A 
ATOM     31  C   UNL     1       6.702   6.814  17.257  0.00  0.00    +0.000 A 
ATOM     32  C   UNL     1       5.322   7.056  17.331  0.00  0.00    +0.000 A 
ATOM     33  C   UNL     1       4.384   6.014  17.579  0.00  0.00    +0.000 A 
ENDBRANCH  22  24
ENDBRANCH   1  20
BRANCH   1  35
ATOM     34  N   UNL     1       2.546  11.132  17.520  0.00  0.00    +0.000 NA
ATOM     35  C   UNL     1       1.997  10.306  18.299  0.00  0.00    +0.000 C 
ENDBRANCH   1  35
TORSDOF 5
ENDMDL
MODEL 8
REMARK VINA RESULT:      -8.5      2.764      4.985
REMARK  Name = 
REMARK  5 active torsions:
REMARK  status: ('A' for Active; 'I' for Inactive)
REMARK    1  A    between atoms: C_2  and  C_3
REMARK    2  A    between atoms: C_3  and  C_22
REMARK    3  A    between atoms: C_4  and  C_5
REMARK    4  A    between atoms: C_15  and  C_16
REMARK    5  A    between atoms: N_24  and  C_25
REMARK                            x       y       z     vdW  Elec       q    Type
REMARK                         _______ _______ _______ _____ _____    ______ ____
ROOT
ATOM      1  C   UNL     1       1.038   9.985  19.198  0.00  0.00    +0.000 C 
ATOM      2  C   UNL     1       0.399  10.988  18.562  0.00  0.00    +0.000 C 
ENDROOT
BRANCH   2   3
ATOM      3  C   UNL     1      -0.325  12.006  19.273  0.00  0.00    +0.000 A 
ATOM      4  S   UNL     1      -2.016  11.778  19.573  0.00  0.00    +0.000 S 
ATOM      5  C   UNL     1      -2.135  13.296  20.400  0.00  0.00    +0.000 A 
ATOM      6  N   UNL     1      -3.295  13.811  20.894  0.00  0.00    +0.000 N 
ATOM      7  C   UNL     1      -3.344  15.183  21.427  0.00  0.00    +0.000 C 
ATOM      8  C   UNL     1      -3.773  15.167  22.904  0.00  0.00    +0.000 C 
ATOM      9  O   UNL     1      -5.006  14.448  23.090  0.00  0.00    +0.000 OA
ATOM     10  C   UNL     1      -4.860  13.091  22.641  0.00  0.00    +0.000 C 
ATOM     11  C   UNL     1      -4.508  13.031  21.145  0.00  0.00    +0.000 C 
ATOM     12  N   UNL     1      -0.987  13.923  20.466  0.00  0.00    +0.000 NA
ATOM     13  C   UNL     1       0.035  13.236  19.818  0.00  0.00    +0.000 A 
BRANCH  13  14
ATOM     14  C   UNL     1       1.344  13.881  19.744  0.00  0.00    +0.000 A 
ATOM     15  C   UNL     1       2.338  13.518  20.668  0.00  0.00    +0.000 A 
ATOM     16  C   UNL     1       3.532  14.241  20.757  0.00  0.00    +0.000 A 
ATOM     17  C   UNL     1       3.745  15.328  19.914  0.00  0.00    +0.000 A 
ATOM     18  C   UNL     1       2.786  15.672  18.964  0.00  0.00    +0.000 A 
ATOM     19  C   UNL     1       1.591  14.954  18.878  0.00  0.00    +0.000 A 
ENDBRANCH  13  14
ENDBRANCH   2   3
BRANCH   1  20
ATOM     20  C   UNL     1       1.752   8.886  18.485  0.00  0.00    +0.000 C 
ATOM     21  O   UNL     1       1.972   9.014  17.282  0.00  0.00    +0.000 OA
ATOM     22  N   UNL     1       2.052   7.763  19.261  0.00  0.00    +0.000 N 
ATOM     23  H   UNL     1       1.594   7.664  20.163  0.00  0.00    +0.000 HD
BRANCH  22  24
ATOM     24  C   UNL     1       2.744   6.606  18.805  0.00  0.00    +0.000 A 
ATOM     25  C   UNL     1       3.757   6.749  17.843  0.00  0.00    +0.000 A 
ATOM     26  C   UNL     1       4.372   5.636  17.279  0.00  0.00    +0.000 A 
ATOM     27  C   UNL     1       3.954   4.364  17.635  0.00  0.00    +0.000 A 
ATOM     28  C   UNL     1       2.958   4.180  18.600  0.00  0.00    +0.000 A 
ATOM     29  C   UNL     1       2.512   2.875  18.866  0.00  0.00    +0.000 A 
ATOM     30  C   UNL     1       1.541   2.632  19.831  0.00  0.00    +0.000 A 
ATOM     31  C   UNL     1       1.059   3.685  20.592  0.00  0.00    +0.000 A 
ATOM     32  C   UNL     1       1.477   4.997  20.322  0.00  0.00    +0.000 A 
ATOM     33  C   UNL     1       2.389   5.298  19.271  0.00  0.00    +0.000 A 
ENDBRANCH  22  24
ENDBRANCH   1  20
BRANCH   1  35
ATOM     34  N   UNL     1       1.036   9.911  21.978  0.00  0.00    +0.000 NA
ATOM     35  C   UNL     1       1.036   9.945  20.717  0.00  0.00    +0.000 C 
ENDBRANCH   1  35
TORSDOF 5
ENDMDL
MODEL 9
REMARK VINA RESULT:      -8.4      2.822      5.280
REMARK  Name = 
REMARK  5 active torsions:
REMARK  status: ('A' for Active; 'I' for Inactive)
REMARK    1  A    between atoms: C_2  and  C_3
REMARK    2  A    between atoms: C_3  and  C_22
REMARK    3  A    between atoms: C_4  and  C_5
REMARK    4  A    between atoms: C_15  and  C_16
REMARK    5  A    between atoms: N_24  and  C_25
REMARK                            x       y       z     vdW  Elec       q    Type
REMARK                         _______ _______ _______ _____ _____    ______ ____
ROOT
ATOM      1  C   UNL     1       0.430   9.686  18.543  0.00  0.00    +0.000 C 
ATOM      2  C   UNL     1      -0.386  10.429  17.767  0.00  0.00    +0.000 C 
ENDROOT
BRANCH   2   3
ATOM      3  C   UNL     1      -1.566  11.064  18.287  0.00  0.00    +0.000 A 
ATOM      4  S   UNL     1      -3.117  10.395  17.902  0.00  0.00    +0.000 S 
ATOM      5  C   UNL     1      -3.937  11.614  18.821  0.00  0.00    +0.000 A 
ATOM      6  N   UNL     1      -5.291  11.724  18.912  0.00  0.00    +0.000 N 
ATOM      7  C   UNL     1      -5.911  12.888  19.567  0.00  0.00    +0.000 C 
ATOM      8  C   UNL     1      -6.767  12.436  20.762  0.00  0.00    +0.000 C 
ATOM      9  O   UNL     1      -7.725  11.433  20.378  0.00  0.00    +0.000 OA
ATOM     10  C   UNL     1      -7.049  10.285  19.837  0.00  0.00    +0.000 C 
ATOM     11  C   UNL     1      -6.234  10.653  18.586  0.00  0.00    +0.000 C 
ATOM     12  N   UNL     1      -3.110  12.453  19.393  0.00  0.00    +0.000 NA
ATOM     13  C   UNL     1      -1.779  12.184  19.087  0.00  0.00    +0.000 A 
BRANCH  13  14
ATOM     14  C   UNL     1      -0.767  13.109  19.592  0.00  0.00    +0.000 A 
ATOM     15  C   UNL     1      -0.087  13.939  18.684  0.00  0.00    +0.000 A 
ATOM     16  C   UNL     1       1.016  14.695  19.093  0.00  0.00    +0.000 A 
ATOM     17  C   UNL     1       1.443  14.634  20.417  0.00  0.00    +0.000 A 
ATOM     18  C   UNL     1       0.751  13.848  21.337  0.00  0.00    +0.000 A 
ATOM     19  C   UNL     1      -0.347  13.088  20.928  0.00  0.00    +0.000 A 
ENDBRANCH  13  14
ENDBRANCH   2   3
BRANCH   1  20
ATOM     20  C   UNL     1       1.631   8.972  18.020  0.00  0.00    +0.000 C 
ATOM     21  O   UNL     1       2.398   9.581  17.277  0.00  0.00    +0.000 OA
ATOM     22  N   UNL     1       1.736   7.627  18.385  0.00  0.00    +0.000 N 
ATOM     23  H   UNL     1       0.918   7.170  18.778  0.00  0.00    +0.000 HD
BRANCH  22  24
ATOM     24  C   UNL     1       2.801   6.755  18.024  0.00  0.00    +0.000 A 
ATOM     25  C   UNL     1       4.008   7.303  17.562  0.00  0.00    +0.000 A 
ATOM     26  C   UNL     1       5.029   6.489  17.083  0.00  0.00    +0.000 A 
ATOM     27  C   UNL     1       4.841   5.117  17.015  0.00  0.00    +0.000 A 
ATOM     28  C   UNL     1       3.658   4.531  17.478  0.00  0.00    +0.000 A 
ATOM     29  C   UNL     1       3.483   3.148  17.313  0.00  0.00    +0.000 A 
ATOM     30  C   UNL     1       2.336   2.510  17.775  0.00  0.00    +0.000 A 
ATOM     31  C   UNL     1       1.386   3.239  18.473  0.00  0.00    +0.000 A 
ATOM     32  C   UNL     1       1.536   4.626  18.626  0.00  0.00    +0.000 A 
ATOM     33  C   UNL     1       2.642   5.331  18.074  0.00  0.00    +0.000 A 
ENDBRANCH  22  24
ENDBRANCH   1  20
BRANCH   1  35
ATOM     34  N   UNL     1      -0.127   9.430  21.255  0.00  0.00    +0.000 NA
ATOM     35  C   UNL     1       0.126   9.546  20.025  0.00  0.00    +0.000 C 
ENDBRANCH   1  35
TORSDOF 5
ENDMDL
