MODEL 1
REMARK VINA RESULT:      -8.7      0.000      0.000
REMARK  Name = 
REMARK  3 active torsions:
REMARK  status: ('A' for Active; 'I' for Inactive)
REMARK    1  A    between atoms: C_5  and  C_6
REMARK    2  A    between atoms: C_10  and  C_11
REMARK    3  A    between atoms: C_18  and  N_19
REMARK                            x       y       z     vdW  Elec       q    Type
REMARK                         _______ _______ _______ _____ _____    ______ ____
ROOT
ATOM      1  C   UNL     1       2.411   7.611  18.933  0.00  0.00    +0.000 A 
ATOM      2  C   UNL     1       3.174   7.940  17.792  0.00  0.00    +0.000 A 
ATOM      3  C   UNL     1       3.697   6.757  17.333  0.00  0.00    +0.000 A 
ATOM      4  N   UNL     1       4.509   6.504  16.268  0.00  0.00    +0.000 NA
ATOM      5  C   UNL     1       4.828   5.261  16.063  0.00  0.00    +0.000 A 
ATOM      6  C   UNL     1       4.392   4.120  16.926  0.00  0.00    +0.000 A 
ATOM      7  C   UNL     1       3.572   4.385  17.965  0.00  0.00    +0.000 A 
ATOM      8  N   UNL     1       3.222   5.753  18.185  0.00  0.00    +0.000 N 
ATOM      9  N   UNL     1       2.465   6.299  19.187  0.00  0.00    +0.000 NA
ENDROOT
BRANCH   1  14
ATOM     10  F   UNL     1      -0.500  11.094  22.210  0.00  0.00    +0.000 F 
ATOM     11  C   UNL     1       0.195  10.261  21.425  0.00  0.00    +0.000 A 
ATOM     12  C   UNL     1       0.414  10.597  20.094  0.00  0.00    +0.000 A 
ATOM     13  C   UNL     1       1.140   9.730  19.274  0.00  0.00    +0.000 A 
ATOM     14  C   UNL     1       1.646   8.523  19.785  0.00  0.00    +0.000 A 
ATOM     15  C   UNL     1       1.406   8.202  21.132  0.00  0.00    +0.000 A 
ATOM     16  C   UNL     1       0.683   9.072  21.953  0.00  0.00    +0.000 A 
ENDBRANCH   1  14
BRANCH   7  17
ATOM     17  N   UNL     1       3.070   3.361  18.796  0.00  0.00    +0.000 N 
ATOM     18  C   UNL     1       3.828   2.765  19.917  0.00  0.00    +0.000 C 
ATOM     19  C   UNL     1       2.957   2.760  21.198  0.00  0.00    +0.000 C 
ATOM     20  N   UNL     1       1.637   2.117  21.035  0.00  0.00    +0.000 NA
ATOM     21  C   UNL     1       0.939   2.711  19.880  0.00  0.00    +0.000 C 
ATOM     22  C   UNL     1       1.777   2.682  18.584  0.00  0.00    +0.000 C 
ATOM     23  H   UNL     1       1.087   2.275  21.878  0.00  0.00    +0.000 HD
ENDBRANCH   7  17
BRANCH   5  24
ATOM     24  C   UNL     1       5.693   4.925  14.894  0.00  0.00    +0.000 A 
ATOM     25  C   UNL     1       5.221   3.992  13.963  0.00  0.00    +0.000 A 
ATOM     26  C   UNL     1       6.012   3.624  12.873  0.00  0.00    +0.000 A 
ATOM     27  C   UNL     1       7.280   4.181  12.712  0.00  0.00    +0.000 A 
ATOM     28  C   UNL     1       7.760   5.104  13.642  0.00  0.00    +0.000 A 
ATOM     29  C   UNL     1       6.973   5.473  14.735  0.00  0.00    +0.000 A 
ENDBRANCH   5  24
TORSDOF 3
ENDMDL
MODEL 2
REMARK VINA RESULT:      -8.7      0.251      1.316
REMARK  Name = 
REMARK  3 active torsions:
REMARK  status: ('A' for Active; 'I' for Inactive)
REMARK    1  A    between atoms: C_5  and  C_6
REMARK    2  A    between atoms: C_10  and  C_11
REMARK    3  A    between atoms: C_18  and  N_19
REMARK                            x       y       z     vdW  Elec       q    Type
REMARK                         _______ _______ _______ _____ _____    ______ ____
ROOT
ATOM      1  C   UNL     1       2.549   7.526  18.742  0.00  0.00    +0.000 A 
ATOM      2  C   UNL     1       3.309   7.839  17.594  0.00  0.00    +0.000 A 
ATOM      3  C   UNL     1       3.822   6.649  17.143  0.00  0.00    +0.000 A 
ATOM      4  N   UNL     1       4.627   6.381  16.077  0.00  0.00    +0.000 NA
ATOM      5  C   UNL     1       4.938   5.134  15.882  0.00  0.00    +0.000 A 
ATOM      6  C   UNL     1       4.500   4.004  16.758  0.00  0.00    +0.000 A 
ATOM      7  C   UNL     1       3.686   4.284  17.799  0.00  0.00    +0.000 A 
ATOM      8  N   UNL     1       3.345   5.656  18.007  0.00  0.00    +0.000 N 
ATOM      9  N   UNL     1       2.596   6.216  19.008  0.00  0.00    +0.000 NA
ENDROOT
BRANCH   1  14
ATOM     10  F   UNL     1      -0.352  11.068  21.964  0.00  0.00    +0.000 F 
ATOM     11  C   UNL     1       0.344  10.220  21.194  0.00  0.00    +0.000 A 
ATOM     12  C   UNL     1       0.807   9.027  21.735  0.00  0.00    +0.000 A 
ATOM     13  C   UNL     1       1.531   8.141  20.933  0.00  0.00    +0.000 A 
ATOM     14  C   UNL     1       1.794   8.451  19.589  0.00  0.00    +0.000 A 
ATOM     15  C   UNL     1       1.321   9.667  19.066  0.00  0.00    +0.000 A 
ATOM     16  C   UNL     1       0.594  10.550  19.868  0.00  0.00    +0.000 A 
ENDBRANCH   1  14
BRANCH   7  17
ATOM     17  N   UNL     1       3.182   3.270  18.642  0.00  0.00    +0.000 N 
ATOM     18  C   UNL     1       3.892   2.766  19.837  0.00  0.00    +0.000 C 
ATOM     19  C   UNL     1       2.937   2.769  21.057  0.00  0.00    +0.000 C 
ATOM     20  N   UNL     1       1.666   2.048  20.837  0.00  0.00    +0.000 NA
ATOM     21  C   UNL     1       1.019   2.553  19.613  0.00  0.00    +0.000 C 
ATOM     22  C   UNL     1       1.943   2.514  18.378  0.00  0.00    +0.000 C 
ATOM     23  H   UNL     1       1.053   2.213  21.634  0.00  0.00    +0.000 HD
ENDBRANCH   7  17
BRANCH   5  24
ATOM     24  C   UNL     1       5.795   4.782  14.713  0.00  0.00    +0.000 A 
ATOM     25  C   UNL     1       7.017   5.450  14.557  0.00  0.00    +0.000 A 
ATOM     26  C   UNL     1       7.833   5.175  13.460  0.00  0.00    +0.000 A 
ATOM     27  C   UNL     1       7.432   4.237  12.509  0.00  0.00    +0.000 A 
ATOM     28  C   UNL     1       6.213   3.574  12.653  0.00  0.00    +0.000 A 
ATOM     29  C   UNL     1       5.392   3.848  13.748  0.00  0.00    +0.000 A 
ENDBRANCH   5  24
TORSDOF 3
ENDMDL
MODEL 3
REMARK VINA RESULT:      -8.2      0.609      1.142
REMARK  Name = 
REMARK  3 active torsions:
REMARK  status: ('A' for Active; 'I' for Inactive)
REMARK    1  A    between atoms: C_5  and  C_6
REMARK    2  A    between atoms: C_10  and  C_11
REMARK    3  A    between atoms: C_18  and  N_19
REMARK                            x       y       z     vdW  Elec       q    Type
REMARK                         _______ _______ _______ _____ _____    ______ ____
ROOT
ATOM      1  C   UNL     1       2.249   7.714  19.149  0.00  0.00    +0.000 A 
ATOM      2  C   UNL     1       2.968   7.998  17.969  0.00  0.00    +0.000 A 
ATOM      3  C   UNL     1       3.542   6.814  17.580  0.00  0.00    +0.000 A 
ATOM      4  N   UNL     1       4.342   6.527  16.516  0.00  0.00    +0.000 NA
ATOM      5  C   UNL     1       4.723   5.290  16.390  0.00  0.00    +0.000 A 
ATOM      6  C   UNL     1       4.366   4.194  17.343  0.00  0.00    +0.000 A 
ATOM      7  C   UNL     1       3.556   4.490  18.382  0.00  0.00    +0.000 A 
ATOM      8  N   UNL     1       3.139   5.851  18.513  0.00  0.00    +0.000 N 
ATOM      9  N   UNL     1       2.377   6.427  19.493  0.00  0.00    +0.000 NA
ENDROOT
BRANCH   1  14
ATOM     10  F   UNL     1      -0.768  11.271  22.246  0.00  0.00    +0.000 F 
ATOM     11  C   UNL     1      -0.047  10.419  21.504  0.00  0.00    +0.000 A 
ATOM     12  C   UNL     1       0.067  10.633  20.136  0.00  0.00    +0.000 A 
ATOM     13  C   UNL     1       0.820   9.746  19.360  0.00  0.00    +0.000 A 
ATOM     14  C   UNL     1       1.456   8.644  19.955  0.00  0.00    +0.000 A 
ATOM     15  C   UNL     1       1.320   8.446  21.339  0.00  0.00    +0.000 A 
ATOM     16  C   UNL     1       0.570   9.335  22.115  0.00  0.00    +0.000 A 
ENDBRANCH   1  14
BRANCH   7  17
ATOM     17  N   UNL     1       3.127   3.503  19.295  0.00  0.00    +0.000 N 
ATOM     18  C   UNL     1       3.906   2.290  19.622  0.00  0.00    +0.000 C 
ATOM     19  C   UNL     1       4.021   2.136  21.159  0.00  0.00    +0.000 C 
ATOM     20  N   UNL     1       2.728   2.157  21.872  0.00  0.00    +0.000 NA
ATOM     21  C   UNL     1       1.969   3.359  21.480  0.00  0.00    +0.000 C 
ATOM     22  C   UNL     1       1.806   3.503  19.953  0.00  0.00    +0.000 C 
ATOM     23  H   UNL     1       2.905   2.184  22.875  0.00  0.00    +0.000 HD
ENDBRANCH   7  17
BRANCH   5  24
ATOM     24  C   UNL     1       5.578   4.916  15.227  0.00  0.00    +0.000 A 
ATOM     25  C   UNL     1       6.845   5.503  15.116  0.00  0.00    +0.000 A 
ATOM     26  C   UNL     1       7.664   5.207  14.026  0.00  0.00    +0.000 A 
ATOM     27  C   UNL     1       7.220   4.328  13.038  0.00  0.00    +0.000 A 
ATOM     28  C   UNL     1       5.956   3.747  13.138  0.00  0.00    +0.000 A 
ATOM     29  C   UNL     1       5.132   4.043  14.226  0.00  0.00    +0.000 A 
ENDBRANCH   5  24
TORSDOF 3
ENDMDL
MODEL 4
REMARK VINA RESULT:      -7.8      1.288      2.042
REMARK  Name = 
REMARK  3 active torsions:
REMARK  status: ('A' for Active; 'I' for Inactive)
REMARK    1  A    between atoms: C_5  and  C_6
REMARK    2  A    between atoms: C_10  and  C_11
REMARK    3  A    between atoms: C_18  and  N_19
REMARK                            x       y       z     vdW  Elec       q    Type
REMARK                         _______ _______ _______ _____ _____    ______ ____
ROOT
ATOM      1  C   UNL     1       1.558   8.882  19.047  0.00  0.00    +0.000 A 
ATOM      2  C   UNL     1       2.515   9.003  18.017  0.00  0.00    +0.000 A 
ATOM      3  C   UNL     1       3.043   7.749  17.841  0.00  0.00    +0.000 A 
ATOM      4  N   UNL     1       4.004   7.307  16.982  0.00  0.00    +0.000 NA
ATOM      5  C   UNL     1       4.287   6.038  17.028  0.00  0.00    +0.000 A 
ATOM      6  C   UNL     1       3.655   5.063  17.970  0.00  0.00    +0.000 A 
ATOM      7  C   UNL     1       2.690   5.513  18.801  0.00  0.00    +0.000 A 
ATOM      8  N   UNL     1       2.381   6.907  18.744  0.00  0.00    +0.000 N 
ATOM      9  N   UNL     1       1.500   7.626  19.506  0.00  0.00    +0.000 NA
ENDROOT
BRANCH   1  14
ATOM     10  F   UNL     1      -1.692  12.916  21.169  0.00  0.00    +0.000 F 
ATOM     11  C   UNL     1      -0.913  11.952  20.662  0.00  0.00    +0.000 A 
ATOM     12  C   UNL     1      -0.023  11.284  21.494  0.00  0.00    +0.000 A 
ATOM     13  C   UNL     1       0.790  10.276  20.967  0.00  0.00    +0.000 A 
ATOM     14  C   UNL     1       0.713   9.938  19.606  0.00  0.00    +0.000 A 
ATOM     15  C   UNL     1      -0.190  10.633  18.783  0.00  0.00    +0.000 A 
ATOM     16  C   UNL     1      -1.005  11.638  19.312  0.00  0.00    +0.000 A 
ENDBRANCH   1  14
BRANCH   7  17
ATOM     17  N   UNL     1       2.005   4.649  19.681  0.00  0.00    +0.000 N 
ATOM     18  C   UNL     1       1.086   3.580  19.236  0.00  0.00    +0.000 C 
ATOM     19  C   UNL     1       1.459   2.244  19.925  0.00  0.00    +0.000 C 
ATOM     20  N   UNL     1       1.529   2.318  21.399  0.00  0.00    +0.000 NA
ATOM     21  C   UNL     1       2.420   3.424  21.795  0.00  0.00    +0.000 C 
ATOM     22  C   UNL     1       2.034   4.773  21.152  0.00  0.00    +0.000 C 
ATOM     23  H   UNL     1       1.906   1.440  21.755  0.00  0.00    +0.000 HD
ENDBRANCH   7  17
BRANCH   5  24
ATOM     24  C   UNL     1       5.314   5.497  16.091  0.00  0.00    +0.000 A 
ATOM     25  C   UNL     1       4.883   4.716  15.011  0.00  0.00    +0.000 A 
ATOM     26  C   UNL     1       5.812   4.162  14.129  0.00  0.00    +0.000 A 
ATOM     27  C   UNL     1       7.175   4.380  14.325  0.00  0.00    +0.000 A 
ATOM     28  C   UNL     1       7.612   5.150  15.403  0.00  0.00    +0.000 A 
ATOM     29  C   UNL     1       6.685   5.704  16.289  0.00  0.00    +0.000 A 
ENDBRANCH   5  24
TORSDOF 3
ENDMDL
MODEL 5
REMARK VINA RESULT:      -7.7      1.227      2.021
REMARK  Name = 
REMARK  3 active torsions:
REMARK  status: ('A' for Active; 'I' for Inactive)
REMARK    1  A    between atoms: C_5  and  C_6
REMARK    2  A    between atoms: C_10  and  C_11
REMARK    3  A    between atoms: C_18  and  N_19
REMARK                            x       y       z     vdW  Elec       q    Type
REMARK                         _______ _______ _______ _____ _____    ______ ____
ROOT
ATOM      1  C   UNL     1       1.624   8.833  19.107  0.00  0.00    +0.000 A 
ATOM      2  C   UNL     1       2.556   8.932  18.052  0.00  0.00    +0.000 A 
ATOM      3  C   UNL     1       3.063   7.670  17.873  0.00  0.00    +0.000 A 
ATOM      4  N   UNL     1       3.996   7.208  16.994  0.00  0.00    +0.000 NA
ATOM      5  C   UNL     1       4.263   5.937  17.044  0.00  0.00    +0.000 A 
ATOM      6  C   UNL     1       3.642   4.978  18.009  0.00  0.00    +0.000 A 
ATOM      7  C   UNL     1       2.704   5.447  18.860  0.00  0.00    +0.000 A 
ATOM      8  N   UNL     1       2.413   6.845  18.799  0.00  0.00    +0.000 N 
ATOM      9  N   UNL     1       1.560   7.582  19.577  0.00  0.00    +0.000 NA
ENDROOT
BRANCH   1  14
ATOM     10  F   UNL     1      -1.490  12.931  21.309  0.00  0.00    +0.000 F 
ATOM     11  C   UNL     1      -0.746  11.951  20.781  0.00  0.00    +0.000 A 
ATOM     12  C   UNL     1      -0.301  12.060  19.470  0.00  0.00    +0.000 A 
ATOM     13  C   UNL     1       0.476  11.039  18.917  0.00  0.00    +0.000 A 
ATOM     14  C   UNL     1       0.807   9.905  19.678  0.00  0.00    +0.000 A 
ATOM     15  C   UNL     1       0.339   9.814  21.000  0.00  0.00    +0.000 A 
ATOM     16  C   UNL     1      -0.434  10.838  21.553  0.00  0.00    +0.000 A 
ENDBRANCH   1  14
BRANCH   7  17
ATOM     17  N   UNL     1       2.030   4.599  19.764  0.00  0.00    +0.000 N 
ATOM     18  C   UNL     1       0.972   3.646  19.367  0.00  0.00    +0.000 C 
ATOM     19  C   UNL     1       1.282   2.244  19.948  0.00  0.00    +0.000 C 
ATOM     20  N   UNL     1       1.505   2.226  21.408  0.00  0.00    +0.000 NA
ATOM     21  C   UNL     1       2.532   3.222  21.762  0.00  0.00    +0.000 C 
ATOM     22  C   UNL     1       2.216   4.635  21.228  0.00  0.00    +0.000 C 
ATOM     23  H   UNL     1       1.829   1.299  21.681  0.00  0.00    +0.000 HD
ENDBRANCH   7  17
BRANCH   5  24
ATOM     24  C   UNL     1       5.258   5.374  16.085  0.00  0.00    +0.000 A 
ATOM     25  C   UNL     1       6.613   5.671  16.281  0.00  0.00    +0.000 A 
ATOM     26  C   UNL     1       7.573   5.193  15.389  0.00  0.00    +0.000 A 
ATOM     27  C   UNL     1       7.186   4.421  14.295  0.00  0.00    +0.000 A 
ATOM     28  C   UNL     1       5.837   4.129  14.088  0.00  0.00    +0.000 A 
ATOM     29  C   UNL     1       4.873   4.608  14.977  0.00  0.00    +0.000 A 
ENDBRANCH   5  24
TORSDOF 3
ENDMDL
MODEL 6
REMARK VINA RESULT:      -7.6      2.862      7.722
REMARK  Name = 
REMARK  3 active torsions:
REMARK  status: ('A' for Active; 'I' for Inactive)
REMARK    1  A    between atoms: C_5  and  C_6
REMARK    2  A    between atoms: C_10  and  C_11
REMARK    3  A    between atoms: C_18  and  N_19
REMARK                            x       y       z     vdW  Elec       q    Type
REMARK                         _______ _______ _______ _____ _____    ______ ____
ROOT
ATOM      1  C   UNL     1       3.875   6.054  17.425  0.00  0.00    +0.000 A 
ATOM      2  C   UNL     1       3.571   7.415  17.644  0.00  0.00    +0.000 A 
ATOM      3  C   UNL     1       2.714   7.444  18.715  0.00  0.00    +0.000 A 
ATOM      4  N   UNL     1       2.111   8.496  19.337  0.00  0.00    +0.000 NA
ATOM      5  C   UNL     1       1.356   8.214  20.357  0.00  0.00    +0.000 A 
ATOM      6  C   UNL     1       1.093   6.831  20.859  0.00  0.00    +0.000 A 
ATOM      7  C   UNL     1       1.714   5.801  20.246  0.00  0.00    +0.000 A 
ATOM      8  N   UNL     1       2.544   6.116  19.126  0.00  0.00    +0.000 N 
ATOM      9  N   UNL     1       3.233   5.270  18.299  0.00  0.00    +0.000 NA
ENDROOT
BRANCH   1  14
ATOM     10  F   UNL     1       7.246   3.925  13.495  0.00  0.00    +0.000 F 
ATOM     11  C   UNL     1       6.439   4.434  14.435  0.00  0.00    +0.000 A 
ATOM     12  C   UNL     1       5.899   3.593  15.401  0.00  0.00    +0.000 A 
ATOM     13  C   UNL     1       5.057   4.121  16.383  0.00  0.00    +0.000 A 
ATOM     14  C   UNL     1       4.753   5.493  16.397  0.00  0.00    +0.000 A 
ATOM     15  C   UNL     1       5.306   6.322  15.406  0.00  0.00    +0.000 A 
ATOM     16  C   UNL     1       6.151   5.793  14.426  0.00  0.00    +0.000 A 
ENDBRANCH   1  14
BRANCH   7  17
ATOM     17  N   UNL     1       1.563   4.470  20.691  0.00  0.00    +0.000 N 
ATOM     18  C   UNL     1       0.591   3.515  20.116  0.00  0.00    +0.000 C 
ATOM     19  C   UNL     1       1.304   2.185  19.766  0.00  0.00    +0.000 C 
ATOM     20  N   UNL     1       2.056   1.584  20.886  0.00  0.00    +0.000 NA
ATOM     21  C   UNL     1       2.977   2.585  21.455  0.00  0.00    +0.000 C 
ATOM     22  C   UNL     1       2.274   3.900  21.851  0.00  0.00    +0.000 C 
ATOM     23  H   UNL     1       2.595   0.794  20.534  0.00  0.00    +0.000 HD
ENDBRANCH   7  17
BRANCH   5  24
ATOM     24  C   UNL     1       0.693   9.332  21.090  0.00  0.00    +0.000 A 
ATOM     25  C   UNL     1       0.076   9.050  22.316  0.00  0.00    +0.000 A 
ATOM     26  C   UNL     1      -0.585  10.059  23.018  0.00  0.00    +0.000 A 
ATOM     27  C   UNL     1      -0.638  11.352  22.497  0.00  0.00    +0.000 A 
ATOM     28  C   UNL     1      -0.033  11.637  21.273  0.00  0.00    +0.000 A 
ATOM     29  C   UNL     1       0.627  10.629  20.566  0.00  0.00    +0.000 A 
ENDBRANCH   5  24
TORSDOF 3
ENDMDL
MODEL 7
REMARK VINA RESULT:      -7.4      4.714     10.603
REMARK  Name = 
REMARK  3 active torsions:
REMARK  status: ('A' for Active; 'I' for Inactive)
REMARK    1  A    between atoms: C_5  and  C_6
REMARK    2  A    between atoms: C_10  and  C_11
REMARK    3  A    between atoms: C_18  and  N_19
REMARK                            x       y       z     vdW  Elec       q    Type
REMARK                         _______ _______ _______ _____ _____    ______ ____
ROOT
ATOM      1  C   UNL     1       0.824   9.438  20.080  0.00  0.00    +0.000 A 
ATOM      2  C   UNL     1       0.910   9.984  21.378  0.00  0.00    +0.000 A 
ATOM      3  C   UNL     1      -0.074  10.937  21.455  0.00  0.00    +0.000 A 
ATOM      4  N   UNL     1      -0.425  11.765  22.479  0.00  0.00    +0.000 NA
ATOM      5  C   UNL     1      -1.430  12.562  22.264  0.00  0.00    +0.000 A 
ATOM      6  C   UNL     1      -2.188  12.641  20.978  0.00  0.00    +0.000 A 
ATOM      7  C   UNL     1      -1.842  11.799  19.980  0.00  0.00    +0.000 A 
ATOM      8  N   UNL     1      -0.738  10.924  20.222  0.00  0.00    +0.000 N 
ATOM      9  N   UNL     1      -0.149  10.026  19.374  0.00  0.00    +0.000 NA
ENDROOT
BRANCH   1  14
ATOM     10  F   UNL     1       3.987   5.377  17.880  0.00  0.00    +0.000 F 
ATOM     11  C   UNL     1       3.231   6.349  18.406  0.00  0.00    +0.000 A 
ATOM     12  C   UNL     1       3.003   7.509  17.676  0.00  0.00    +0.000 A 
ATOM     13  C   UNL     1       2.214   8.524  18.222  0.00  0.00    +0.000 A 
ATOM     14  C   UNL     1       1.654   8.380  19.503  0.00  0.00    +0.000 A 
ATOM     15  C   UNL     1       1.906   7.201  20.225  0.00  0.00    +0.000 A 
ATOM     16  C   UNL     1       2.692   6.184  19.676  0.00  0.00    +0.000 A 
ENDBRANCH   1  14
BRANCH   7  17
ATOM     17  N   UNL     1      -2.541  11.771  18.755  0.00  0.00    +0.000 N 
ATOM     18  C   UNL     1      -1.882  11.786  17.431  0.00  0.00    +0.000 C 
ATOM     19  C   UNL     1      -2.445  10.644  16.550  0.00  0.00    +0.000 C 
ATOM     20  N   UNL     1      -3.916  10.642  16.421  0.00  0.00    +0.000 NA
ATOM     21  C   UNL     1      -4.527  10.673  17.763  0.00  0.00    +0.000 C 
ATOM     22  C   UNL     1      -4.011  11.833  18.638  0.00  0.00    +0.000 C 
ATOM     23  H   UNL     1      -4.204   9.791  15.941  0.00  0.00    +0.000 HD
ENDBRANCH   7  17
BRANCH   5  24
ATOM     24  C   UNL     1      -1.873  13.471  23.361  0.00  0.00    +0.000 A 
ATOM     25  C   UNL     1      -3.161  13.305  23.885  0.00  0.00    +0.000 A 
ATOM     26  C   UNL     1      -3.627  14.156  24.888  0.00  0.00    +0.000 A 
ATOM     27  C   UNL     1      -2.811  15.180  25.369  0.00  0.00    +0.000 A 
ATOM     28  C   UNL     1      -1.530  15.357  24.845  0.00  0.00    +0.000 A 
ATOM     29  C   UNL     1      -1.062  14.509  23.839  0.00  0.00    +0.000 A 
ENDBRANCH   5  24
TORSDOF 3
ENDMDL
MODEL 8
REMARK VINA RESULT:      -7.4      3.169      7.687
REMARK  Name = 
REMARK  3 active torsions:
REMARK  status: ('A' for Active; 'I' for Inactive)
REMARK    1  A    between atoms: C_5  and  C_6
REMARK    2  A    between atoms: C_10  and  C_11
REMARK    3  A    between atoms: C_18  and  N_19
REMARK                            x       y       z     vdW  Elec       q    Type
REMARK                         _______ _______ _______ _____ _____    ______ ____
ROOT
ATOM      1  C   UNL     1       4.954   5.347  15.692  0.00  0.00    +0.000 A 
ATOM      2  C   UNL     1       4.534   6.661  15.988  0.00  0.00    +0.000 A 
ATOM      3  C   UNL     1       3.801   6.573  17.145  0.00  0.00    +0.000 A 
ATOM      4  N   UNL     1       3.162   7.540  17.862  0.00  0.00    +0.000 NA
ATOM      5  C   UNL     1       2.556   7.155  18.946  0.00  0.00    +0.000 A 
ATOM      6  C   UNL     1       2.495   5.740  19.425  0.00  0.00    +0.000 A 
ATOM      7  C   UNL     1       3.150   4.797  18.715  0.00  0.00    +0.000 A 
ATOM      8  N   UNL     1       3.816   5.226  17.525  0.00  0.00    +0.000 N 
ATOM      9  N   UNL     1       4.496   4.478  16.601  0.00  0.00    +0.000 NA
ENDROOT
BRANCH   1  14
ATOM     10  F   UNL     1       8.053   3.663  11.344  0.00  0.00    +0.000 F 
ATOM     11  C   UNL     1       7.312   4.065  12.385  0.00  0.00    +0.000 A 
ATOM     12  C   UNL     1       7.825   5.012  13.264  0.00  0.00    +0.000 A 
ATOM     13  C   UNL     1       7.054   5.434  14.350  0.00  0.00    +0.000 A 
ATOM     14  C   UNL     1       5.769   4.907  14.559  0.00  0.00    +0.000 A 
ATOM     15  C   UNL     1       5.275   3.945  13.660  0.00  0.00    +0.000 A 
ATOM     16  C   UNL     1       6.045   3.526  12.572  0.00  0.00    +0.000 A 
ENDBRANCH   1  14
BRANCH   7  17
ATOM     17  N   UNL     1       3.189   3.448  19.127  0.00  0.00    +0.000 N 
ATOM     18  C   UNL     1       2.614   2.332  18.346  0.00  0.00    +0.000 C 
ATOM     19  C   UNL     1       3.661   1.200  18.197  0.00  0.00    +0.000 C 
ATOM     20  N   UNL     1       4.233   0.728  19.474  0.00  0.00    +0.000 NA
ATOM     21  C   UNL     1       4.751   1.878  20.237  0.00  0.00    +0.000 C 
ATOM     22  C   UNL     1       3.706   2.996  20.434  0.00  0.00    +0.000 C 
ATOM     23  H   UNL     1       4.999   0.085  19.275  0.00  0.00    +0.000 HD
ENDBRANCH   7  17
BRANCH   5  24
ATOM     24  C   UNL     1       1.863   8.177  19.783  0.00  0.00    +0.000 A 
ATOM     25  C   UNL     1       1.654   7.897  21.139  0.00  0.00    +0.000 A 
ATOM     26  C   UNL     1       0.980   8.810  21.950  0.00  0.00    +0.000 A 
ATOM     27  C   UNL     1       0.507  10.006  21.410  0.00  0.00    +0.000 A 
ATOM     28  C   UNL     1       0.705  10.288  20.058  0.00  0.00    +0.000 A 
ATOM     29  C   UNL     1       1.376   9.375  19.243  0.00  0.00    +0.000 A 
ENDBRANCH   5  24
TORSDOF 3
ENDMDL
MODEL 9
REMARK VINA RESULT:      -7.3      2.965      7.625
REMARK  Name = 
REMARK  3 active torsions:
REMARK  status: ('A' for Active; 'I' for Inactive)
REMARK    1  A    between atoms: C_5  and  C_6
REMARK    2  A    between atoms: C_10  and  C_11
REMARK    3  A    between atoms: C_18  and  N_19
REMARK                            x       y       z     vdW  Elec       q    Type
REMARK                         _______ _______ _______ _____ _____    ______ ____
ROOT
ATOM      1  C   UNL     1       4.486   5.885  16.663  0.00  0.00    +0.000 A 
ATOM      2  C   UNL     1       4.179   7.218  17.010  0.00  0.00    +0.000 A 
ATOM      3  C   UNL     1       3.303   7.144  18.063  0.00  0.00    +0.000 A 
ATOM      4  N   UNL     1       2.690   8.131  18.774  0.00  0.00    +0.000 NA
ATOM      5  C   UNL     1       1.917   7.752  19.749  0.00  0.00    +0.000 A 
ATOM      6  C   UNL     1       1.643   6.326  20.107  0.00  0.00    +0.000 A 
ATOM      7  C   UNL     1       2.274   5.360  19.406  0.00  0.00    +0.000 A 
ATOM      8  N   UNL     1       3.125   5.783  18.337  0.00  0.00    +0.000 N 
ATOM      9  N   UNL     1       3.827   5.021  17.443  0.00  0.00    +0.000 NA
ENDROOT
BRANCH   1  14
ATOM     10  F   UNL     1       7.896   4.128  12.585  0.00  0.00    +0.000 F 
ATOM     11  C   UNL     1       7.081   4.548  13.562  0.00  0.00    +0.000 A 
ATOM     12  C   UNL     1       7.567   5.416  14.531  0.00  0.00    +0.000 A 
ATOM     13  C   UNL     1       6.718   5.857  15.551  0.00  0.00    +0.000 A 
ATOM     14  C   UNL     1       5.382   5.426  15.600  0.00  0.00    +0.000 A 
ATOM     15  C   UNL     1       4.916   4.542  14.612  0.00  0.00    +0.000 A 
ATOM     16  C   UNL     1       5.765   4.105  13.591  0.00  0.00    +0.000 A 
ENDBRANCH   1  14
BRANCH   7  17
ATOM     17  N   UNL     1       2.114   3.992  19.714  0.00  0.00    +0.000 N 
ATOM     18  C   UNL     1       0.806   3.305  19.754  0.00  0.00    +0.000 C 
ATOM     19  C   UNL     1       0.867   2.007  18.912  0.00  0.00    +0.000 C 
ATOM     20  N   UNL     1       1.968   1.094  19.279  0.00  0.00    +0.000 NA
ATOM     21  C   UNL     1       3.244   1.833  19.270  0.00  0.00    +0.000 C 
ATOM     22  C   UNL     1       3.214   3.106  20.141  0.00  0.00    +0.000 C 
ATOM     23  H   UNL     1       2.013   0.340  18.595  0.00  0.00    +0.000 HD
ENDBRANCH   7  17
BRANCH   5  24
ATOM     24  C   UNL     1       1.241   8.793  20.576  0.00  0.00    +0.000 A 
ATOM     25  C   UNL     1       1.040   8.534  21.938  0.00  0.00    +0.000 A 
ATOM     26  C   UNL     1       0.382   9.466  22.741  0.00  0.00    +0.000 A 
ATOM     27  C   UNL     1      -0.082  10.659  22.188  0.00  0.00    +0.000 A 
ATOM     28  C   UNL     1       0.107  10.920  20.831  0.00  0.00    +0.000 A 
ATOM     29  C   UNL     1       0.762   9.988  20.023  0.00  0.00    +0.000 A 
ENDBRANCH   5  24
TORSDOF 3
ENDMDL
