MODEL 1
REMARK VINA RESULT:      -9.6      0.000      0.000
REMARK  Name = 
REMARK  5 active torsions:
REMARK  status: ('A' for Active; 'I' for Inactive)
REMARK    1  A    between atoms: S_2  and  C_4
REMARK    2  A    between atoms: S_2  and  C_23
REMARK    3  A    between atoms: C_6  and  C_7
REMARK    4  A    between atoms: C_15  and  C_16
REMARK    5  A    between atoms: C_23  and  C_26
REMARK                            x       y       z     vdW  Elec       q    Type
REMARK                         _______ _______ _______ _____ _____    ______ ____
ROOT
ATOM      1  C   UNL     1       5.400   5.874  17.537  0.00  0.00    +0.000 A 
ATOM      2  N   UNL     1       4.701   6.988  17.606  0.00  0.00    +0.000 NA
ATOM      3  C   UNL     1       3.590   6.687  18.370  0.00  0.00    +0.000 A 
ATOM      4  C   UNL     1       3.603   5.350  18.764  0.00  0.00    +0.000 A 
ATOM      5  N   UNL     1       4.787   4.874  18.242  0.00  0.00    +0.000 N 
ATOM      6  H   UNL     1       5.139   3.930  18.323  0.00  0.00    +0.000 HD
ENDROOT
BRANCH   3   7
ATOM      7  C   UNL     1       2.579   7.697  18.656  0.00  0.00    +0.000 A 
ATOM      8  C   UNL     1       2.134   8.596  17.678  0.00  0.00    +0.000 A 
ATOM      9  C   UNL     1       1.213   9.598  17.993  0.00  0.00    +0.000 A 
ATOM     10  C   UNL     1       0.681   9.681  19.280  0.00  0.00    +0.000 A 
ATOM     11 CL   UNL     1      -0.459  10.939  19.596  0.00  0.00    +0.000 Cl
ATOM     12  C   UNL     1       1.077   8.758  20.254  0.00  0.00    +0.000 A 
ATOM     13 CL   UNL     1       0.439   8.784  21.860  0.00  0.00    +0.000 Cl
ATOM     14  C   UNL     1       2.025   7.776  19.942  0.00  0.00    +0.000 A 
ENDBRANCH   3   7
BRANCH   4  15
ATOM     15  C   UNL     1       2.684   4.492  19.518  0.00  0.00    +0.000 A 
ATOM     16  C   UNL     1       2.822   4.327  20.903  0.00  0.00    +0.000 A 
ATOM     17  C   UNL     1       2.007   3.439  21.607  0.00  0.00    +0.000 A 
ATOM     18  C   UNL     1       1.003   2.742  20.943  0.00  0.00    +0.000 A 
ATOM     19  C   UNL     1       0.816   2.932  19.577  0.00  0.00    +0.000 A 
ATOM     20  C   UNL     1       1.656   3.794  18.866  0.00  0.00    +0.000 A 
ENDBRANCH   4  15
BRANCH   1  22
ATOM     21  O   UNL     1       7.568   6.905  16.736  0.00  0.00    +0.000 OA
ATOM     22  S   UNL     1       6.915   5.605  16.681  0.00  0.00    +0.000 S 
ATOM     23  O   UNL     1       7.508   4.472  17.371  0.00  0.00    +0.000 OA
BRANCH  22  24
ATOM     24  C   UNL     1       6.472   5.173  14.999  0.00  0.00    +0.000 C 
ATOM     25  F   UNL     1       5.391   5.863  14.534  0.00  0.00    +0.000 F 
ATOM     26  F   UNL     1       7.500   5.492  14.141  0.00  0.00    +0.000 F 
BRANCH  24  27
ATOM     27  C   UNL     1       6.250   3.676  14.923  0.00  0.00    +0.000 C 
ATOM     28  F   UNL     1       5.189   3.263  15.657  0.00  0.00    +0.000 F 
ATOM     29  F   UNL     1       5.979   3.305  13.640  0.00  0.00    +0.000 F 
ENDBRANCH  24  27
ENDBRANCH  22  24
ENDBRANCH   1  22
TORSDOF 5
ENDMDL
MODEL 2
REMARK VINA RESULT:      -9.6      0.538      1.040
REMARK  Name = 
REMARK  5 active torsions:
REMARK  status: ('A' for Active; 'I' for Inactive)
REMARK    1  A    between atoms: S_2  and  C_4
REMARK    2  A    between atoms: S_2  and  C_23
REMARK    3  A    between atoms: C_6  and  C_7
REMARK    4  A    between atoms: C_15  and  C_16
REMARK    5  A    between atoms: C_23  and  C_26
REMARK                            x       y       z     vdW  Elec       q    Type
REMARK                         _______ _______ _______ _____ _____    ______ ____
ROOT
ATOM      1  C   UNL     1       5.509   5.709  17.723  0.00  0.00    +0.000 A 
ATOM      2  N   UNL     1       4.826   6.834  17.752  0.00  0.00    +0.000 NA
ATOM      3  C   UNL     1       3.676   6.557  18.466  0.00  0.00    +0.000 A 
ATOM      4  C   UNL     1       3.649   5.223  18.869  0.00  0.00    +0.000 A 
ATOM      5  N   UNL     1       4.848   4.724  18.406  0.00  0.00    +0.000 N 
ATOM      6  H   UNL     1       5.180   3.775  18.510  0.00  0.00    +0.000 HD
ENDROOT
BRANCH   3   7
ATOM      7  C   UNL     1       2.669   7.585  18.697  0.00  0.00    +0.000 A 
ATOM      8  C   UNL     1       2.262   8.463  17.684  0.00  0.00    +0.000 A 
ATOM      9  C   UNL     1       1.344   9.483  17.947  0.00  0.00    +0.000 A 
ATOM     10  C   UNL     1       0.777   9.605  19.216  0.00  0.00    +0.000 A 
ATOM     11 CL   UNL     1      -0.357  10.882  19.467  0.00  0.00    +0.000 Cl
ATOM     12  C   UNL     1       1.135   8.702  20.224  0.00  0.00    +0.000 A 
ATOM     13 CL   UNL     1       0.451   8.776  21.810  0.00  0.00    +0.000 Cl
ATOM     14  C   UNL     1       2.079   7.702  19.964  0.00  0.00    +0.000 A 
ENDBRANCH   3   7
BRANCH   4  15
ATOM     15  C   UNL     1       2.682   4.386  19.586  0.00  0.00    +0.000 A 
ATOM     16  C   UNL     1       2.763   4.217  20.975  0.00  0.00    +0.000 A 
ATOM     17  C   UNL     1       1.901   3.347  21.646  0.00  0.00    +0.000 A 
ATOM     18  C   UNL     1       0.908   2.673  20.942  0.00  0.00    +0.000 A 
ATOM     19  C   UNL     1       0.778   2.867  19.570  0.00  0.00    +0.000 A 
ATOM     20  C   UNL     1       1.665   3.711  18.894  0.00  0.00    +0.000 A 
ENDBRANCH   4  15
BRANCH   1  22
ATOM     21  O   UNL     1       7.591   6.746  16.726  0.00  0.00    +0.000 OA
ATOM     22  S   UNL     1       7.057   5.409  16.941  0.00  0.00    +0.000 S 
ATOM     23  O   UNL     1       7.737   4.501  17.849  0.00  0.00    +0.000 OA
BRANCH  22  24
ATOM     24  C   UNL     1       6.686   4.602  15.384  0.00  0.00    +0.000 C 
ATOM     25  F   UNL     1       7.606   4.861  14.412  0.00  0.00    +0.000 F 
ATOM     26  F   UNL     1       6.704   3.235  15.542  0.00  0.00    +0.000 F 
BRANCH  24  27
ATOM     27  C   UNL     1       5.291   5.002  14.950  0.00  0.00    +0.000 C 
ATOM     28  F   UNL     1       5.188   6.321  14.661  0.00  0.00    +0.000 F 
ATOM     29  F   UNL     1       4.948   4.345  13.806  0.00  0.00    +0.000 F 
ENDBRANCH  24  27
ENDBRANCH  22  24
ENDBRANCH   1  22
TORSDOF 5
ENDMDL
MODEL 3
REMARK VINA RESULT:      -9.4      0.534      1.103
REMARK  Name = 
REMARK  5 active torsions:
REMARK  status: ('A' for Active; 'I' for Inactive)
REMARK    1  A    between atoms: S_2  and  C_4
REMARK    2  A    between atoms: S_2  and  C_23
REMARK    3  A    between atoms: C_6  and  C_7
REMARK    4  A    between atoms: C_15  and  C_16
REMARK    5  A    between atoms: C_23  and  C_26
REMARK                            x       y       z     vdW  Elec       q    Type
REMARK                         _______ _______ _______ _____ _____    ______ ____
ROOT
ATOM      1  C   UNL     1       5.215   5.711  17.331  0.00  0.00    +0.000 A 
ATOM      2  N   UNL     1       4.556   6.846  17.435  0.00  0.00    +0.000 NA
ATOM      3  C   UNL     1       3.503   6.592  18.293  0.00  0.00    +0.000 A 
ATOM      4  C   UNL     1       3.510   5.262  18.710  0.00  0.00    +0.000 A 
ATOM      5  N   UNL     1       4.633   4.742  18.102  0.00  0.00    +0.000 N 
ATOM      6  H   UNL     1       4.962   3.789  18.172  0.00  0.00    +0.000 HD
ENDROOT
BRANCH   3   7
ATOM      7  C   UNL     1       2.549   7.637  18.640  0.00  0.00    +0.000 A 
ATOM      8  C   UNL     1       2.093   8.567  17.697  0.00  0.00    +0.000 A 
ATOM      9  C   UNL     1       1.230   9.600  18.068  0.00  0.00    +0.000 A 
ATOM     10  C   UNL     1       0.763   9.685  19.381  0.00  0.00    +0.000 A 
ATOM     11 CL   UNL     1      -0.309  10.982  19.768  0.00  0.00    +0.000 Cl
ATOM     12  C   UNL     1       1.168   8.732  20.322  0.00  0.00    +0.000 A 
ATOM     13 CL   UNL     1       0.609   8.759  21.958  0.00  0.00    +0.000 Cl
ATOM     14  C   UNL     1       2.060   7.718  19.952  0.00  0.00    +0.000 A 
ENDBRANCH   3   7
BRANCH   4  15
ATOM     15  C   UNL     1       2.631   4.445  19.552  0.00  0.00    +0.000 A 
ATOM     16  C   UNL     1       2.905   4.259  20.914  0.00  0.00    +0.000 A 
ATOM     17  C   UNL     1       2.122   3.406  21.695  0.00  0.00    +0.000 A 
ATOM     18  C   UNL     1       1.018   2.770  21.137  0.00  0.00    +0.000 A 
ATOM     19  C   UNL     1       0.699   2.983  19.799  0.00  0.00    +0.000 A 
ATOM     20  C   UNL     1       1.505   3.808  19.008  0.00  0.00    +0.000 A 
ENDBRANCH   4  15
BRANCH   1  22
ATOM     21  O   UNL     1       7.335   6.664  16.330  0.00  0.00    +0.000 OA
ATOM     22  S   UNL     1       6.646   5.381  16.361  0.00  0.00    +0.000 S 
ATOM     23  O   UNL     1       7.266   4.248  17.026  0.00  0.00    +0.000 OA
BRANCH  22  24
ATOM     24  C   UNL     1       6.055   4.925  14.731  0.00  0.00    +0.000 C 
ATOM     25  F   UNL     1       5.117   3.935  14.758  0.00  0.00    +0.000 F 
ATOM     26  F   UNL     1       5.430   5.997  14.136  0.00  0.00    +0.000 F 
BRANCH  24  27
ATOM     27  C   UNL     1       7.242   4.542  13.872  0.00  0.00    +0.000 C 
ATOM     28  F   UNL     1       6.884   3.910  12.730  0.00  0.00    +0.000 F 
ATOM     29  F   UNL     1       7.919   5.659  13.481  0.00  0.00    +0.000 F 
ENDBRANCH  24  27
ENDBRANCH  22  24
ENDBRANCH   1  22
TORSDOF 5
ENDMDL
MODEL 4
REMARK VINA RESULT:      -9.3      0.647      1.536
REMARK  Name = 
REMARK  5 active torsions:
REMARK  status: ('A' for Active; 'I' for Inactive)
REMARK    1  A    between atoms: S_2  and  C_4
REMARK    2  A    between atoms: S_2  and  C_23
REMARK    3  A    between atoms: C_6  and  C_7
REMARK    4  A    between atoms: C_15  and  C_16
REMARK    5  A    between atoms: C_23  and  C_26
REMARK                            x       y       z     vdW  Elec       q    Type
REMARK                         _______ _______ _______ _____ _____    ______ ____
ROOT
ATOM      1  C   UNL     1       5.421   5.622  17.293  0.00  0.00    +0.000 A 
ATOM      2  N   UNL     1       4.756   6.753  17.396  0.00  0.00    +0.000 NA
ATOM      3  C   UNL     1       3.678   6.483  18.217  0.00  0.00    +0.000 A 
ATOM      4  C   UNL     1       3.677   5.146  18.614  0.00  0.00    +0.000 A 
ATOM      5  N   UNL     1       4.820   4.639  18.032  0.00  0.00    +0.000 N 
ATOM      6  H   UNL     1       5.151   3.686  18.097  0.00  0.00    +0.000 HD
ENDROOT
BRANCH   3   7
ATOM      7  C   UNL     1       2.710   7.519  18.552  0.00  0.00    +0.000 A 
ATOM      8  C   UNL     1       2.275   8.459  17.609  0.00  0.00    +0.000 A 
ATOM      9  C   UNL     1       1.397   9.483  17.971  0.00  0.00    +0.000 A 
ATOM     10  C   UNL     1       0.896   9.550  19.272  0.00  0.00    +0.000 A 
ATOM     11 CL   UNL     1      -0.192  10.837  19.646  0.00  0.00    +0.000 Cl
ATOM     12  C   UNL     1       1.281   8.587  20.211  0.00  0.00    +0.000 A 
ATOM     13 CL   UNL     1       0.679   8.591  21.832  0.00  0.00    +0.000 Cl
ATOM     14  C   UNL     1       2.186   7.581  19.852  0.00  0.00    +0.000 A 
ENDBRANCH   3   7
BRANCH   4  15
ATOM     15  C   UNL     1       2.777   4.314  19.417  0.00  0.00    +0.000 A 
ATOM     16  C   UNL     1       1.668   3.683  18.838  0.00  0.00    +0.000 A 
ATOM     17  C   UNL     1       0.758   2.967  19.619  0.00  0.00    +0.000 A 
ATOM     18  C   UNL     1       0.976   2.825  20.985  0.00  0.00    +0.000 A 
ATOM     19  C   UNL     1       2.100   3.400  21.570  0.00  0.00    +0.000 A 
ATOM     20  C   UNL     1       2.991   4.148  20.794  0.00  0.00    +0.000 A 
ENDBRANCH   4  15
BRANCH   1  22
ATOM     21  O   UNL     1       7.435   6.642  16.150  0.00  0.00    +0.000 OA
ATOM     22  S   UNL     1       6.882   5.312  16.361  0.00  0.00    +0.000 S 
ATOM     23  O   UNL     1       7.612   4.349  17.166  0.00  0.00    +0.000 OA
BRANCH  22  24
ATOM     24  C   UNL     1       6.345   4.581  14.814  0.00  0.00    +0.000 C 
ATOM     25  F   UNL     1       6.422   3.220  14.808  0.00  0.00    +0.000 F 
ATOM     26  F   UNL     1       5.018   4.868  14.589  0.00  0.00    +0.000 F 
BRANCH  24  27
ATOM     27  C   UNL     1       7.151   5.188  13.684  0.00  0.00    +0.000 C 
ATOM     28  F   UNL     1       8.477   5.240  13.952  0.00  0.00    +0.000 F 
ATOM     29  F   UNL     1       7.029   4.428  12.559  0.00  0.00    +0.000 F 
ENDBRANCH  24  27
ENDBRANCH  22  24
ENDBRANCH   1  22
TORSDOF 5
ENDMDL
MODEL 5
REMARK VINA RESULT:      -9.0      1.125      2.006
REMARK  Name = 
REMARK  5 active torsions:
REMARK  status: ('A' for Active; 'I' for Inactive)
REMARK    1  A    between atoms: S_2  and  C_4
REMARK    2  A    between atoms: S_2  and  C_23
REMARK    3  A    between atoms: C_6  and  C_7
REMARK    4  A    between atoms: C_15  and  C_16
REMARK    5  A    between atoms: C_23  and  C_26
REMARK                            x       y       z     vdW  Elec       q    Type
REMARK                         _______ _______ _______ _____ _____    ______ ____
ROOT
ATOM      1  C   UNL     1       4.429   6.423  17.219  0.00  0.00    +0.000 A 
ATOM      2  N   UNL     1       3.789   7.485  17.660  0.00  0.00    +0.000 NA
ATOM      3  C   UNL     1       2.923   7.025  18.634  0.00  0.00    +0.000 A 
ATOM      4  C   UNL     1       3.027   5.643  18.781  0.00  0.00    +0.000 A 
ATOM      5  N   UNL     1       4.019   5.300  17.886  0.00  0.00    +0.000 N 
ATOM      6  H   UNL     1       4.368   4.368  17.710  0.00  0.00    +0.000 HD
ENDROOT
BRANCH   3   7
ATOM      7  C   UNL     1       2.040   7.940  19.347  0.00  0.00    +0.000 A 
ATOM      8  C   UNL     1       1.708   7.748  20.694  0.00  0.00    +0.000 A 
ATOM      9  C   UNL     1       0.808   8.600  21.337  0.00  0.00    +0.000 A 
ATOM     10  C   UNL     1       0.267   9.692  20.656  0.00  0.00    +0.000 A 
ATOM     11 CL   UNL     1      -0.833  10.708  21.516  0.00  0.00    +0.000 Cl
ATOM     12  C   UNL     1       0.630   9.925  19.325  0.00  0.00    +0.000 A 
ATOM     13 CL   UNL     1       0.022  11.273  18.429  0.00  0.00    +0.000 Cl
ATOM     14  C   UNL     1       1.508   9.050  18.675  0.00  0.00    +0.000 A 
ENDBRANCH   3   7
BRANCH   4  15
ATOM     15  C   UNL     1       2.338   4.642  19.601  0.00  0.00    +0.000 A 
ATOM     16  C   UNL     1       2.693   4.437  20.940  0.00  0.00    +0.000 A 
ATOM     17  C   UNL     1       2.102   3.421  21.695  0.00  0.00    +0.000 A 
ATOM     18  C   UNL     1       1.105   2.630  21.134  0.00  0.00    +0.000 A 
ATOM     19  C   UNL     1       0.701   2.852  19.820  0.00  0.00    +0.000 A 
ATOM     20  C   UNL     1       1.319   3.846  19.054  0.00  0.00    +0.000 A 
ENDBRANCH   4  15
BRANCH   1  22
ATOM     21  O   UNL     1       5.064   7.128  14.873  0.00  0.00    +0.000 OA
ATOM     22  S   UNL     1       5.651   6.349  15.954  0.00  0.00    +0.000 S 
ATOM     23  O   UNL     1       6.859   6.822  16.608  0.00  0.00    +0.000 OA
BRANCH  22  24
ATOM     24  C   UNL     1       5.801   4.621  15.500  0.00  0.00    +0.000 C 
ATOM     25  F   UNL     1       6.603   3.912  16.345  0.00  0.00    +0.000 F 
ATOM     26  F   UNL     1       4.572   4.005  15.568  0.00  0.00    +0.000 F 
BRANCH  24  27
ATOM     27  C   UNL     1       6.288   4.535  14.069  0.00  0.00    +0.000 C 
ATOM     28  F   UNL     1       7.537   5.031  13.906  0.00  0.00    +0.000 F 
ATOM     29  F   UNL     1       6.352   3.232  13.671  0.00  0.00    +0.000 F 
ENDBRANCH  24  27
ENDBRANCH  22  24
ENDBRANCH   1  22
TORSDOF 5
ENDMDL
MODEL 6
REMARK VINA RESULT:      -9.0      1.014      1.503
REMARK  Name = 
REMARK  5 active torsions:
REMARK  status: ('A' for Active; 'I' for Inactive)
REMARK    1  A    between atoms: S_2  and  C_4
REMARK    2  A    between atoms: S_2  and  C_23
REMARK    3  A    between atoms: C_6  and  C_7
REMARK    4  A    between atoms: C_15  and  C_16
REMARK    5  A    between atoms: C_23  and  C_26
REMARK                            x       y       z     vdW  Elec       q    Type
REMARK                         _______ _______ _______ _____ _____    ______ ____
ROOT
ATOM      1  C   UNL     1       4.598   6.330  17.058  0.00  0.00    +0.000 A 
ATOM      2  N   UNL     1       3.902   7.413  17.332  0.00  0.00    +0.000 NA
ATOM      3  C   UNL     1       2.985   7.037  18.295  0.00  0.00    +0.000 A 
ATOM      4  C   UNL     1       3.114   5.684  18.604  0.00  0.00    +0.000 A 
ATOM      5  N   UNL     1       4.173   5.276  17.821  0.00  0.00    +0.000 N 
ATOM      6  H   UNL     1       4.557   4.342  17.775  0.00  0.00    +0.000 HD
ENDROOT
BRANCH   3   7
ATOM      7  C   UNL     1       2.033   7.996  18.840  0.00  0.00    +0.000 A 
ATOM      8  C   UNL     1       1.317   8.877  18.018  0.00  0.00    +0.000 A 
ATOM      9  C   UNL     1       0.459   9.831  18.569  0.00  0.00    +0.000 A 
ATOM     10  C   UNL     1       0.261   9.883  19.950  0.00  0.00    +0.000 A 
ATOM     11 CL   UNL     1      -0.821  11.082  20.560  0.00  0.00    +0.000 Cl
ATOM     12  C   UNL     1       0.929   8.975  20.778  0.00  0.00    +0.000 A 
ATOM     13 CL   UNL     1       0.711   8.961  22.493  0.00  0.00    +0.000 Cl
ATOM     14  C   UNL     1       1.813   8.041  20.224  0.00  0.00    +0.000 A 
ENDBRANCH   3   7
BRANCH   4  15
ATOM     15  C   UNL     1       2.396   4.759  19.487  0.00  0.00    +0.000 A 
ATOM     16  C   UNL     1       2.749   4.629  20.837  0.00  0.00    +0.000 A 
ATOM     17  C   UNL     1       2.129   3.682  21.655  0.00  0.00    +0.000 A 
ATOM     18  C   UNL     1       1.107   2.888  21.146  0.00  0.00    +0.000 A 
ATOM     19  C   UNL     1       0.707   3.038  19.821  0.00  0.00    +0.000 A 
ATOM     20  C   UNL     1       1.353   3.961  18.993  0.00  0.00    +0.000 A 
ENDBRANCH   4  15
BRANCH   1  22
ATOM     21  O   UNL     1       5.340   6.708  14.668  0.00  0.00    +0.000 OA
ATOM     22  S   UNL     1       5.905   6.155  15.891  0.00  0.00    +0.000 S 
ATOM     23  O   UNL     1       7.031   6.818  16.527  0.00  0.00    +0.000 OA
BRANCH  22  24
ATOM     24  C   UNL     1       6.203   4.395  15.729  0.00  0.00    +0.000 C 
ATOM     25  F   UNL     1       7.166   3.933  16.576  0.00  0.00    +0.000 F 
ATOM     26  F   UNL     1       5.067   3.690  16.057  0.00  0.00    +0.000 F 
BRANCH  24  27
ATOM     27  C   UNL     1       6.540   4.090  14.285  0.00  0.00    +0.000 C 
ATOM     28  F   UNL     1       5.458   4.129  13.472  0.00  0.00    +0.000 F 
ATOM     29  F   UNL     1       7.404   5.024  13.796  0.00  0.00    +0.000 F 
ENDBRANCH  24  27
ENDBRANCH  22  24
ENDBRANCH   1  22
TORSDOF 5
ENDMDL
MODEL 7
REMARK VINA RESULT:      -8.9      1.474      1.801
REMARK  Name = 
REMARK  5 active torsions:
REMARK  status: ('A' for Active; 'I' for Inactive)
REMARK    1  A    between atoms: S_2  and  C_4
REMARK    2  A    between atoms: S_2  and  C_23
REMARK    3  A    between atoms: C_6  and  C_7
REMARK    4  A    between atoms: C_15  and  C_16
REMARK    5  A    between atoms: C_23  and  C_26
REMARK                            x       y       z     vdW  Elec       q    Type
REMARK                         _______ _______ _______ _____ _____    ______ ____
ROOT
ATOM      1  C   UNL     1       4.684   6.498  17.259  0.00  0.00    +0.000 A 
ATOM      2  N   UNL     1       3.957   7.565  17.515  0.00  0.00    +0.000 NA
ATOM      3  C   UNL     1       2.978   7.150  18.398  0.00  0.00    +0.000 A 
ATOM      4  C   UNL     1       3.102   5.789  18.675  0.00  0.00    +0.000 A 
ATOM      5  N   UNL     1       4.219   5.417  17.957  0.00  0.00    +0.000 N 
ATOM      6  H   UNL     1       4.617   4.489  17.910  0.00  0.00    +0.000 HD
ENDROOT
BRANCH   3   7
ATOM      7  C   UNL     1       1.978   8.081  18.902  0.00  0.00    +0.000 A 
ATOM      8  C   UNL     1       1.278   8.948  18.052  0.00  0.00    +0.000 A 
ATOM      9  C   UNL     1       0.372   9.877  18.567  0.00  0.00    +0.000 A 
ATOM     10  C   UNL     1       0.110   9.917  19.937  0.00  0.00    +0.000 A 
ATOM     11 CL   UNL     1      -1.029  11.085  20.502  0.00  0.00    +0.000 Cl
ATOM     12  C   UNL     1       0.762   9.021  20.792  0.00  0.00    +0.000 A 
ATOM     13 CL   UNL     1       0.465   8.994  22.495  0.00  0.00    +0.000 Cl
ATOM     14  C   UNL     1       1.694   8.113  20.275  0.00  0.00    +0.000 A 
ENDBRANCH   3   7
BRANCH   4  15
ATOM     15  C   UNL     1       2.335   4.830  19.475  0.00  0.00    +0.000 A 
ATOM     16  C   UNL     1       2.589   4.665  20.843  0.00  0.00    +0.000 A 
ATOM     17  C   UNL     1       1.925   3.687  21.586  0.00  0.00    +0.000 A 
ATOM     18  C   UNL     1       0.954   2.894  20.981  0.00  0.00    +0.000 A 
ATOM     19  C   UNL     1       0.651   3.079  19.635  0.00  0.00    +0.000 A 
ATOM     20  C   UNL     1       1.342   4.034  18.884  0.00  0.00    +0.000 A 
ENDBRANCH   4  15
BRANCH   1  22
ATOM     21  O   UNL     1       5.480   6.471  14.856  0.00  0.00    +0.000 OA
ATOM     22  S   UNL     1       6.072   6.373  16.183  0.00  0.00    +0.000 S 
ATOM     23  O   UNL     1       6.969   7.417  16.649  0.00  0.00    +0.000 OA
BRANCH  22  24
ATOM     24  C   UNL     1       6.778   4.748  16.459  0.00  0.00    +0.000 C 
ATOM     25  F   UNL     1       5.866   3.741  16.347  0.00  0.00    +0.000 F 
ATOM     26  F   UNL     1       7.732   4.477  15.505  0.00  0.00    +0.000 F 
BRANCH  24  27
ATOM     27  C   UNL     1       7.456   4.737  17.813  0.00  0.00    +0.000 C 
ATOM     28  F   UNL     1       6.686   4.188  18.783  0.00  0.00    +0.000 F 
ATOM     29  F   UNL     1       8.588   3.978  17.766  0.00  0.00    +0.000 F 
ENDBRANCH  24  27
ENDBRANCH  22  24
ENDBRANCH   1  22
TORSDOF 5
ENDMDL
MODEL 8
REMARK VINA RESULT:      -8.7      1.111      2.196
REMARK  Name = 
REMARK  5 active torsions:
REMARK  status: ('A' for Active; 'I' for Inactive)
REMARK    1  A    between atoms: S_2  and  C_4
REMARK    2  A    between atoms: S_2  and  C_23
REMARK    3  A    between atoms: C_6  and  C_7
REMARK    4  A    between atoms: C_15  and  C_16
REMARK    5  A    between atoms: C_23  and  C_26
REMARK                            x       y       z     vdW  Elec       q    Type
REMARK                         _______ _______ _______ _____ _____    ______ ____
ROOT
ATOM      1  C   UNL     1       4.541   6.304  17.229  0.00  0.00    +0.000 A 
ATOM      2  N   UNL     1       3.890   7.367  17.651  0.00  0.00    +0.000 NA
ATOM      3  C   UNL     1       3.020   6.914  18.624  0.00  0.00    +0.000 A 
ATOM      4  C   UNL     1       3.133   5.534  18.789  0.00  0.00    +0.000 A 
ATOM      5  N   UNL     1       4.134   5.187  17.907  0.00  0.00    +0.000 N 
ATOM      6  H   UNL     1       4.492   4.255  17.746  0.00  0.00    +0.000 HD
ENDROOT
BRANCH   3   7
ATOM      7  C   UNL     1       2.125   7.830  19.318  0.00  0.00    +0.000 A 
ATOM      8  C   UNL     1       1.744   7.626  20.650  0.00  0.00    +0.000 A 
ATOM      9  C   UNL     1       0.833   8.481  21.274  0.00  0.00    +0.000 A 
ATOM     10  C   UNL     1       0.331   9.589  20.589  0.00  0.00    +0.000 A 
ATOM     11 CL   UNL     1      -0.784  10.609  21.425  0.00  0.00    +0.000 Cl
ATOM     12  C   UNL     1       0.743   9.836  19.275  0.00  0.00    +0.000 A 
ATOM     13 CL   UNL     1       0.185  11.203  18.377  0.00  0.00    +0.000 Cl
ATOM     14  C   UNL     1       1.632   8.957  18.644  0.00  0.00    +0.000 A 
ENDBRANCH   3   7
BRANCH   4  15
ATOM     15  C   UNL     1       2.444   4.539  19.617  0.00  0.00    +0.000 A 
ATOM     16  C   UNL     1       1.352   3.816  19.118  0.00  0.00    +0.000 A 
ATOM     17  C   UNL     1       0.638   2.936  19.934  0.00  0.00    +0.000 A 
ATOM     18  C   UNL     1       1.041   2.726  21.249  0.00  0.00    +0.000 A 
ATOM     19  C   UNL     1       2.155   3.395  21.747  0.00  0.00    +0.000 A 
ATOM     20  C   UNL     1       2.848   4.303  20.940  0.00  0.00    +0.000 A 
ENDBRANCH   4  15
BRANCH   1  22
ATOM     21  O   UNL     1       5.102   6.775  14.807  0.00  0.00    +0.000 OA
ATOM     22  S   UNL     1       5.774   6.223  15.974  0.00  0.00    +0.000 S 
ATOM     23  O   UNL     1       6.906   6.926  16.552  0.00  0.00    +0.000 OA
BRANCH  22  24
ATOM     24  C   UNL     1       6.145   4.484  15.746  0.00  0.00    +0.000 C 
ATOM     25  F   UNL     1       7.008   3.992  16.680  0.00  0.00    +0.000 F 
ATOM     26  F   UNL     1       5.000   3.733  15.882  0.00  0.00    +0.000 F 
BRANCH  24  27
ATOM     27  C   UNL     1       6.672   4.280  14.340  0.00  0.00    +0.000 C 
ATOM     28  F   UNL     1       5.688   4.238  13.411  0.00  0.00    +0.000 F 
ATOM     29  F   UNL     1       7.475   5.322  13.983  0.00  0.00    +0.000 F 
ENDBRANCH  24  27
ENDBRANCH  22  24
ENDBRANCH   1  22
TORSDOF 5
ENDMDL
MODEL 9
REMARK VINA RESULT:      -8.7      1.791      2.578
REMARK  Name = 
REMARK  5 active torsions:
REMARK  status: ('A' for Active; 'I' for Inactive)
REMARK    1  A    between atoms: S_2  and  C_4
REMARK    2  A    between atoms: S_2  and  C_23
REMARK    3  A    between atoms: C_6  and  C_7
REMARK    4  A    between atoms: C_15  and  C_16
REMARK    5  A    between atoms: C_23  and  C_26
REMARK                            x       y       z     vdW  Elec       q    Type
REMARK                         _______ _______ _______ _____ _____    ______ ____
ROOT
ATOM      1  C   UNL     1       4.285   5.956  17.124  0.00  0.00    +0.000 A 
ATOM      2  N   UNL     1       3.722   7.069  17.543  0.00  0.00    +0.000 NA
ATOM      3  C   UNL     1       2.919   6.708  18.607  0.00  0.00    +0.000 A 
ATOM      4  C   UNL     1       2.980   5.333  18.832  0.00  0.00    +0.000 A 
ATOM      5  N   UNL     1       3.886   4.894  17.890  0.00  0.00    +0.000 N 
ATOM      6  H   UNL     1       4.184   3.939  17.748  0.00  0.00    +0.000 HD
ENDROOT
BRANCH   3   7
ATOM      7  C   UNL     1       2.129   7.700  19.324  0.00  0.00    +0.000 A 
ATOM      8  C   UNL     1       1.790   7.541  20.674  0.00  0.00    +0.000 A 
ATOM      9  C   UNL     1       0.977   8.473  21.322  0.00  0.00    +0.000 A 
ATOM     10  C   UNL     1       0.536   9.611  20.644  0.00  0.00    +0.000 A 
ATOM     11 CL   UNL     1      -0.458  10.725  21.510  0.00  0.00    +0.000 Cl
ATOM     12  C   UNL     1       0.910   9.809  19.311  0.00  0.00    +0.000 A 
ATOM     13 CL   UNL     1       0.425  11.207  18.417  0.00  0.00    +0.000 Cl
ATOM     14  C   UNL     1       1.699   8.856  18.655  0.00  0.00    +0.000 A 
ENDBRANCH   3   7
BRANCH   4  15
ATOM     15  C   UNL     1       2.319   4.414  19.764  0.00  0.00    +0.000 A 
ATOM     16  C   UNL     1       2.819   4.214  21.058  0.00  0.00    +0.000 A 
ATOM     17  C   UNL     1       2.246   3.270  21.913  0.00  0.00    +0.000 A 
ATOM     18  C   UNL     1       1.127   2.551  21.504  0.00  0.00    +0.000 A 
ATOM     19  C   UNL     1       0.584   2.774  20.242  0.00  0.00    +0.000 A 
ATOM     20  C   UNL     1       1.181   3.693  19.373  0.00  0.00    +0.000 A 
ENDBRANCH   4  15
BRANCH   1  22
ATOM     21  O   UNL     1       4.970   4.503  15.168  0.00  0.00    +0.000 OA
ATOM     22  S   UNL     1       5.401   5.753  15.777  0.00  0.00    +0.000 S 
ATOM     23  O   UNL     1       5.279   6.995  15.033  0.00  0.00    +0.000 OA
BRANCH  22  24
ATOM     24  C   UNL     1       7.035   5.594  16.498  0.00  0.00    +0.000 C 
ATOM     25  F   UNL     1       7.274   4.356  17.016  0.00  0.00    +0.000 F 
ATOM     26  F   UNL     1       7.999   5.773  15.532  0.00  0.00    +0.000 F 
BRANCH  24  27
ATOM     27  C   UNL     1       7.214   6.677  17.541  0.00  0.00    +0.000 C 
ATOM     28  F   UNL     1       7.927   6.263  18.614  0.00  0.00    +0.000 F 
ATOM     29  F   UNL     1       7.911   7.725  17.016  0.00  0.00    +0.000 F 
ENDBRANCH  24  27
ENDBRANCH  22  24
ENDBRANCH   1  22
TORSDOF 5
ENDMDL
