MODEL 1
REMARK VINA RESULT:      -8.4      0.000      0.000
REMARK  Name = 
REMARK  8 active torsions:
REMARK  status: ('A' for Active; 'I' for Inactive)
REMARK    1  A    between atoms: C_1  and  O_2
REMARK    2  A    between atoms: O_2  and  C_3
REMARK    3  A    between atoms: C_3  and  C_5
REMARK    4  A    between atoms: C_5  and  C_6
REMARK    5  A    between atoms: C_5  and  N_14
REMARK    6  A    between atoms: C_6  and  C_7
REMARK    7  A    between atoms: C_10  and  O_11
REMARK    8  A    between atoms: N_17  and  C_18
REMARK                            x       y       z     vdW  Elec       q    Type
REMARK                         _______ _______ _______ _____ _____    ______ ____
ROOT
ATOM      1  N   UNL     1       8.107   7.135  18.686  0.00  0.00    +0.000 N 
ATOM      2  C   UNL     1       8.273   8.447  18.349  0.00  0.00    +0.000 C 
ATOM      3  O   UNL     1       7.567   8.993  17.506  0.00  0.00    +0.000 OA
ATOM      4  N   UNL     1       9.218   9.094  19.103  0.00  0.00    +0.000 N 
ATOM      5  H   UNL     1       8.839   6.627  19.166  0.00  0.00    +0.000 HD
ATOM      6  H   UNL     1       9.875   8.523  19.614  0.00  0.00    +0.000 HD
ENDROOT
BRANCH   4   7
ATOM      7  C   UNL     1       9.471  10.545  19.009  0.00  0.00    +0.000 C 
ATOM      8  C   UNL     1       9.288  11.230  20.390  0.00  0.00    +0.000 C 
ATOM      9  C   UNL     1       9.542  12.743  20.297  0.00  0.00    +0.000 C 
ATOM     10  C   UNL     1      10.983  12.992  19.834  0.00  0.00    +0.000 C 
ATOM     11  C   UNL     1      11.214  12.329  18.466  0.00  0.00    +0.000 C 
ATOM     12  C   UNL     1      10.252  12.956  17.445  0.00  0.00    +0.000 C 
ATOM     13  C   UNL     1       8.798  12.730  17.890  0.00  0.00    +0.000 C 
ATOM     14  C   UNL     1       8.571  13.356  19.276  0.00  0.00    +0.000 C 
ATOM     15  C   UNL     1       8.536  11.217  17.969  0.00  0.00    +0.000 C 
ATOM     16  C   UNL     1      10.940  10.813  18.571  0.00  0.00    +0.000 C 
ENDBRANCH   4   7
BRANCH   1  17
ATOM     17  C   UNL     1       7.031   6.345  18.070  0.00  0.00    +0.000 C 
BRANCH  17  18
ATOM     18  C   UNL     1       7.577   5.339  17.053  0.00  0.00    +0.000 C 
ATOM     19  O   UNL     1       8.114   4.274  17.348  0.00  0.00    +0.000 OA
BRANCH  18  21
ATOM     20  C   UNL     1       6.889   4.901  14.836  0.00  0.00    +0.000 C 
ATOM     21  O   UNL     1       7.440   5.820  15.783  0.00  0.00    +0.000 OA
ENDBRANCH  18  21
ENDBRANCH  17  18
BRANCH  17  22
ATOM     22  C   UNL     1       6.118   5.680  19.118  0.00  0.00    +0.000 C 
BRANCH  22  23
ATOM     23  C   UNL     1       4.800   5.127  18.611  0.00  0.00    +0.000 A 
ATOM     24  C   UNL     1       4.607   3.746  18.455  0.00  0.00    +0.000 A 
ATOM     25  C   UNL     1       3.352   3.239  18.098  0.00  0.00    +0.000 A 
ATOM     26  C   UNL     1       2.295   4.117  17.872  0.00  0.00    +0.000 A 
ATOM     27  C   UNL     1       2.480   5.489  17.980  0.00  0.00    +0.000 A 
ATOM     28  C   UNL     1       3.727   5.993  18.353  0.00  0.00    +0.000 A 
BRANCH  26  29
ATOM     29  O   UNL     1       1.050   3.667  17.550  0.00  0.00    +0.000 OA
ATOM     30  H   UNL     1       0.451   3.854  18.289  0.00  0.00    +0.000 HD
ENDBRANCH  26  29
ENDBRANCH  22  23
ENDBRANCH  17  22
ENDBRANCH   1  17
TORSDOF 7
ENDMDL
MODEL 2
REMARK VINA RESULT:      -8.4      0.194      1.435
REMARK  Name = 
REMARK  8 active torsions:
REMARK  status: ('A' for Active; 'I' for Inactive)
REMARK    1  A    between atoms: C_1  and  O_2
REMARK    2  A    between atoms: O_2  and  C_3
REMARK    3  A    between atoms: C_3  and  C_5
REMARK    4  A    between atoms: C_5  and  C_6
REMARK    5  A    between atoms: C_5  and  N_14
REMARK    6  A    between atoms: C_6  and  C_7
REMARK    7  A    between atoms: C_10  and  O_11
REMARK    8  A    between atoms: N_17  and  C_18
REMARK                            x       y       z     vdW  Elec       q    Type
REMARK                         _______ _______ _______ _____ _____    ______ ____
ROOT
ATOM      1  N   UNL     1       8.078   7.083  18.621  0.00  0.00    +0.000 N 
ATOM      2  C   UNL     1       8.270   8.387  18.268  0.00  0.00    +0.000 C 
ATOM      3  O   UNL     1       7.609   8.924  17.383  0.00  0.00    +0.000 OA
ATOM      4  N   UNL     1       9.184   9.042  19.054  0.00  0.00    +0.000 N 
ATOM      5  H   UNL     1       8.782   6.578  19.143  0.00  0.00    +0.000 HD
ATOM      6  H   UNL     1       9.811   8.475  19.605  0.00  0.00    +0.000 HD
ENDROOT
BRANCH   4   7
ATOM      7  C   UNL     1       9.453  10.488  18.947  0.00  0.00    +0.000 C 
ATOM      8  C   UNL     1       8.422  11.175  18.011  0.00  0.00    +0.000 C 
ATOM      9  C   UNL     1       8.702  12.681  17.888  0.00  0.00    +0.000 C 
ATOM     10  C   UNL     1       8.594  13.337  19.271  0.00  0.00    +0.000 C 
ATOM     11  C   UNL     1       9.598  12.686  20.237  0.00  0.00    +0.000 C 
ATOM     12  C   UNL     1      11.019  12.909  19.695  0.00  0.00    +0.000 C 
ATOM     13  C   UNL     1      11.153  12.270  18.303  0.00  0.00    +0.000 C 
ATOM     14  C   UNL     1      10.123  12.889  17.342  0.00  0.00    +0.000 C 
ATOM     15  C   UNL     1      10.889  10.761  18.425  0.00  0.00    +0.000 C 
ATOM     16  C   UNL     1       9.315  11.171  20.338  0.00  0.00    +0.000 C 
ENDBRANCH   4   7
BRANCH   1  17
ATOM     17  C   UNL     1       7.025   6.290  17.968  0.00  0.00    +0.000 C 
BRANCH  17  18
ATOM     18  C   UNL     1       7.606   5.305  16.950  0.00  0.00    +0.000 C 
ATOM     19  O   UNL     1       8.153   4.244  17.243  0.00  0.00    +0.000 OA
BRANCH  18  21
ATOM     20  C   UNL     1       7.011   4.872  14.705  0.00  0.00    +0.000 C 
ATOM     21  O   UNL     1       7.487   5.799  15.684  0.00  0.00    +0.000 OA
ENDBRANCH  18  21
ENDBRANCH  17  18
BRANCH  17  22
ATOM     22  C   UNL     1       6.096   5.600  18.985  0.00  0.00    +0.000 C 
BRANCH  22  23
ATOM     23  C   UNL     1       4.735   5.170  18.473  0.00  0.00    +0.000 A 
ATOM     24  C   UNL     1       4.491   3.843  18.092  0.00  0.00    +0.000 A 
ATOM     25  C   UNL     1       3.204   3.431  17.731  0.00  0.00    +0.000 A 
ATOM     26  C   UNL     1       2.163   4.355  17.727  0.00  0.00    +0.000 A 
ATOM     27  C   UNL     1       2.394   5.683  18.060  0.00  0.00    +0.000 A 
ATOM     28  C   UNL     1       3.675   6.089  18.436  0.00  0.00    +0.000 A 
BRANCH  26  29
ATOM     29  O   UNL     1       0.888   3.993  17.409  0.00  0.00    +0.000 OA
ATOM     30  H   UNL     1       0.432   4.761  17.030  0.00  0.00    +0.000 HD
ENDBRANCH  26  29
ENDBRANCH  22  23
ENDBRANCH  17  22
ENDBRANCH   1  17
TORSDOF 7
ENDMDL
MODEL 3
REMARK VINA RESULT:      -8.3      0.089      1.435
REMARK  Name = 
REMARK  8 active torsions:
REMARK  status: ('A' for Active; 'I' for Inactive)
REMARK    1  A    between atoms: C_1  and  O_2
REMARK    2  A    between atoms: O_2  and  C_3
REMARK    3  A    between atoms: C_3  and  C_5
REMARK    4  A    between atoms: C_5  and  C_6
REMARK    5  A    between atoms: C_5  and  N_14
REMARK    6  A    between atoms: C_6  and  C_7
REMARK    7  A    between atoms: C_10  and  O_11
REMARK    8  A    between atoms: N_17  and  C_18
REMARK                            x       y       z     vdW  Elec       q    Type
REMARK                         _______ _______ _______ _____ _____    ______ ____
ROOT
ATOM      1  N   UNL     1       8.117   7.139  18.736  0.00  0.00    +0.000 N 
ATOM      2  C   UNL     1       8.299   8.444  18.383  0.00  0.00    +0.000 C 
ATOM      3  O   UNL     1       7.607   8.986  17.525  0.00  0.00    +0.000 OA
ATOM      4  N   UNL     1       9.243   9.093  19.138  0.00  0.00    +0.000 N 
ATOM      5  H   UNL     1       8.838   6.630  19.231  0.00  0.00    +0.000 HD
ATOM      6  H   UNL     1       9.888   8.523  19.663  0.00  0.00    +0.000 HD
ENDROOT
BRANCH   4   7
ATOM      7  C   UNL     1       9.511  10.539  19.026  0.00  0.00    +0.000 C 
ATOM      8  C   UNL     1      10.978  10.799  18.590  0.00  0.00    +0.000 C 
ATOM      9  C   UNL     1      11.267  12.304  18.481  0.00  0.00    +0.000 C 
ATOM     10  C   UNL     1      10.344  12.926  17.425  0.00  0.00    +0.000 C 
ATOM     11  C   UNL     1       8.874  12.693  17.812  0.00  0.00    +0.000 C 
ATOM     12  C   UNL     1       8.607  13.374  19.163  0.00  0.00    +0.000 C 
ATOM     13  C   UNL     1       9.527  12.777  20.240  0.00  0.00    +0.000 C 
ATOM     14  C   UNL     1      10.999  12.971  19.839  0.00  0.00    +0.000 C 
ATOM     15  C   UNL     1       9.230  11.273  20.364  0.00  0.00    +0.000 C 
ATOM     16  C   UNL     1       8.604  11.177  17.935  0.00  0.00    +0.000 C 
ENDBRANCH   4   7
BRANCH   1  17
ATOM     17  C   UNL     1       7.039   6.351  18.120  0.00  0.00    +0.000 C 
BRANCH  17  18
ATOM     18  C   UNL     1       7.582   5.358  17.088  0.00  0.00    +0.000 C 
ATOM     19  O   UNL     1       8.111   4.285  17.367  0.00  0.00    +0.000 OA
BRANCH  18  21
ATOM     20  C   UNL     1       7.070   4.912  14.825  0.00  0.00    +0.000 C 
ATOM     21  O   UNL     1       7.452   5.860  15.826  0.00  0.00    +0.000 OA
ENDBRANCH  18  21
ENDBRANCH  17  18
BRANCH  17  22
ATOM     22  C   UNL     1       6.137   5.671  19.167  0.00  0.00    +0.000 C 
BRANCH  22  23
ATOM     23  C   UNL     1       4.822   5.109  18.663  0.00  0.00    +0.000 A 
ATOM     24  C   UNL     1       4.588   3.726  18.636  0.00  0.00    +0.000 A 
ATOM     25  C   UNL     1       3.333   3.223  18.279  0.00  0.00    +0.000 A 
ATOM     26  C   UNL     1       2.316   4.104  17.923  0.00  0.00    +0.000 A 
ATOM     27  C   UNL     1       2.541   5.474  17.902  0.00  0.00    +0.000 A 
ATOM     28  C   UNL     1       3.789   5.976  18.275  0.00  0.00    +0.000 A 
BRANCH  26  29
ATOM     29  O   UNL     1       1.070   3.661  17.594  0.00  0.00    +0.000 OA
ATOM     30  H   UNL     1       0.944   2.777  17.975  0.00  0.00    +0.000 HD
ENDBRANCH  26  29
ENDBRANCH  22  23
ENDBRANCH  17  22
ENDBRANCH   1  17
TORSDOF 7
ENDMDL
MODEL 4
REMARK VINA RESULT:      -8.2      6.788      9.782
REMARK  Name = 
REMARK  8 active torsions:
REMARK  status: ('A' for Active; 'I' for Inactive)
REMARK    1  A    between atoms: C_1  and  O_2
REMARK    2  A    between atoms: O_2  and  C_3
REMARK    3  A    between atoms: C_3  and  C_5
REMARK    4  A    between atoms: C_5  and  C_6
REMARK    5  A    between atoms: C_5  and  N_14
REMARK    6  A    between atoms: C_6  and  C_7
REMARK    7  A    between atoms: C_10  and  O_11
REMARK    8  A    between atoms: N_17  and  C_18
REMARK                            x       y       z     vdW  Elec       q    Type
REMARK                         _______ _______ _______ _____ _____    ______ ____
ROOT
ATOM      1  N   UNL     1       1.795   8.440  20.248  0.00  0.00    +0.000 N 
ATOM      2  C   UNL     1       1.734   7.078  20.318  0.00  0.00    +0.000 C 
ATOM      3  O   UNL     1       0.761   6.496  20.788  0.00  0.00    +0.000 OA
ATOM      4  N   UNL     1       2.803   6.448  19.733  0.00  0.00    +0.000 N 
ATOM      5  H   UNL     1       2.680   8.913  20.116  0.00  0.00    +0.000 HD
ATOM      6  H   UNL     1       3.631   7.000  19.565  0.00  0.00    +0.000 HD
ENDROOT
BRANCH   4   7
ATOM      7  C   UNL     1       2.887   4.985  19.569  0.00  0.00    +0.000 C 
ATOM      8  C   UNL     1       2.422   4.255  20.858  0.00  0.00    +0.000 C 
ATOM      9  C   UNL     1       2.515   2.730  20.697  0.00  0.00    +0.000 C 
ATOM     10  C   UNL     1       1.605   2.280  19.546  0.00  0.00    +0.000 C 
ATOM     11  C   UNL     1       2.026   2.980  18.243  0.00  0.00    +0.000 C 
ATOM     12  C   UNL     1       3.473   2.579  17.914  0.00  0.00    +0.000 C 
ATOM     13  C   UNL     1       4.407   3.008  19.056  0.00  0.00    +0.000 C 
ATOM     14  C   UNL     1       3.966   2.343  20.371  0.00  0.00    +0.000 C 
ATOM     15  C   UNL     1       4.329   4.536  19.210  0.00  0.00    +0.000 C 
ATOM     16  C   UNL     1       1.944   4.511  18.426  0.00  0.00    +0.000 C 
ENDBRANCH   4   7
BRANCH   1  17
ATOM     17  C   UNL     1       0.657   9.253  20.700  0.00  0.00    +0.000 C 
BRANCH  17  18
ATOM     18  C   UNL     1       0.678   9.465  22.216  0.00  0.00    +0.000 C 
ATOM     19  O   UNL     1       1.699   9.592  22.887  0.00  0.00    +0.000 OA
BRANCH  18  21
ATOM     20  C   UNL     1      -1.122  10.691  23.132  0.00  0.00    +0.000 C 
ATOM     21  O   UNL     1      -0.590   9.429  22.722  0.00  0.00    +0.000 OA
ENDBRANCH  18  21
ENDBRANCH  17  18
BRANCH  17  22
ATOM     22  C   UNL     1       0.541  10.580  19.926  0.00  0.00    +0.000 C 
BRANCH  22  23
ATOM     23  C   UNL     1      -0.675  10.737  19.033  0.00  0.00    +0.000 A 
ATOM     24  C   UNL     1      -0.812   9.983  17.858  0.00  0.00    +0.000 A 
ATOM     25  C   UNL     1      -1.988  10.048  17.103  0.00  0.00    +0.000 A 
ATOM     26  C   UNL     1      -3.019  10.891  17.510  0.00  0.00    +0.000 A 
ATOM     27  C   UNL     1      -2.884  11.676  18.646  0.00  0.00    +0.000 A 
ATOM     28  C   UNL     1      -1.718  11.597  19.408  0.00  0.00    +0.000 A 
BRANCH  26  29
ATOM     29  O   UNL     1      -4.192  10.967  16.820  0.00  0.00    +0.000 OA
ATOM     30  H   UNL     1      -4.820  10.333  17.204  0.00  0.00    +0.000 HD
ENDBRANCH  26  29
ENDBRANCH  22  23
ENDBRANCH  17  22
ENDBRANCH   1  17
TORSDOF 7
ENDMDL
MODEL 5
REMARK VINA RESULT:      -8.2      6.774      9.801
REMARK  Name = 
REMARK  8 active torsions:
REMARK  status: ('A' for Active; 'I' for Inactive)
REMARK    1  A    between atoms: C_1  and  O_2
REMARK    2  A    between atoms: O_2  and  C_3
REMARK    3  A    between atoms: C_3  and  C_5
REMARK    4  A    between atoms: C_5  and  C_6
REMARK    5  A    between atoms: C_5  and  N_14
REMARK    6  A    between atoms: C_6  and  C_7
REMARK    7  A    between atoms: C_10  and  O_11
REMARK    8  A    between atoms: N_17  and  C_18
REMARK                            x       y       z     vdW  Elec       q    Type
REMARK                         _______ _______ _______ _____ _____    ______ ____
ROOT
ATOM      1  N   UNL     1       1.806   8.627  20.028  0.00  0.00    +0.000 N 
ATOM      2  C   UNL     1       1.724   7.273  20.170  0.00  0.00    +0.000 C 
ATOM      3  O   UNL     1       0.767   6.735  20.720  0.00  0.00    +0.000 OA
ATOM      4  N   UNL     1       2.748   6.592  19.561  0.00  0.00    +0.000 N 
ATOM      5  H   UNL     1       2.691   9.075  19.826  0.00  0.00    +0.000 HD
ATOM      6  H   UNL     1       3.576   7.117  19.322  0.00  0.00    +0.000 HD
ENDROOT
BRANCH   4   7
ATOM      7  C   UNL     1       2.796   5.121  19.468  0.00  0.00    +0.000 C 
ATOM      8  C   UNL     1       1.881   4.608  18.324  0.00  0.00    +0.000 C 
ATOM      9  C   UNL     1       1.919   3.075  18.226  0.00  0.00    +0.000 C 
ATOM     10  C   UNL     1       3.353   2.618  17.925  0.00  0.00    +0.000 C 
ATOM     11  C   UNL     1       4.301   3.104  19.033  0.00  0.00    +0.000 C 
ATOM     12  C   UNL     1       3.856   2.487  20.368  0.00  0.00    +0.000 C 
ATOM     13  C   UNL     1       2.418   2.921  20.691  0.00  0.00    +0.000 C 
ATOM     14  C   UNL     1       1.470   2.472  19.566  0.00  0.00    +0.000 C 
ATOM     15  C   UNL     1       2.378   4.454  20.805  0.00  0.00    +0.000 C 
ATOM     16  C   UNL     1       4.239   4.645  19.130  0.00  0.00    +0.000 C 
ENDBRANCH   4   7
BRANCH   1  17
ATOM     17  C   UNL     1       0.709   9.486  20.498  0.00  0.00    +0.000 C 
BRANCH  17  18
ATOM     18  C   UNL     1       0.908   9.915  21.954  0.00  0.00    +0.000 C 
ATOM     19  O   UNL     1       1.583   9.298  22.775  0.00  0.00    +0.000 OA
BRANCH  18  21
ATOM     20  C   UNL     1      -0.975  10.839  23.040  0.00  0.00    +0.000 C 
ATOM     21  O   UNL     1       0.183  11.039  22.226  0.00  0.00    +0.000 OA
ENDBRANCH  18  21
ENDBRANCH  17  18
BRANCH  17  22
ATOM     22  C   UNL     1       0.462  10.686  19.563  0.00  0.00    +0.000 C 
BRANCH  22  23
ATOM     23  C   UNL     1      -0.869  10.713  18.837  0.00  0.00    +0.000 A 
ATOM     24  C   UNL     1      -1.889  11.594  19.228  0.00  0.00    +0.000 A 
ATOM     25  C   UNL     1      -3.068  11.694  18.482  0.00  0.00    +0.000 A 
ATOM     26  C   UNL     1      -3.239  10.892  17.357  0.00  0.00    +0.000 A 
ATOM     27  C   UNL     1      -2.259   9.984  16.980  0.00  0.00    +0.000 A 
ATOM     28  C   UNL     1      -1.076   9.897  17.715  0.00  0.00    +0.000 A 
BRANCH  26  29
ATOM     29  O   UNL     1      -4.359  10.975  16.585  0.00  0.00    +0.000 OA
ATOM     30  H   UNL     1      -4.937  10.224  16.794  0.00  0.00    +0.000 HD
ENDBRANCH  26  29
ENDBRANCH  22  23
ENDBRANCH  17  22
ENDBRANCH   1  17
TORSDOF 7
ENDMDL
MODEL 6
REMARK VINA RESULT:      -8.2      0.463      1.025
REMARK  Name = 
REMARK  8 active torsions:
REMARK  status: ('A' for Active; 'I' for Inactive)
REMARK    1  A    between atoms: C_1  and  O_2
REMARK    2  A    between atoms: O_2  and  C_3
REMARK    3  A    between atoms: C_3  and  C_5
REMARK    4  A    between atoms: C_5  and  C_6
REMARK    5  A    between atoms: C_5  and  N_14
REMARK    6  A    between atoms: C_6  and  C_7
REMARK    7  A    between atoms: C_10  and  O_11
REMARK    8  A    between atoms: N_17  and  C_18
REMARK                            x       y       z     vdW  Elec       q    Type
REMARK                         _______ _______ _______ _____ _____    ______ ____
ROOT
ATOM      1  N   UNL     1       8.060   7.144  18.578  0.00  0.00    +0.000 N 
ATOM      2  C   UNL     1       8.209   8.471  18.299  0.00  0.00    +0.000 C 
ATOM      3  O   UNL     1       7.435   9.068  17.555  0.00  0.00    +0.000 OA
ATOM      4  N   UNL     1       9.227   9.070  18.997  0.00  0.00    +0.000 N 
ATOM      5  H   UNL     1       8.827   6.605  18.959  0.00  0.00    +0.000 HD
ATOM      6  H   UNL     1       9.921   8.467  19.413  0.00  0.00    +0.000 HD
ENDROOT
BRANCH   4   7
ATOM      7  C   UNL     1       9.486  10.522  18.960  0.00  0.00    +0.000 C 
ATOM      8  C   UNL     1       9.343  11.147  20.374  0.00  0.00    +0.000 C 
ATOM      9  C   UNL     1       9.603  12.661  20.341  0.00  0.00    +0.000 C 
ATOM     10  C   UNL     1      11.034  12.923  19.851  0.00  0.00    +0.000 C 
ATOM     11  C   UNL     1      11.226  12.319  18.450  0.00  0.00    +0.000 C 
ATOM     12  C   UNL     1      10.241  12.995  17.483  0.00  0.00    +0.000 C 
ATOM     13  C   UNL     1       8.798  12.757  17.955  0.00  0.00    +0.000 C 
ATOM     14  C   UNL     1       8.611  13.324  19.373  0.00  0.00    +0.000 C 
ATOM     15  C   UNL     1       8.529  11.244  17.975  0.00  0.00    +0.000 C 
ATOM     16  C   UNL     1      10.944  10.801  18.496  0.00  0.00    +0.000 C 
ENDBRANCH   4   7
BRANCH   1  17
ATOM     17  C   UNL     1       6.924   6.396  18.020  0.00  0.00    +0.000 C 
BRANCH  17  18
ATOM     18  C   UNL     1       7.342   5.537  16.823  0.00  0.00    +0.000 C 
ATOM     19  O   UNL     1       8.019   4.515  16.903  0.00  0.00    +0.000 OA
BRANCH  18  21
ATOM     20  C   UNL     1       5.495   6.268  15.544  0.00  0.00    +0.000 C 
ATOM     21  O   UNL     1       6.911   6.100  15.657  0.00  0.00    +0.000 OA
ENDBRANCH  18  21
ENDBRANCH  17  18
BRANCH  17  22
ATOM     22  C   UNL     1       6.177   5.580  19.093  0.00  0.00    +0.000 C 
BRANCH  22  23
ATOM     23  C   UNL     1       4.781   5.110  18.732  0.00  0.00    +0.000 A 
ATOM     24  C   UNL     1       3.687   5.987  18.777  0.00  0.00    +0.000 A 
ATOM     25  C   UNL     1       2.426   5.576  18.333  0.00  0.00    +0.000 A 
ATOM     26  C   UNL     1       2.252   4.276  17.866  0.00  0.00    +0.000 A 
ATOM     27  C   UNL     1       3.313   3.381  17.855  0.00  0.00    +0.000 A 
ATOM     28  C   UNL     1       4.575   3.797  18.283  0.00  0.00    +0.000 A 
BRANCH  26  29
ATOM     29  O   UNL     1       1.048   3.840  17.398  0.00  0.00    +0.000 OA
ATOM     30  H   UNL     1       1.174   2.979  16.970  0.00  0.00    +0.000 HD
ENDBRANCH  26  29
ENDBRANCH  22  23
ENDBRANCH  17  22
ENDBRANCH   1  17
TORSDOF 7
ENDMDL
MODEL 7
REMARK VINA RESULT:      -8.1      6.878      9.931
REMARK  Name = 
REMARK  8 active torsions:
REMARK  status: ('A' for Active; 'I' for Inactive)
REMARK    1  A    between atoms: C_1  and  O_2
REMARK    2  A    between atoms: O_2  and  C_3
REMARK    3  A    between atoms: C_3  and  C_5
REMARK    4  A    between atoms: C_5  and  C_6
REMARK    5  A    between atoms: C_5  and  N_14
REMARK    6  A    between atoms: C_6  and  C_7
REMARK    7  A    between atoms: C_10  and  O_11
REMARK    8  A    between atoms: N_17  and  C_18
REMARK                            x       y       z     vdW  Elec       q    Type
REMARK                         _______ _______ _______ _____ _____    ______ ____
ROOT
ATOM      1  N   UNL     1       1.592   8.814  20.651  0.00  0.00    +0.000 N 
ATOM      2  C   UNL     1       1.449   7.459  20.565  0.00  0.00    +0.000 C 
ATOM      3  O   UNL     1       0.368   6.908  20.756  0.00  0.00    +0.000 OA
ATOM      4  N   UNL     1       2.586   6.810  20.157  0.00  0.00    +0.000 N 
ATOM      5  H   UNL     1       2.506   9.233  20.759  0.00  0.00    +0.000 HD
ATOM      6  H   UNL     1       3.458   7.314  20.226  0.00  0.00    +0.000 HD
ENDROOT
BRANCH   4   7
ATOM      7  C   UNL     1       2.630   5.365  19.863  0.00  0.00    +0.000 C 
ATOM      8  C   UNL     1       2.051   4.542  21.046  0.00  0.00    +0.000 C 
ATOM      9  C   UNL     1       2.101   3.035  20.750  0.00  0.00    +0.000 C 
ATOM     10  C   UNL     1       1.258   2.729  19.505  0.00  0.00    +0.000 C 
ATOM     11  C   UNL     1       1.793   3.525  18.303  0.00  0.00    +0.000 C 
ATOM     12  C   UNL     1       3.244   3.096  18.035  0.00  0.00    +0.000 C 
ATOM     13  C   UNL     1       4.111   3.382  19.271  0.00  0.00    +0.000 C 
ATOM     14  C   UNL     1       3.557   2.619  20.487  0.00  0.00    +0.000 C 
ATOM     15  C   UNL     1       4.076   4.891  19.561  0.00  0.00    +0.000 C 
ATOM     16  C   UNL     1       1.752   5.036  18.621  0.00  0.00    +0.000 C 
ENDBRANCH   4   7
BRANCH   1  17
ATOM     17  C   UNL     1       0.425   9.662  20.934  0.00  0.00    +0.000 C 
BRANCH  17  18
ATOM     18  C   UNL     1       0.423  10.159  22.382  0.00  0.00    +0.000 C 
ATOM     19  O   UNL     1       0.879   9.530  23.334  0.00  0.00    +0.000 OA
BRANCH  18  21
ATOM     20  C   UNL     1      -1.508  11.332  23.076  0.00  0.00    +0.000 C 
ATOM     21  O   UNL     1      -0.211  11.365  22.474  0.00  0.00    +0.000 OA
ENDBRANCH  18  21
ENDBRANCH  17  18
BRANCH  17  22
ATOM     22  C   UNL     1       0.278  10.814  19.921  0.00  0.00    +0.000 C 
BRANCH  22  23
ATOM     23  C   UNL     1      -0.951  10.778  19.032  0.00  0.00    +0.000 A 
ATOM     24  C   UNL     1      -2.055  11.603  19.291  0.00  0.00    +0.000 A 
ATOM     25  C   UNL     1      -3.134  11.648  18.401  0.00  0.00    +0.000 A 
ATOM     26  C   UNL     1      -3.120  10.846  17.263  0.00  0.00    +0.000 A 
ATOM     27  C   UNL     1      -2.055   9.991  17.014  0.00  0.00    +0.000 A 
ATOM     28  C   UNL     1      -0.971   9.960  17.893  0.00  0.00    +0.000 A 
BRANCH  26  29
ATOM     29  O   UNL     1      -4.136  10.876  16.356  0.00  0.00    +0.000 OA
ATOM     30  H   UNL     1      -4.441   9.968  16.200  0.00  0.00    +0.000 HD
ENDBRANCH  26  29
ENDBRANCH  22  23
ENDBRANCH  17  22
ENDBRANCH   1  17
TORSDOF 7
ENDMDL
MODEL 8
REMARK VINA RESULT:      -8.1      6.883      9.915
REMARK  Name = 
REMARK  8 active torsions:
REMARK  status: ('A' for Active; 'I' for Inactive)
REMARK    1  A    between atoms: C_1  and  O_2
REMARK    2  A    between atoms: O_2  and  C_3
REMARK    3  A    between atoms: C_3  and  C_5
REMARK    4  A    between atoms: C_5  and  C_6
REMARK    5  A    between atoms: C_5  and  N_14
REMARK    6  A    between atoms: C_6  and  C_7
REMARK    7  A    between atoms: C_10  and  O_11
REMARK    8  A    between atoms: N_17  and  C_18
REMARK                            x       y       z     vdW  Elec       q    Type
REMARK                         _______ _______ _______ _____ _____    ______ ____
ROOT
ATOM      1  N   UNL     1       1.604   8.810  20.950  0.00  0.00    +0.000 N 
ATOM      2  C   UNL     1       1.408   7.481  20.708  0.00  0.00    +0.000 C 
ATOM      3  O   UNL     1       0.288   6.978  20.721  0.00  0.00    +0.000 OA
ATOM      4  N   UNL     1       2.553   6.810  20.361  0.00  0.00    +0.000 N 
ATOM      5  H   UNL     1       2.518   9.162  21.201  0.00  0.00    +0.000 HD
ATOM      6  H   UNL     1       3.434   7.253  20.578  0.00  0.00    +0.000 HD
ENDROOT
BRANCH   4   7
ATOM      7  C   UNL     1       2.562   5.401  19.926  0.00  0.00    +0.000 C 
ATOM      8  C   UNL     1       1.778   5.226  18.598  0.00  0.00    +0.000 C 
ATOM      9  C   UNL     1       1.776   3.759  18.143  0.00  0.00    +0.000 C 
ATOM     10  C   UNL     1       3.219   3.295  17.903  0.00  0.00    +0.000 C 
ATOM     11  C   UNL     1       4.040   3.451  19.194  0.00  0.00    +0.000 C 
ATOM     12  C   UNL     1       3.413   2.569  20.285  0.00  0.00    +0.000 C 
ATOM     13  C   UNL     1       1.962   3.004  20.540  0.00  0.00    +0.000 C 
ATOM     14  C   UNL     1       1.145   2.889  19.241  0.00  0.00    +0.000 C 
ATOM     15  C   UNL     1       1.960   4.468  21.010  0.00  0.00    +0.000 C 
ATOM     16  C   UNL     1       4.018   4.928  19.647  0.00  0.00    +0.000 C 
ENDBRANCH   4   7
BRANCH   1  17
ATOM     17  C   UNL     1       0.453   9.693  21.190  0.00  0.00    +0.000 C 
BRANCH  17  18
ATOM     18  C   UNL     1       0.375  10.138  22.653  0.00  0.00    +0.000 C 
ATOM     19  O   UNL     1       0.807   9.487  23.602  0.00  0.00    +0.000 OA
BRANCH  18  21
ATOM     20  C   UNL     1      -1.645  11.224  23.223  0.00  0.00    +0.000 C 
ATOM     21  O   UNL     1      -0.296  11.322  22.759  0.00  0.00    +0.000 OA
ENDBRANCH  18  21
ENDBRANCH  17  18
BRANCH  17  22
ATOM     22  C   UNL     1       0.415  10.885  20.214  0.00  0.00    +0.000 C 
BRANCH  22  23
ATOM     23  C   UNL     1      -0.747  10.924  19.241  0.00  0.00    +0.000 A 
ATOM     24  C   UNL     1      -0.792  10.068  18.131  0.00  0.00    +0.000 A 
ATOM     25  C   UNL     1      -1.921  10.030  17.306  0.00  0.00    +0.000 A 
ATOM     26  C   UNL     1      -2.998  10.870  17.576  0.00  0.00    +0.000 A 
ATOM     27  C   UNL     1      -2.953  11.755  18.645  0.00  0.00    +0.000 A 
ATOM     28  C   UNL     1      -1.834  11.779  19.478  0.00  0.00    +0.000 A 
BRANCH  26  29
ATOM     29  O   UNL     1      -4.128  10.848  16.815  0.00  0.00    +0.000 OA
ATOM     30  H   UNL     1      -3.949  10.340  16.008  0.00  0.00    +0.000 HD
ENDBRANCH  26  29
ENDBRANCH  22  23
ENDBRANCH  17  22
ENDBRANCH   1  17
TORSDOF 7
ENDMDL
MODEL 9
REMARK VINA RESULT:      -8.1      6.738      9.859
REMARK  Name = 
REMARK  8 active torsions:
REMARK  status: ('A' for Active; 'I' for Inactive)
REMARK    1  A    between atoms: C_1  and  O_2
REMARK    2  A    between atoms: O_2  and  C_3
REMARK    3  A    between atoms: C_3  and  C_5
REMARK    4  A    between atoms: C_5  and  C_6
REMARK    5  A    between atoms: C_5  and  N_14
REMARK    6  A    between atoms: C_6  and  C_7
REMARK    7  A    between atoms: C_10  and  O_11
REMARK    8  A    between atoms: N_17  and  C_18
REMARK                            x       y       z     vdW  Elec       q    Type
REMARK                         _______ _______ _______ _____ _____    ______ ____
ROOT
ATOM      1  N   UNL     1       1.899   8.426  20.216  0.00  0.00    +0.000 N 
ATOM      2  C   UNL     1       1.809   7.067  20.294  0.00  0.00    +0.000 C 
ATOM      3  O   UNL     1       0.836   6.510  20.795  0.00  0.00    +0.000 OA
ATOM      4  N   UNL     1       2.845   6.410  19.681  0.00  0.00    +0.000 N 
ATOM      5  H   UNL     1       2.790   8.879  20.057  0.00  0.00    +0.000 HD
ATOM      6  H   UNL     1       3.681   6.941  19.487  0.00  0.00    +0.000 HD
ENDROOT
BRANCH   4   7
ATOM      7  C   UNL     1       2.890   4.944  19.521  0.00  0.00    +0.000 C 
ATOM      8  C   UNL     1       4.331   4.466  19.195  0.00  0.00    +0.000 C 
ATOM      9  C   UNL     1       4.383   2.940  19.019  0.00  0.00    +0.000 C 
ATOM     10  C   UNL     1       3.943   2.260  20.322  0.00  0.00    +0.000 C 
ATOM     11  C   UNL     1       2.518   2.705  20.689  0.00  0.00    +0.000 C 
ATOM     12  C   UNL     1       1.563   2.279  19.563  0.00  0.00    +0.000 C 
ATOM     13  C   UNL     1       1.986   2.938  18.241  0.00  0.00    +0.000 C 
ATOM     14  C   UNL     1       3.426   2.529  17.889  0.00  0.00    +0.000 C 
ATOM     15  C   UNL     1       1.920   4.465  18.408  0.00  0.00    +0.000 C 
ATOM     16  C   UNL     1       2.478   4.241  20.846  0.00  0.00    +0.000 C 
ENDBRANCH   4   7
BRANCH   1  17
ATOM     17  C   UNL     1       0.794   9.268  20.697  0.00  0.00    +0.000 C 
BRANCH  17  18
ATOM     18  C   UNL     1       0.796   9.389  22.224  0.00  0.00    +0.000 C 
ATOM     19  O   UNL     1       1.807   9.514  22.910  0.00  0.00    +0.000 OA
BRANCH  18  21
ATOM     20  C   UNL     1      -1.055  10.491  23.194  0.00  0.00    +0.000 C 
ATOM     21  O   UNL     1      -0.473   9.276  22.715  0.00  0.00    +0.000 OA
ENDBRANCH  18  21
ENDBRANCH  17  18
BRANCH  17  22
ATOM     22  C   UNL     1       0.758  10.642  20.002  0.00  0.00    +0.000 C 
BRANCH  22  23
ATOM     23  C   UNL     1      -0.537  11.013  19.305  0.00  0.00    +0.000 A 
ATOM     24  C   UNL     1      -0.950  10.347  18.141  0.00  0.00    +0.000 A 
ATOM     25  C   UNL     1      -2.199  10.616  17.573  0.00  0.00    +0.000 A 
ATOM     26  C   UNL     1      -3.028  11.571  18.155  0.00  0.00    +0.000 A 
ATOM     27  C   UNL     1      -2.618  12.270  19.282  0.00  0.00    +0.000 A 
ATOM     28  C   UNL     1      -1.379  11.990  19.859  0.00  0.00    +0.000 A 
BRANCH  26  29
ATOM     29  O   UNL     1      -4.264  11.846  17.651  0.00  0.00    +0.000 OA
ATOM     30  H   UNL     1      -4.712  11.008  17.453  0.00  0.00    +0.000 HD
ENDBRANCH  26  29
ENDBRANCH  22  23
ENDBRANCH  17  22
ENDBRANCH   1  17
TORSDOF 7
ENDMDL
