MODEL 1
REMARK VINA RESULT:      -7.5      0.000      0.000
REMARK  Name = 
REMARK  3 active torsions:
REMARK  status: ('A' for Active; 'I' for Inactive)
REMARK    1  A    between atoms: C_4  and  C_5
REMARK    2  A    between atoms: C_9  and  N_10
REMARK    3  A    between atoms: C_11  and  C_13
REMARK                            x       y       z     vdW  Elec       q    Type
REMARK                         _______ _______ _______ _____ _____    ______ ____
ROOT
ATOM      1  C   UNL     1       4.479   5.232  17.075  0.00  0.00    +0.000 A 
ATOM      2  C   UNL     1       5.153   4.308  16.263  0.00  0.00    +0.000 A 
ATOM      3  C   UNL     1       6.432   4.585  15.794  0.00  0.00    +0.000 A 
ATOM      4  C   UNL     1       7.046   5.791  16.123  0.00  0.00    +0.000 A 
ATOM      5  C   UNL     1       6.410   6.723  16.943  0.00  0.00    +0.000 A 
ATOM      6  C   UNL     1       5.123   6.436  17.420  0.00  0.00    +0.000 A 
ENDROOT
BRANCH   1  10
ATOM      7  N   UNL     1       2.524   1.401  18.474  0.00  0.00    +0.000 N 
ATOM      8  C   UNL     1       2.621   2.745  18.619  0.00  0.00    +0.000 C 
ATOM      9  N   UNL     1       2.908   3.457  17.606  0.00  0.00    +0.000 NA
ATOM     10  C   UNL     1       3.088   4.896  17.582  0.00  0.00    +0.000 C 
ATOM     11  C   UNL     1       2.718   5.672  18.842  0.00  0.00    +0.000 C 
ATOM     12  C   UNL     1       2.934   4.979  20.168  0.00  0.00    +0.000 C 
ATOM     13  S   UNL     1       2.347   3.286  20.233  0.00  0.00    +0.000 S 
ATOM     14  H   UNL     1       2.962   1.077  17.618  0.00  0.00    +0.000 HD
ATOM     15  H   UNL     1       2.767   0.868  19.298  0.00  0.00    +0.000 HD
ENDBRANCH   1  10
BRANCH   5  16
ATOM     16  N   UNL     1       6.984   7.962  17.294  0.00  0.00    +0.000 N 
ATOM     17  C   UNL     1       8.011   8.165  18.199  0.00  0.00    +0.000 C 
ATOM     18  O   UNL     1       8.564   7.317  18.892  0.00  0.00    +0.000 OA
ATOM     19  H   UNL     1       6.635   8.803  16.839  0.00  0.00    +0.000 HD
BRANCH  17  20
ATOM     20  C   UNL     1       8.487   9.582  18.301  0.00  0.00    +0.000 A 
ATOM     21  C   UNL     1       9.473   9.888  19.237  0.00  0.00    +0.000 A 
ATOM     22  C   UNL     1       9.958  11.192  19.296  0.00  0.00    +0.000 A 
ATOM     23  C   UNL     1       9.439  12.142  18.426  0.00  0.00    +0.000 A 
ATOM     24 CL   UNL     1      10.027  13.753  18.454  0.00  0.00    +0.000 Cl
ATOM     25  C   UNL     1       8.444  11.753  17.533  0.00  0.00    +0.000 A 
ATOM     26  N   UNL     1       7.947  10.490  17.442  0.00  0.00    +0.000 NA
ENDBRANCH  17  20
ENDBRANCH   5  16
TORSDOF 3
ENDMDL
MODEL 2
REMARK VINA RESULT:      -7.5      0.611      1.016
REMARK  Name = 
REMARK  3 active torsions:
REMARK  status: ('A' for Active; 'I' for Inactive)
REMARK    1  A    between atoms: C_4  and  C_5
REMARK    2  A    between atoms: C_9  and  N_10
REMARK    3  A    between atoms: C_11  and  C_13
REMARK                            x       y       z     vdW  Elec       q    Type
REMARK                         _______ _______ _______ _____ _____    ______ ____
ROOT
ATOM      1  C   UNL     1       4.487   5.209  17.004  0.00  0.00    +0.000 A 
ATOM      2  C   UNL     1       5.144   4.301  16.161  0.00  0.00    +0.000 A 
ATOM      3  C   UNL     1       6.424   4.575  15.693  0.00  0.00    +0.000 A 
ATOM      4  C   UNL     1       7.056   5.763  16.054  0.00  0.00    +0.000 A 
ATOM      5  C   UNL     1       6.436   6.679  16.905  0.00  0.00    +0.000 A 
ATOM      6  C   UNL     1       5.149   6.393  17.381  0.00  0.00    +0.000 A 
ENDROOT
BRANCH   1  10
ATOM      7  N   UNL     1       2.544   1.396  18.468  0.00  0.00    +0.000 N 
ATOM      8  C   UNL     1       2.633   2.743  18.587  0.00  0.00    +0.000 C 
ATOM      9  N   UNL     1       2.922   3.436  17.561  0.00  0.00    +0.000 NA
ATOM     10  C   UNL     1       3.095   4.876  17.509  0.00  0.00    +0.000 C 
ATOM     11  C   UNL     1       2.713   5.675  18.751  0.00  0.00    +0.000 C 
ATOM     12  C   UNL     1       2.924   5.009  20.092  0.00  0.00    +0.000 C 
ATOM     13  S   UNL     1       2.346   3.315  20.188  0.00  0.00    +0.000 S 
ATOM     14  H   UNL     1       2.988   1.057  17.622  0.00  0.00    +0.000 HD
ATOM     15  H   UNL     1       2.784   0.881  19.304  0.00  0.00    +0.000 HD
ENDBRANCH   1  10
BRANCH   5  16
ATOM     16  N   UNL     1       7.028   7.899  17.291  0.00  0.00    +0.000 N 
ATOM     17  C   UNL     1       8.031   8.065  18.229  0.00  0.00    +0.000 C 
ATOM     18  O   UNL     1       8.541   7.196  18.929  0.00  0.00    +0.000 OA
ATOM     19  H   UNL     1       6.715   8.753  16.836  0.00  0.00    +0.000 HD
BRANCH  17  20
ATOM     20  C   UNL     1       8.537   9.469  18.365  0.00  0.00    +0.000 A 
ATOM     21  C   UNL     1       8.058  10.439  17.487  0.00  0.00    +0.000 A 
ATOM     22  C   UNL     1       8.484  11.755  17.646  0.00  0.00    +0.000 A 
ATOM     23  C   UNL     1       9.373  12.054  18.670  0.00  0.00    +0.000 A 
ATOM     24 CL   UNL     1       9.903  13.668  18.911  0.00  0.00    +0.000 Cl
ATOM     25  C   UNL     1       9.813  11.021  19.493  0.00  0.00    +0.000 A 
ATOM     26  N   UNL     1       9.418   9.725  19.372  0.00  0.00    +0.000 NA
ENDBRANCH  17  20
ENDBRANCH   5  16
TORSDOF 3
ENDMDL
MODEL 3
REMARK VINA RESULT:      -7.5      4.986      6.400
REMARK  Name = 
REMARK  3 active torsions:
REMARK  status: ('A' for Active; 'I' for Inactive)
REMARK    1  A    between atoms: C_4  and  C_5
REMARK    2  A    between atoms: C_9  and  N_10
REMARK    3  A    between atoms: C_11  and  C_13
REMARK                            x       y       z     vdW  Elec       q    Type
REMARK                         _______ _______ _______ _____ _____    ______ ____
ROOT
ATOM      1  C   UNL     1       2.986   5.133  18.052  0.00  0.00    +0.000 A 
ATOM      2  C   UNL     1       4.167   5.386  17.340  0.00  0.00    +0.000 A 
ATOM      3  C   UNL     1       4.531   6.690  17.021  0.00  0.00    +0.000 A 
ATOM      4  C   UNL     1       3.714   7.751  17.401  0.00  0.00    +0.000 A 
ATOM      5  C   UNL     1       2.541   7.535  18.126  0.00  0.00    +0.000 A 
ATOM      6  C   UNL     1       2.183   6.219  18.452  0.00  0.00    +0.000 A 
ENDROOT
BRANCH   1  10
ATOM      7  N   UNL     1       5.087   1.865  20.366  0.00  0.00    +0.000 N 
ATOM      8  C   UNL     1       3.907   2.443  20.037  0.00  0.00    +0.000 C 
ATOM      9  N   UNL     1       3.789   3.004  18.902  0.00  0.00    +0.000 NA
ATOM     10  C   UNL     1       2.621   3.701  18.397  0.00  0.00    +0.000 C 
ATOM     11  C   UNL     1       1.336   3.600  19.213  0.00  0.00    +0.000 C 
ATOM     12  C   UNL     1       1.478   3.504  20.715  0.00  0.00    +0.000 C 
ATOM     13  S   UNL     1       2.715   2.335  21.278  0.00  0.00    +0.000 S 
ATOM     14  H   UNL     1       5.846   2.180  19.772  0.00  0.00    +0.000 HD
ATOM     15  H   UNL     1       5.299   1.868  21.355  0.00  0.00    +0.000 HD
ENDBRANCH   1  10
BRANCH   5  16
ATOM     16  N   UNL     1       1.675   8.574  18.523  0.00  0.00    +0.000 N 
ATOM     17  C   UNL     1       1.321   8.897  19.821  0.00  0.00    +0.000 C 
ATOM     18  O   UNL     1       1.651   8.309  20.846  0.00  0.00    +0.000 OA
ATOM     19  H   UNL     1       1.271   9.168  17.803  0.00  0.00    +0.000 HD
BRANCH  17  20
ATOM     20  C   UNL     1       0.459  10.115  19.952  0.00  0.00    +0.000 A 
ATOM     21  C   UNL     1      -0.457  10.397  18.939  0.00  0.00    +0.000 A 
ATOM     22  C   UNL     1      -1.299  11.496  19.084  0.00  0.00    +0.000 A 
ATOM     23  C   UNL     1      -1.194  12.276  20.229  0.00  0.00    +0.000 A 
ATOM     24 CL   UNL     1      -2.230  13.625  20.453  0.00  0.00    +0.000 Cl
ATOM     25  C   UNL     1      -0.241  11.932  21.184  0.00  0.00    +0.000 A 
ATOM     26  N   UNL     1       0.597  10.865  21.081  0.00  0.00    +0.000 NA
ENDBRANCH  17  20
ENDBRANCH   5  16
TORSDOF 3
ENDMDL
MODEL 4
REMARK VINA RESULT:      -7.4      4.730      6.866
REMARK  Name = 
REMARK  3 active torsions:
REMARK  status: ('A' for Active; 'I' for Inactive)
REMARK    1  A    between atoms: C_4  and  C_5
REMARK    2  A    between atoms: C_9  and  N_10
REMARK    3  A    between atoms: C_11  and  C_13
REMARK                            x       y       z     vdW  Elec       q    Type
REMARK                         _______ _______ _______ _____ _____    ______ ____
ROOT
ATOM      1  C   UNL     1       4.034   4.271  19.084  0.00  0.00    +0.000 A 
ATOM      2  C   UNL     1       3.520   3.043  19.526  0.00  0.00    +0.000 A 
ATOM      3  C   UNL     1       2.432   3.005  20.390  0.00  0.00    +0.000 A 
ATOM      4  C   UNL     1       1.853   4.193  20.830  0.00  0.00    +0.000 A 
ATOM      5  C   UNL     1       2.329   5.431  20.396  0.00  0.00    +0.000 A 
ATOM      6  C   UNL     1       3.422   5.463  19.518  0.00  0.00    +0.000 A 
ENDROOT
BRANCH   1  10
ATOM      7  N   UNL     1       5.124   6.828  15.516  0.00  0.00    +0.000 N 
ATOM      8  C   UNL     1       5.566   6.134  16.594  0.00  0.00    +0.000 C 
ATOM      9  N   UNL     1       4.913   5.116  16.983  0.00  0.00    +0.000 NA
ATOM     10  C   UNL     1       5.214   4.281  18.130  0.00  0.00    +0.000 C 
ATOM     11  C   UNL     1       6.544   4.516  18.841  0.00  0.00    +0.000 C 
ATOM     12  C   UNL     1       7.069   5.933  18.871  0.00  0.00    +0.000 C 
ATOM     13  S   UNL     1       6.993   6.794  17.300  0.00  0.00    +0.000 S 
ATOM     14  H   UNL     1       4.157   6.616  15.296  0.00  0.00    +0.000 HD
ATOM     15  H   UNL     1       5.345   7.814  15.528  0.00  0.00    +0.000 HD
ENDBRANCH   1  10
BRANCH   5  16
ATOM     16  N   UNL     1       1.786   6.661  20.821  0.00  0.00    +0.000 N 
ATOM     17  C   UNL     1       1.724   7.830  20.085  0.00  0.00    +0.000 C 
ATOM     18  O   UNL     1       2.178   8.021  18.960  0.00  0.00    +0.000 OA
ATOM     19  H   UNL     1       1.378   6.713  21.751  0.00  0.00    +0.000 HD
BRANCH  17  20
ATOM     20  C   UNL     1       1.002   8.958  20.756  0.00  0.00    +0.000 A 
ATOM     21  C   UNL     1       0.582   8.790  22.074  0.00  0.00    +0.000 A 
ATOM     22  C   UNL     1      -0.040   9.856  22.719  0.00  0.00    +0.000 A 
ATOM     23  C   UNL     1      -0.224  11.045  22.026  0.00  0.00    +0.000 A 
ATOM     24 CL   UNL     1      -0.967  12.388  22.795  0.00  0.00    +0.000 Cl
ATOM     25  C   UNL     1       0.212  11.122  20.706  0.00  0.00    +0.000 A 
ATOM     26  N   UNL     1       0.826  10.105  20.043  0.00  0.00    +0.000 NA
ENDBRANCH  17  20
ENDBRANCH   5  16
TORSDOF 3
ENDMDL
MODEL 5
REMARK VINA RESULT:      -7.4      6.643      7.996
REMARK  Name = 
REMARK  3 active torsions:
REMARK  status: ('A' for Active; 'I' for Inactive)
REMARK    1  A    between atoms: C_4  and  C_5
REMARK    2  A    between atoms: C_9  and  N_10
REMARK    3  A    between atoms: C_11  and  C_13
REMARK                            x       y       z     vdW  Elec       q    Type
REMARK                         _______ _______ _______ _____ _____    ______ ____
ROOT
ATOM      1  C   UNL     1       2.234   7.247  19.620  0.00  0.00    +0.000 A 
ATOM      2  C   UNL     1       2.467   7.580  18.278  0.00  0.00    +0.000 A 
ATOM      3  C   UNL     1       1.981   8.772  17.753  0.00  0.00    +0.000 A 
ATOM      4  C   UNL     1       1.249   9.638  18.561  0.00  0.00    +0.000 A 
ATOM      5  C   UNL     1       1.014   9.345  19.905  0.00  0.00    +0.000 A 
ATOM      6  C   UNL     1       1.514   8.145  20.431  0.00  0.00    +0.000 A 
ENDROOT
BRANCH   1  10
ATOM      7  N   UNL     1       0.447   3.146  20.284  0.00  0.00    +0.000 N 
ATOM      8  C   UNL     1       1.545   3.865  19.946  0.00  0.00    +0.000 C 
ATOM      9  N   UNL     1       1.701   5.025  20.443  0.00  0.00    +0.000 NA
ATOM     10  C   UNL     1       2.789   5.945  20.168  0.00  0.00    +0.000 C 
ATOM     11  C   UNL     1       3.967   5.418  19.354  0.00  0.00    +0.000 C 
ATOM     12  C   UNL     1       3.666   4.381  18.296  0.00  0.00    +0.000 C 
ATOM     13  S   UNL     1       2.583   3.057  18.832  0.00  0.00    +0.000 S 
ATOM     14  H   UNL     1      -0.278   3.726  20.693  0.00  0.00    +0.000 HD
ATOM     15  H   UNL     1       0.122   2.509  19.570  0.00  0.00    +0.000 HD
ENDBRANCH   1  10
BRANCH   5  16
ATOM     16  N   UNL     1       0.269  10.183  20.760  0.00  0.00    +0.000 N 
ATOM     17  C   UNL     1       0.624  11.452  21.180  0.00  0.00    +0.000 C 
ATOM     18  O   UNL     1       1.666  12.050  20.931  0.00  0.00    +0.000 OA
ATOM     19  H   UNL     1      -0.629   9.848  21.102  0.00  0.00    +0.000 HD
BRANCH  17  20
ATOM     20  C   UNL     1      -0.409  12.151  22.010  0.00  0.00    +0.000 A 
ATOM     21  C   UNL     1      -1.562  11.453  22.368  0.00  0.00    +0.000 A 
ATOM     22  C   UNL     1      -2.498  12.080  23.186  0.00  0.00    +0.000 A 
ATOM     23  C   UNL     1      -2.253  13.379  23.613  0.00  0.00    +0.000 A 
ATOM     24 CL   UNL     1      -3.372  14.176  24.641  0.00  0.00    +0.000 Cl
ATOM     25  C   UNL     1      -1.083  14.007  23.197  0.00  0.00    +0.000 A 
ATOM     26  N   UNL     1      -0.143  13.428  22.401  0.00  0.00    +0.000 NA
ENDBRANCH  17  20
ENDBRANCH   5  16
TORSDOF 3
ENDMDL
MODEL 6
REMARK VINA RESULT:      -7.4      4.773      6.962
REMARK  Name = 
REMARK  3 active torsions:
REMARK  status: ('A' for Active; 'I' for Inactive)
REMARK    1  A    between atoms: C_4  and  C_5
REMARK    2  A    between atoms: C_9  and  N_10
REMARK    3  A    between atoms: C_11  and  C_13
REMARK                            x       y       z     vdW  Elec       q    Type
REMARK                         _______ _______ _______ _____ _____    ______ ____
ROOT
ATOM      1  C   UNL     1       4.104   4.236  19.052  0.00  0.00    +0.000 A 
ATOM      2  C   UNL     1       3.576   3.000  19.450  0.00  0.00    +0.000 A 
ATOM      3  C   UNL     1       2.483   2.945  20.309  0.00  0.00    +0.000 A 
ATOM      4  C   UNL     1       1.915   4.123  20.785  0.00  0.00    +0.000 A 
ATOM      5  C   UNL     1       2.405   5.370  20.394  0.00  0.00    +0.000 A 
ATOM      6  C   UNL     1       3.502   5.420  19.522  0.00  0.00    +0.000 A 
ENDROOT
BRANCH   1  10
ATOM      7  N   UNL     1       5.159   6.797  15.476  0.00  0.00    +0.000 N 
ATOM      8  C   UNL     1       5.610   6.118  16.559  0.00  0.00    +0.000 C 
ATOM      9  N   UNL     1       4.976   5.088  16.951  0.00  0.00    +0.000 NA
ATOM     10  C   UNL     1       5.288   4.265  18.104  0.00  0.00    +0.000 C 
ATOM     11  C   UNL     1       6.609   4.530  18.819  0.00  0.00    +0.000 C 
ATOM     12  C   UNL     1       7.105   5.958  18.845  0.00  0.00    +0.000 C 
ATOM     13  S   UNL     1       7.020   6.810  17.270  0.00  0.00    +0.000 S 
ATOM     14  H   UNL     1       4.198   6.564  15.253  0.00  0.00    +0.000 HD
ATOM     15  H   UNL     1       5.360   7.788  15.485  0.00  0.00    +0.000 HD
ENDBRANCH   1  10
BRANCH   5  16
ATOM     16  N   UNL     1       1.872   6.590  20.857  0.00  0.00    +0.000 N 
ATOM     17  C   UNL     1       1.742   7.759  20.129  0.00  0.00    +0.000 C 
ATOM     18  O   UNL     1       2.114   7.958  18.976  0.00  0.00    +0.000 OA
ATOM     19  H   UNL     1       1.529   6.635  21.813  0.00  0.00    +0.000 HD
BRANCH  17  20
ATOM     20  C   UNL     1       1.049   8.874  20.849  0.00  0.00    +0.000 A 
ATOM     21  C   UNL     1       0.609   9.973  20.113  0.00  0.00    +0.000 A 
ATOM     22  C   UNL     1      -0.085  10.985  20.771  0.00  0.00    +0.000 A 
ATOM     23  C   UNL     1      -0.311  10.867  22.136  0.00  0.00    +0.000 A 
ATOM     24 CL   UNL     1      -1.182  12.083  22.977  0.00  0.00    +0.000 Cl
ATOM     25  C   UNL     1       0.177   9.743  22.797  0.00  0.00    +0.000 A 
ATOM     26  N   UNL     1       0.856   8.732  22.191  0.00  0.00    +0.000 NA
ENDBRANCH  17  20
ENDBRANCH   5  16
TORSDOF 3
ENDMDL
MODEL 7
REMARK VINA RESULT:      -7.4      5.268      7.254
REMARK  Name = 
REMARK  3 active torsions:
REMARK  status: ('A' for Active; 'I' for Inactive)
REMARK    1  A    between atoms: C_4  and  C_5
REMARK    2  A    between atoms: C_9  and  N_10
REMARK    3  A    between atoms: C_11  and  C_13
REMARK                            x       y       z     vdW  Elec       q    Type
REMARK                         _______ _______ _______ _____ _____    ______ ____
ROOT
ATOM      1  C   UNL     1       4.137   6.019  18.324  0.00  0.00    +0.000 A 
ATOM      2  C   UNL     1       3.766   4.669  18.410  0.00  0.00    +0.000 A 
ATOM      3  C   UNL     1       2.658   4.289  19.158  0.00  0.00    +0.000 A 
ATOM      4  C   UNL     1       1.915   5.252  19.837  0.00  0.00    +0.000 A 
ATOM      5  C   UNL     1       2.247   6.606  19.758  0.00  0.00    +0.000 A 
ATOM      6  C   UNL     1       3.361   6.984  18.995  0.00  0.00    +0.000 A 
ENDROOT
BRANCH   1  10
ATOM      7  N   UNL     1       8.228   4.180  17.747  0.00  0.00    +0.000 N 
ATOM      8  C   UNL     1       7.198   4.858  17.184  0.00  0.00    +0.000 C 
ATOM      9  N   UNL     1       6.499   5.633  17.909  0.00  0.00    +0.000 NA
ATOM     10  C   UNL     1       5.344   6.404  17.489  0.00  0.00    +0.000 C 
ATOM     11  C   UNL     1       5.036   6.452  15.996  0.00  0.00    +0.000 C 
ATOM     12  C   UNL     1       5.367   5.221  15.183  0.00  0.00    +0.000 C 
ATOM     13  S   UNL     1       6.987   4.524  15.506  0.00  0.00    +0.000 S 
ATOM     14  H   UNL     1       8.162   4.157  18.758  0.00  0.00    +0.000 HD
ATOM     15  H   UNL     1       8.431   3.287  17.318  0.00  0.00    +0.000 HD
ENDBRANCH   1  10
BRANCH   5  16
ATOM     16  N   UNL     1       1.535   7.617  20.435  0.00  0.00    +0.000 N 
ATOM     17  C   UNL     1       1.133   8.831  19.909  0.00  0.00    +0.000 C 
ATOM     18  O   UNL     1       1.370   9.267  18.786  0.00  0.00    +0.000 OA
ATOM     19  H   UNL     1       1.265   7.453  21.402  0.00  0.00    +0.000 HD
BRANCH  17  20
ATOM     20  C   UNL     1       0.303   9.672  20.831  0.00  0.00    +0.000 A 
ATOM     21  C   UNL     1       0.153   9.260  22.154  0.00  0.00    +0.000 A 
ATOM     22  C   UNL     1      -0.571  10.068  23.028  0.00  0.00    +0.000 A 
ATOM     23  C   UNL     1      -1.120  11.250  22.551  0.00  0.00    +0.000 A 
ATOM     24 CL   UNL     1      -1.999  12.282  23.603  0.00  0.00    +0.000 Cl
ATOM     25  C   UNL     1      -0.933  11.578  21.211  0.00  0.00    +0.000 A 
ATOM     26  N   UNL     1      -0.232  10.818  20.327  0.00  0.00    +0.000 NA
ENDBRANCH  17  20
ENDBRANCH   5  16
TORSDOF 3
ENDMDL
MODEL 8
REMARK VINA RESULT:      -7.3      5.231      6.584
REMARK  Name = 
REMARK  3 active torsions:
REMARK  status: ('A' for Active; 'I' for Inactive)
REMARK    1  A    between atoms: C_4  and  C_5
REMARK    2  A    between atoms: C_9  and  N_10
REMARK    3  A    between atoms: C_11  and  C_13
REMARK                            x       y       z     vdW  Elec       q    Type
REMARK                         _______ _______ _______ _____ _____    ______ ____
ROOT
ATOM      1  C   UNL     1       2.684   5.278  18.414  0.00  0.00    +0.000 A 
ATOM      2  C   UNL     1       3.615   5.591  17.413  0.00  0.00    +0.000 A 
ATOM      3  C   UNL     1       3.938   6.916  17.141  0.00  0.00    +0.000 A 
ATOM      4  C   UNL     1       3.326   7.941  17.859  0.00  0.00    +0.000 A 
ATOM      5  C   UNL     1       2.408   7.662  18.873  0.00  0.00    +0.000 A 
ATOM      6  C   UNL     1       2.093   6.324  19.148  0.00  0.00    +0.000 A 
ENDROOT
BRANCH   1  10
ATOM      7  N   UNL     1       5.035   1.876  20.245  0.00  0.00    +0.000 N 
ATOM      8  C   UNL     1       3.824   2.466  20.090  0.00  0.00    +0.000 C 
ATOM      9  N   UNL     1       3.580   3.103  19.018  0.00  0.00    +0.000 NA
ATOM     10  C   UNL     1       2.362   3.822  18.697  0.00  0.00    +0.000 C 
ATOM     11  C   UNL     1       1.176   3.654  19.642  0.00  0.00    +0.000 C 
ATOM     12  C   UNL     1       1.486   3.456  21.109  0.00  0.00    +0.000 C 
ATOM     13  S   UNL     1       2.779   2.261  21.446  0.00  0.00    +0.000 S 
ATOM     14  H   UNL     1       5.722   2.239  19.593  0.00  0.00    +0.000 HD
ATOM     15  H   UNL     1       5.356   1.813  21.201  0.00  0.00    +0.000 HD
ENDBRANCH   1  10
BRANCH   5  16
ATOM     16  N   UNL     1       1.754   8.664  19.619  0.00  0.00    +0.000 N 
ATOM     17  C   UNL     1       0.819   9.565  19.142  0.00  0.00    +0.000 C 
ATOM     18  O   UNL     1       0.437   9.691  17.983  0.00  0.00    +0.000 OA
ATOM     19  H   UNL     1       1.961   8.739  20.612  0.00  0.00    +0.000 HD
BRANCH  17  20
ATOM     20  C   UNL     1       0.215  10.455  20.185  0.00  0.00    +0.000 A 
ATOM     21  C   UNL     1      -0.091   9.910  21.431  0.00  0.00    +0.000 A 
ATOM     22  C   UNL     1      -0.600  10.746  22.421  0.00  0.00    +0.000 A 
ATOM     23  C   UNL     1      -0.789  12.091  22.131  0.00  0.00    +0.000 A 
ATOM     24 CL   UNL     1      -1.393  13.158  23.333  0.00  0.00    +0.000 Cl
ATOM     25  C   UNL     1      -0.471  12.549  20.856  0.00  0.00    +0.000 A 
ATOM     26  N   UNL     1       0.031  11.766  19.863  0.00  0.00    +0.000 NA
ENDBRANCH  17  20
ENDBRANCH   5  16
TORSDOF 3
ENDMDL
MODEL 9
REMARK VINA RESULT:      -7.3      6.532      8.066
REMARK  Name = 
REMARK  3 active torsions:
REMARK  status: ('A' for Active; 'I' for Inactive)
REMARK    1  A    between atoms: C_4  and  C_5
REMARK    2  A    between atoms: C_9  and  N_10
REMARK    3  A    between atoms: C_11  and  C_13
REMARK                            x       y       z     vdW  Elec       q    Type
REMARK                         _______ _______ _______ _____ _____    ______ ____
ROOT
ATOM      1  C   UNL     1       2.550   7.005  19.484  0.00  0.00    +0.000 A 
ATOM      2  C   UNL     1       3.002   7.421  18.224  0.00  0.00    +0.000 A 
ATOM      3  C   UNL     1       2.502   8.581  17.644  0.00  0.00    +0.000 A 
ATOM      4  C   UNL     1       1.538   9.332  18.313  0.00  0.00    +0.000 A 
ATOM      5  C   UNL     1       1.080   8.955  19.576  0.00  0.00    +0.000 A 
ATOM      6  C   UNL     1       1.594   7.788  20.160  0.00  0.00    +0.000 A 
ENDROOT
BRANCH   1  10
ATOM      7  N   UNL     1       0.725   3.074  20.778  0.00  0.00    +0.000 N 
ATOM      8  C   UNL     1       1.797   3.706  20.241  0.00  0.00    +0.000 C 
ATOM      9  N   UNL     1       2.049   4.902  20.592  0.00  0.00    +0.000 NA
ATOM     10  C   UNL     1       3.125   5.741  20.098  0.00  0.00    +0.000 C 
ATOM     11  C   UNL     1       4.179   5.084  19.212  0.00  0.00    +0.000 C 
ATOM     12  C   UNL     1       3.720   3.960  18.311  0.00  0.00    +0.000 C 
ATOM     13  S   UNL     1       2.667   2.745  19.104  0.00  0.00    +0.000 S 
ATOM     14  H   UNL     1       0.073   3.724  21.205  0.00  0.00    +0.000 HD
ATOM     15  H   UNL     1       0.297   2.384  20.177  0.00  0.00    +0.000 HD
ENDBRANCH   1  10
BRANCH   5  16
ATOM     16  N   UNL     1       0.098   9.674  20.288  0.00  0.00    +0.000 N 
ATOM     17  C   UNL     1       0.276  10.879  20.943  0.00  0.00    +0.000 C 
ATOM     18  O   UNL     1       1.323  11.506  21.067  0.00  0.00    +0.000 OA
ATOM     19  H   UNL     1      -0.845   9.296  20.325  0.00  0.00    +0.000 HD
BRANCH  17  20
ATOM     20  C   UNL     1      -0.971  11.462  21.534  0.00  0.00    +0.000 A 
ATOM     21  C   UNL     1      -1.240  11.234  22.883  0.00  0.00    +0.000 A 
ATOM     22  C   UNL     1      -2.368  11.821  23.449  0.00  0.00    +0.000 A 
ATOM     23  C   UNL     1      -3.188  12.608  22.651  0.00  0.00    +0.000 A 
ATOM     24 CL   UNL     1      -4.575  13.366  23.319  0.00  0.00    +0.000 Cl
ATOM     25  C   UNL     1      -2.853  12.771  21.310  0.00  0.00    +0.000 A 
ATOM     26  N   UNL     1      -1.759  12.218  20.720  0.00  0.00    +0.000 NA
ENDBRANCH  17  20
ENDBRANCH   5  16
TORSDOF 3
ENDMDL
