MODEL 1
REMARK VINA RESULT:      -7.0      0.000      0.000
REMARK  Name = 
REMARK  7 active torsions:
REMARK  status: ('A' for Active; 'I' for Inactive)
REMARK    1  A    between atoms: C_1  and  C_2
REMARK    2  A    between atoms: C_2  and  O_3
REMARK    3  A    between atoms: O_3  and  C_4
REMARK    4  A    between atoms: C_4  and  C_6
REMARK    5  A    between atoms: C_6  and  C_7
REMARK    6  A    between atoms: C_8  and  N_9
REMARK    7  A    between atoms: C_10  and  C_12
REMARK                            x       y       z     vdW  Elec       q    Type
REMARK                         _______ _______ _______ _____ _____    ______ ____
ROOT
ATOM      1  N   UNL     1       4.412   3.774  17.076  0.00  0.00    +0.000 N 
ATOM      2  C   UNL     1       4.656   3.827  18.441  0.00  0.00    +0.000 C 
ATOM      3  O   UNL     1       5.776   3.849  18.945  0.00  0.00    +0.000 OA
ATOM      4  H   UNL     1       3.460   3.648  16.757  0.00  0.00    +0.000 HD
ENDROOT
BRANCH   2   5
ATOM      5  C   UNL     1       3.450   3.823  19.312  0.00  0.00    +0.000 A 
ATOM      6  C   UNL     1       3.007   5.043  19.839  0.00  0.00    +0.000 A 
ATOM      7  C   UNL     1       1.885   5.081  20.668  0.00  0.00    +0.000 A 
ATOM      8  C   UNL     1       1.202   3.904  20.971  0.00  0.00    +0.000 A 
ATOM      9  C   UNL     1       1.627   2.688  20.435  0.00  0.00    +0.000 A 
ATOM     10  C   UNL     1       2.743   2.647  19.599  0.00  0.00    +0.000 A 
ENDBRANCH   2   5
BRANCH   1  13
ATOM     11  C   UNL     1       5.818   4.883  15.479  0.00  0.00    +0.000 C 
ATOM     12  C   UNL     1       5.225   6.247  15.665  0.00  0.00    +0.000 C 
ATOM     13  C   UNL     1       5.415   3.782  16.138  0.00  0.00    +0.000 C 
BRANCH  11  14
ATOM     14  C   UNL     1       6.850   4.741  14.414  0.00  0.00    +0.000 C 
ATOM     15  O   UNL     1       7.695   5.591  14.178  0.00  0.00    +0.000 OA
BRANCH  14  16
ATOM     16  O   UNL     1       6.664   3.591  13.719  0.00  0.00    +0.000 OA
BRANCH  16  18
ATOM     17  C   UNL     1       5.094   3.301  11.944  0.00  0.00    +0.000 C 
ATOM     18  C   UNL     1       6.506   3.732  12.303  0.00  0.00    +0.000 C 
ENDBRANCH  16  18
ENDBRANCH  14  16
ENDBRANCH  11  14
ENDBRANCH   1  13
TORSDOF 5
ENDMDL
MODEL 2
REMARK VINA RESULT:      -7.0      0.109      1.175
REMARK  Name = 
REMARK  7 active torsions:
REMARK  status: ('A' for Active; 'I' for Inactive)
REMARK    1  A    between atoms: C_1  and  C_2
REMARK    2  A    between atoms: C_2  and  O_3
REMARK    3  A    between atoms: O_3  and  C_4
REMARK    4  A    between atoms: C_4  and  C_6
REMARK    5  A    between atoms: C_6  and  C_7
REMARK    6  A    between atoms: C_8  and  N_9
REMARK    7  A    between atoms: C_10  and  C_12
REMARK                            x       y       z     vdW  Elec       q    Type
REMARK                         _______ _______ _______ _____ _____    ______ ____
ROOT
ATOM      1  N   UNL     1       4.345   3.772  17.085  0.00  0.00    +0.000 N 
ATOM      2  C   UNL     1       4.611   3.903  18.440  0.00  0.00    +0.000 C 
ATOM      3  O   UNL     1       5.738   3.991  18.920  0.00  0.00    +0.000 OA
ATOM      4  H   UNL     1       3.393   3.596  16.791  0.00  0.00    +0.000 HD
ENDROOT
BRANCH   2   5
ATOM      5  C   UNL     1       3.422   3.898  19.334  0.00  0.00    +0.000 A 
ATOM      6  C   UNL     1       2.866   2.662  19.691  0.00  0.00    +0.000 A 
ATOM      7  C   UNL     1       1.744   2.613  20.520  0.00  0.00    +0.000 A 
ATOM      8  C   UNL     1       1.177   3.795  20.996  0.00  0.00    +0.000 A 
ATOM      9  C   UNL     1       1.737   5.027  20.660  0.00  0.00    +0.000 A 
ATOM     10  C   UNL     1       2.863   5.080  19.837  0.00  0.00    +0.000 A 
ENDBRANCH   2   5
BRANCH   1  13
ATOM     11  C   UNL     1       5.792   4.879  15.523  0.00  0.00    +0.000 C 
ATOM     12  C   UNL     1       5.291   6.265  15.795  0.00  0.00    +0.000 C 
ATOM     13  C   UNL     1       5.330   3.770  16.128  0.00  0.00    +0.000 C 
BRANCH  11  14
ATOM     14  C   UNL     1       6.794   4.733  14.430  0.00  0.00    +0.000 C 
ATOM     15  O   UNL     1       7.631   5.582  14.166  0.00  0.00    +0.000 OA
BRANCH  14  16
ATOM     16  O   UNL     1       6.591   3.579  13.747  0.00  0.00    +0.000 OA
BRANCH  16  18
ATOM     17  C   UNL     1       5.086   3.353  11.906  0.00  0.00    +0.000 C 
ATOM     18  C   UNL     1       6.506   3.699  12.322  0.00  0.00    +0.000 C 
ENDBRANCH  16  18
ENDBRANCH  14  16
ENDBRANCH  11  14
ENDBRANCH   1  13
TORSDOF 5
ENDMDL
MODEL 3
REMARK VINA RESULT:      -6.8      1.295      1.452
REMARK  Name = 
REMARK  7 active torsions:
REMARK  status: ('A' for Active; 'I' for Inactive)
REMARK    1  A    between atoms: C_1  and  C_2
REMARK    2  A    between atoms: C_2  and  O_3
REMARK    3  A    between atoms: O_3  and  C_4
REMARK    4  A    between atoms: C_4  and  C_6
REMARK    5  A    between atoms: C_6  and  C_7
REMARK    6  A    between atoms: C_8  and  N_9
REMARK    7  A    between atoms: C_10  and  C_12
REMARK                            x       y       z     vdW  Elec       q    Type
REMARK                         _______ _______ _______ _____ _____    ______ ____
ROOT
ATOM      1  N   UNL     1       4.466   3.442  17.365  0.00  0.00    +0.000 N 
ATOM      2  C   UNL     1       3.577   4.297  18.000  0.00  0.00    +0.000 C 
ATOM      3  O   UNL     1       3.301   5.428  17.606  0.00  0.00    +0.000 OA
ATOM      4  H   UNL     1       4.715   2.574  17.821  0.00  0.00    +0.000 HD
ENDROOT
BRANCH   2   5
ATOM      5  C   UNL     1       2.967   3.778  19.254  0.00  0.00    +0.000 A 
ATOM      6  C   UNL     1       1.669   4.191  19.581  0.00  0.00    +0.000 A 
ATOM      7  C   UNL     1       1.064   3.735  20.753  0.00  0.00    +0.000 A 
ATOM      8  C   UNL     1       1.751   2.865  21.599  0.00  0.00    +0.000 A 
ATOM      9  C   UNL     1       3.037   2.436  21.270  0.00  0.00    +0.000 A 
ATOM     10  C   UNL     1       3.642   2.884  20.095  0.00  0.00    +0.000 A 
ENDBRANCH   2   5
BRANCH   1  13
ATOM     11  C   UNL     1       6.340   4.295  16.132  0.00  0.00    +0.000 C 
ATOM     12  C   UNL     1       7.184   4.617  17.327  0.00  0.00    +0.000 C 
ATOM     13  C   UNL     1       5.105   3.766  16.193  0.00  0.00    +0.000 C 
BRANCH  11  14
ATOM     14  C   UNL     1       6.882   4.693  14.802  0.00  0.00    +0.000 C 
ATOM     15  O   UNL     1       7.890   5.368  14.661  0.00  0.00    +0.000 OA
BRANCH  14  16
ATOM     16  O   UNL     1       6.067   4.266  13.806  0.00  0.00    +0.000 OA
BRANCH  16  18
ATOM     17  C   UNL     1       5.875   2.785  11.943  0.00  0.00    +0.000 C 
ATOM     18  C   UNL     1       6.713   3.875  12.590  0.00  0.00    +0.000 C 
ENDBRANCH  16  18
ENDBRANCH  14  16
ENDBRANCH  11  14
ENDBRANCH   1  13
TORSDOF 5
ENDMDL
MODEL 4
REMARK VINA RESULT:      -6.8      1.290      1.613
REMARK  Name = 
REMARK  7 active torsions:
REMARK  status: ('A' for Active; 'I' for Inactive)
REMARK    1  A    between atoms: C_1  and  C_2
REMARK    2  A    between atoms: C_2  and  O_3
REMARK    3  A    between atoms: O_3  and  C_4
REMARK    4  A    between atoms: C_4  and  C_6
REMARK    5  A    between atoms: C_6  and  C_7
REMARK    6  A    between atoms: C_8  and  N_9
REMARK    7  A    between atoms: C_10  and  C_12
REMARK                            x       y       z     vdW  Elec       q    Type
REMARK                         _______ _______ _______ _____ _____    ______ ____
ROOT
ATOM      1  N   UNL     1       4.292   3.560  17.194  0.00  0.00    +0.000 N 
ATOM      2  C   UNL     1       3.491   4.469  17.870  0.00  0.00    +0.000 C 
ATOM      3  O   UNL     1       3.325   5.636  17.526  0.00  0.00    +0.000 OA
ATOM      4  H   UNL     1       4.458   2.653  17.611  0.00  0.00    +0.000 HD
ENDROOT
BRANCH   2   5
ATOM      5  C   UNL     1       2.839   3.958  19.106  0.00  0.00    +0.000 A 
ATOM      6  C   UNL     1       3.587   3.136  19.960  0.00  0.00    +0.000 A 
ATOM      7  C   UNL     1       3.010   2.629  21.125  0.00  0.00    +0.000 A 
ATOM      8  C   UNL     1       1.688   2.942  21.441  0.00  0.00    +0.000 A 
ATOM      9  C   UNL     1       0.944   3.774  20.605  0.00  0.00    +0.000 A 
ATOM     10  C   UNL     1       1.520   4.289  19.443  0.00  0.00    +0.000 A 
ENDBRANCH   2   5
BRANCH   1  13
ATOM     11  C   UNL     1       6.219   4.329  15.987  0.00  0.00    +0.000 C 
ATOM     12  C   UNL     1       7.073   4.578  17.193  0.00  0.00    +0.000 C 
ATOM     13  C   UNL     1       4.955   3.870  16.032  0.00  0.00    +0.000 C 
BRANCH  11  14
ATOM     14  C   UNL     1       6.791   4.722  14.668  0.00  0.00    +0.000 C 
ATOM     15  O   UNL     1       7.801   5.397  14.547  0.00  0.00    +0.000 OA
BRANCH  14  16
ATOM     16  O   UNL     1       5.998   4.290  13.656  0.00  0.00    +0.000 OA
BRANCH  16  18
ATOM     17  C   UNL     1       5.815   2.689  11.894  0.00  0.00    +0.000 C 
ATOM     18  C   UNL     1       6.676   3.784  12.500  0.00  0.00    +0.000 C 
ENDBRANCH  16  18
ENDBRANCH  14  16
ENDBRANCH  11  14
ENDBRANCH   1  13
TORSDOF 5
ENDMDL
MODEL 5
REMARK VINA RESULT:      -6.7      1.355      1.852
REMARK  Name = 
REMARK  7 active torsions:
REMARK  status: ('A' for Active; 'I' for Inactive)
REMARK    1  A    between atoms: C_1  and  C_2
REMARK    2  A    between atoms: C_2  and  O_3
REMARK    3  A    between atoms: O_3  and  C_4
REMARK    4  A    between atoms: C_4  and  C_6
REMARK    5  A    between atoms: C_6  and  C_7
REMARK    6  A    between atoms: C_8  and  N_9
REMARK    7  A    between atoms: C_10  and  C_12
REMARK                            x       y       z     vdW  Elec       q    Type
REMARK                         _______ _______ _______ _____ _____    ______ ____
ROOT
ATOM      1  N   UNL     1       4.361   4.063  17.401  0.00  0.00    +0.000 N 
ATOM      2  C   UNL     1       3.048   3.669  17.609  0.00  0.00    +0.000 C 
ATOM      3  O   UNL     1       2.253   3.404  16.711  0.00  0.00    +0.000 OA
ATOM      4  H   UNL     1       4.910   4.368  18.195  0.00  0.00    +0.000 HD
ENDROOT
BRANCH   2   5
ATOM      5  C   UNL     1       2.610   3.611  19.030  0.00  0.00    +0.000 A 
ATOM      6  C   UNL     1       2.150   2.387  19.533  0.00  0.00    +0.000 A 
ATOM      7  C   UNL     1       1.721   2.292  20.858  0.00  0.00    +0.000 A 
ATOM      8  C   UNL     1       1.753   3.416  21.683  0.00  0.00    +0.000 A 
ATOM      9  C   UNL     1       2.227   4.633  21.193  0.00  0.00    +0.000 A 
ATOM     10  C   UNL     1       2.664   4.730  19.872  0.00  0.00    +0.000 A 
ENDBRANCH   2   5
BRANCH   1  13
ATOM     11  C   UNL     1       6.215   4.456  15.928  0.00  0.00    +0.000 C 
ATOM     12  C   UNL     1       7.217   4.740  17.006  0.00  0.00    +0.000 C 
ATOM     13  C   UNL     1       4.923   4.157  16.151  0.00  0.00    +0.000 C 
BRANCH  11  14
ATOM     14  C   UNL     1       6.679   4.623  14.522  0.00  0.00    +0.000 C 
ATOM     15  O   UNL     1       7.684   5.244  14.214  0.00  0.00    +0.000 OA
BRANCH  14  16
ATOM     16  O   UNL     1       5.797   4.061  13.658  0.00  0.00    +0.000 OA
BRANCH  16  18
ATOM     17  C   UNL     1       5.226   2.897  11.653  0.00  0.00    +0.000 C 
ATOM     18  C   UNL     1       6.351   3.541  12.445  0.00  0.00    +0.000 C 
ENDBRANCH  16  18
ENDBRANCH  14  16
ENDBRANCH  11  14
ENDBRANCH   1  13
TORSDOF 5
ENDMDL
MODEL 6
REMARK VINA RESULT:      -6.7      1.377      1.463
REMARK  Name = 
REMARK  7 active torsions:
REMARK  status: ('A' for Active; 'I' for Inactive)
REMARK    1  A    between atoms: C_1  and  C_2
REMARK    2  A    between atoms: C_2  and  O_3
REMARK    3  A    between atoms: O_3  and  C_4
REMARK    4  A    between atoms: C_4  and  C_6
REMARK    5  A    between atoms: C_6  and  C_7
REMARK    6  A    between atoms: C_8  and  N_9
REMARK    7  A    between atoms: C_10  and  C_12
REMARK                            x       y       z     vdW  Elec       q    Type
REMARK                         _______ _______ _______ _____ _____    ______ ____
ROOT
ATOM      1  N   UNL     1       4.279   4.234  17.358  0.00  0.00    +0.000 N 
ATOM      2  C   UNL     1       3.038   3.640  17.538  0.00  0.00    +0.000 C 
ATOM      3  O   UNL     1       2.338   3.207  16.626  0.00  0.00    +0.000 OA
ATOM      4  H   UNL     1       4.734   4.661  18.155  0.00  0.00    +0.000 HD
ENDROOT
BRANCH   2   5
ATOM      5  C   UNL     1       2.552   3.576  18.942  0.00  0.00    +0.000 A 
ATOM      6  C   UNL     1       2.836   4.652  19.793  0.00  0.00    +0.000 A 
ATOM      7  C   UNL     1       2.406   4.628  21.120  0.00  0.00    +0.000 A 
ATOM      8  C   UNL     1       1.689   3.533  21.600  0.00  0.00    +0.000 A 
ATOM      9  C   UNL     1       1.387   2.466  20.754  0.00  0.00    +0.000 A 
ATOM     10  C   UNL     1       1.809   2.490  19.424  0.00  0.00    +0.000 A 
ENDBRANCH   2   5
BRANCH   1  13
ATOM     11  C   UNL     1       6.196   4.531  15.945  0.00  0.00    +0.000 C 
ATOM     12  C   UNL     1       7.199   4.618  17.055  0.00  0.00    +0.000 C 
ATOM     13  C   UNL     1       4.874   4.362  16.127  0.00  0.00    +0.000 C 
BRANCH  11  14
ATOM     14  C   UNL     1       6.705   4.755  14.563  0.00  0.00    +0.000 C 
ATOM     15  O   UNL     1       7.754   5.330  14.317  0.00  0.00    +0.000 OA
BRANCH  14  16
ATOM     16  O   UNL     1       5.814   4.302  13.647  0.00  0.00    +0.000 OA
BRANCH  16  18
ATOM     17  C   UNL     1       5.203   3.012  11.732  0.00  0.00    +0.000 C 
ATOM     18  C   UNL     1       6.359   3.535  12.567  0.00  0.00    +0.000 C 
ENDBRANCH  16  18
ENDBRANCH  14  16
ENDBRANCH  11  14
ENDBRANCH   1  13
TORSDOF 5
ENDMDL
MODEL 7
REMARK VINA RESULT:      -6.7      1.365      1.491
REMARK  Name = 
REMARK  7 active torsions:
REMARK  status: ('A' for Active; 'I' for Inactive)
REMARK    1  A    between atoms: C_1  and  C_2
REMARK    2  A    between atoms: C_2  and  O_3
REMARK    3  A    between atoms: O_3  and  C_4
REMARK    4  A    between atoms: C_4  and  C_6
REMARK    5  A    between atoms: C_6  and  C_7
REMARK    6  A    between atoms: C_8  and  N_9
REMARK    7  A    between atoms: C_10  and  C_12
REMARK                            x       y       z     vdW  Elec       q    Type
REMARK                         _______ _______ _______ _____ _____    ______ ____
ROOT
ATOM      1  N   UNL     1       4.018   4.151  17.325  0.00  0.00    +0.000 N 
ATOM      2  C   UNL     1       3.647   2.932  17.873  0.00  0.00    +0.000 C 
ATOM      3  O   UNL     1       3.886   1.841  17.361  0.00  0.00    +0.000 OA
ATOM      4  H   UNL     1       3.683   5.002  17.759  0.00  0.00    +0.000 HD
ENDROOT
BRANCH   2   5
ATOM      5  C   UNL     1       2.882   3.004  19.147  0.00  0.00    +0.000 A 
ATOM      6  C   UNL     1       1.569   3.491  19.106  0.00  0.00    +0.000 A 
ATOM      7  C   UNL     1       0.820   3.583  20.279  0.00  0.00    +0.000 A 
ATOM      8  C   UNL     1       1.378   3.187  21.495  0.00  0.00    +0.000 A 
ATOM      9  C   UNL     1       2.678   2.685  21.540  0.00  0.00    +0.000 A 
ATOM     10  C   UNL     1       3.427   2.584  20.367  0.00  0.00    +0.000 A 
ENDBRANCH   2   5
BRANCH   1  13
ATOM     11  C   UNL     1       6.060   4.496  16.113  0.00  0.00    +0.000 C 
ATOM     12  C   UNL     1       6.930   4.689  17.317  0.00  0.00    +0.000 C 
ATOM     13  C   UNL     1       4.737   4.258  16.160  0.00  0.00    +0.000 C 
BRANCH  11  14
ATOM     14  C   UNL     1       6.706   4.688  14.783  0.00  0.00    +0.000 C 
ATOM     15  O   UNL     1       7.767   5.270  14.628  0.00  0.00    +0.000 OA
BRANCH  14  16
ATOM     16  O   UNL     1       5.918   4.196  13.795  0.00  0.00    +0.000 OA
BRANCH  16  18
ATOM     17  C   UNL     1       5.655   2.805  11.871  0.00  0.00    +0.000 C 
ATOM     18  C   UNL     1       6.598   3.729  12.624  0.00  0.00    +0.000 C 
ENDBRANCH  16  18
ENDBRANCH  14  16
ENDBRANCH  11  14
ENDBRANCH   1  13
TORSDOF 5
ENDMDL
MODEL 8
REMARK VINA RESULT:      -6.4      1.755      2.256
REMARK  Name = 
REMARK  7 active torsions:
REMARK  status: ('A' for Active; 'I' for Inactive)
REMARK    1  A    between atoms: C_1  and  C_2
REMARK    2  A    between atoms: C_2  and  O_3
REMARK    3  A    between atoms: O_3  and  C_4
REMARK    4  A    between atoms: C_4  and  C_6
REMARK    5  A    between atoms: C_6  and  C_7
REMARK    6  A    between atoms: C_8  and  N_9
REMARK    7  A    between atoms: C_10  and  C_12
REMARK                            x       y       z     vdW  Elec       q    Type
REMARK                         _______ _______ _______ _____ _____    ______ ____
ROOT
ATOM      1  N   UNL     1       5.028   4.631  19.146  0.00  0.00    +0.000 N 
ATOM      2  C   UNL     1       4.138   3.646  18.744  0.00  0.00    +0.000 C 
ATOM      3  O   UNL     1       4.208   3.043  17.676  0.00  0.00    +0.000 OA
ATOM      4  H   UNL     1       4.829   5.151  19.991  0.00  0.00    +0.000 HD
ENDROOT
BRANCH   2   5
ATOM      5  C   UNL     1       3.023   3.360  19.686  0.00  0.00    +0.000 A 
ATOM      6  C   UNL     1       3.313   2.660  20.864  0.00  0.00    +0.000 A 
ATOM      7  C   UNL     1       2.295   2.363  21.771  0.00  0.00    +0.000 A 
ATOM      8  C   UNL     1       0.987   2.767  21.506  0.00  0.00    +0.000 A 
ATOM      9  C   UNL     1       0.694   3.481  20.344  0.00  0.00    +0.000 A 
ATOM     10  C   UNL     1       1.711   3.786  19.439  0.00  0.00    +0.000 A 
ENDBRANCH   2   5
BRANCH   1  13
ATOM     11  C   UNL     1       6.088   5.971  17.460  0.00  0.00    +0.000 C 
ATOM     12  C   UNL     1       4.868   6.761  17.095  0.00  0.00    +0.000 C 
ATOM     13  C   UNL     1       6.116   5.005  18.396  0.00  0.00    +0.000 C 
BRANCH  11  14
ATOM     14  C   UNL     1       7.312   6.214  16.646  0.00  0.00    +0.000 C 
ATOM     15  O   UNL     1       7.894   7.287  16.612  0.00  0.00    +0.000 OA
BRANCH  14  16
ATOM     16  O   UNL     1       7.625   5.117  15.914  0.00  0.00    +0.000 OA
BRANCH  16  18
ATOM     17  C   UNL     1       6.154   3.856  14.518  0.00  0.00    +0.000 C 
ATOM     18  C   UNL     1       7.073   5.064  14.594  0.00  0.00    +0.000 C 
ENDBRANCH  16  18
ENDBRANCH  14  16
ENDBRANCH  11  14
ENDBRANCH   1  13
TORSDOF 5
ENDMDL
MODEL 9
REMARK VINA RESULT:      -6.4      3.911      4.823
REMARK  Name = 
REMARK  7 active torsions:
REMARK  status: ('A' for Active; 'I' for Inactive)
REMARK    1  A    between atoms: C_1  and  C_2
REMARK    2  A    between atoms: C_2  and  O_3
REMARK    3  A    between atoms: O_3  and  C_4
REMARK    4  A    between atoms: C_4  and  C_6
REMARK    5  A    between atoms: C_6  and  C_7
REMARK    6  A    between atoms: C_8  and  N_9
REMARK    7  A    between atoms: C_10  and  C_12
REMARK                            x       y       z     vdW  Elec       q    Type
REMARK                         _______ _______ _______ _____ _____    ______ ____
ROOT
ATOM      1  N   UNL     1       6.481   4.236  15.244  0.00  0.00    +0.000 N 
ATOM      2  C   UNL     1       6.103   5.499  15.673  0.00  0.00    +0.000 C 
ATOM      3  O   UNL     1       5.221   6.174  15.147  0.00  0.00    +0.000 OA
ATOM      4  H   UNL     1       7.291   3.801  15.667  0.00  0.00    +0.000 HD
ENDROOT
BRANCH   2   5
ATOM      5  C   UNL     1       6.866   6.044  16.828  0.00  0.00    +0.000 A 
ATOM      6  C   UNL     1       7.194   7.406  16.823  0.00  0.00    +0.000 A 
ATOM      7  C   UNL     1       7.918   7.955  17.883  0.00  0.00    +0.000 A 
ATOM      8  C   UNL     1       8.313   7.148  18.949  0.00  0.00    +0.000 A 
ATOM      9  C   UNL     1       7.974   5.795  18.968  0.00  0.00    +0.000 A 
ATOM     10  C   UNL     1       7.244   5.244  17.914  0.00  0.00    +0.000 A 
ENDBRANCH   2   5
BRANCH   1  13
ATOM     11  C   UNL     1       6.256   3.701  12.915  0.00  0.00    +0.000 C 
ATOM     12  C   UNL     1       7.395   4.554  12.445  0.00  0.00    +0.000 C 
ATOM     13  C   UNL     1       5.870   3.588  14.199  0.00  0.00    +0.000 C 
BRANCH  11  14
ATOM     14  C   UNL     1       5.448   3.023  11.862  0.00  0.00    +0.000 C 
ATOM     15  O   UNL     1       5.674   1.891  11.465  0.00  0.00    +0.000 OA
BRANCH  14  16
ATOM     16  O   UNL     1       4.498   3.861  11.377  0.00  0.00    +0.000 OA
BRANCH  16  18
ATOM     17  C   UNL     1       2.915   4.200   9.621  0.00  0.00    +0.000 C 
ATOM     18  C   UNL     1       3.404   3.241  10.694  0.00  0.00    +0.000 C 
ENDBRANCH  16  18
ENDBRANCH  14  16
ENDBRANCH  11  14
ENDBRANCH   1  13
TORSDOF 5
ENDMDL
