MODEL 1
REMARK VINA RESULT:      -8.8      0.000      0.000
REMARK  Name = 
REMARK  6 active torsions:
REMARK  status: ('A' for Active; 'I' for Inactive)
REMARK    1  A    between atoms: C_1  and  O_2
REMARK    2  A    between atoms: O_2  and  C_3
REMARK    3  A    between atoms: C_6  and  C_7
REMARK    4  A    between atoms: C_11  and  C_12
REMARK    5  A    between atoms: C_12  and  C_13
REMARK    6  A    between atoms: C_13  and  C_14
REMARK                            x       y       z     vdW  Elec       q    Type
REMARK                         _______ _______ _______ _____ _____    ______ ____
ROOT
ATOM      1  C   UNL     1       8.435   8.525  18.309  0.00  0.00    +0.000 A 
ATOM      2  N   UNL     1       8.573   7.639  19.249  0.00  0.00    +0.000 NA
ATOM      3  C   UNL     1       8.214   6.353  18.894  0.00  0.00    +0.000 A 
ATOM      4  O   UNL     1       8.200   5.434  19.703  0.00  0.00    +0.000 OA
ATOM      5  C   UNL     1       7.741   6.019  17.473  0.00  0.00    +0.000 A 
ATOM      6  N   UNL     1       7.628   6.969  16.581  0.00  0.00    +0.000 NA
ATOM      7  N   UNL     1       7.991   8.217  17.033  0.00  0.00    +0.000 N 
ATOM      8  H   UNL     1       8.056   8.936  16.310  0.00  0.00    +0.000 HD
ENDROOT
BRANCH   1  12
ATOM      9  C   UNL     1       9.454  12.629  19.266  0.00  0.00    +0.000 A 
ATOM     10  C   UNL     1       8.927  12.297  18.016  0.00  0.00    +0.000 A 
ATOM     11  C   UNL     1       8.577  10.975  17.716  0.00  0.00    +0.000 A 
ATOM     12  C   UNL     1       8.754   9.960  18.666  0.00  0.00    +0.000 A 
ATOM     13  C   UNL     1       9.300  10.290  19.912  0.00  0.00    +0.000 A 
ATOM     14  C   UNL     1       9.648  11.619  20.211  0.00  0.00    +0.000 A 
BRANCH   9  16
ATOM     15  C   UNL     1      10.404  14.589  18.319  0.00  0.00    +0.000 C 
ATOM     16  O   UNL     1       9.784  13.946  19.428  0.00  0.00    +0.000 OA
ENDBRANCH   9  16
ENDBRANCH   1  12
BRANCH   5  17
ATOM     17  C   UNL     1       7.301   4.586  17.212  0.00  0.00    +0.000 C 
BRANCH  17  18
ATOM     18  C   UNL     1       6.299   4.352  16.075  0.00  0.00    +0.000 C 
BRANCH  18  19
ATOM     19  C   UNL     1       5.011   5.136  16.272  0.00  0.00    +0.000 C 
ATOM     20  O   UNL     1       4.728   6.077  15.532  0.00  0.00    +0.000 OA
ATOM     21  N   UNL     1       4.236   4.825  17.377  0.00  0.00    +0.000 N 
ATOM     22  C   UNL     1       3.306   5.851  17.868  0.00  0.00    +0.000 C 
ATOM     23  C   UNL     1       3.069   5.695  19.382  0.00  0.00    +0.000 C 
ATOM     24  C   UNL     1       2.382   4.362  19.572  0.00  0.00    +0.000 A 
ATOM     25  C   UNL     1       1.266   4.237  20.399  0.00  0.00    +0.000 A 
ATOM     26  C   UNL     1       0.365   3.207  20.152  0.00  0.00    +0.000 A 
ATOM     27  C   UNL     1       0.595   2.320  19.096  0.00  0.00    +0.000 A 
ATOM     28  C   UNL     1       1.801   2.357  18.383  0.00  0.00    +0.000 A 
ATOM     29  C   UNL     1       2.743   3.343  18.667  0.00  0.00    +0.000 A 
ATOM     30  C   UNL     1       4.079   3.485  17.952  0.00  0.00    +0.000 C 
ENDBRANCH  18  19
ENDBRANCH  17  18
ENDBRANCH   5  17
TORSDOF 5
ENDMDL
MODEL 2
REMARK VINA RESULT:      -8.5      0.515      1.099
REMARK  Name = 
REMARK  6 active torsions:
REMARK  status: ('A' for Active; 'I' for Inactive)
REMARK    1  A    between atoms: C_1  and  O_2
REMARK    2  A    between atoms: O_2  and  C_3
REMARK    3  A    between atoms: C_6  and  C_7
REMARK    4  A    between atoms: C_11  and  C_12
REMARK    5  A    between atoms: C_12  and  C_13
REMARK    6  A    between atoms: C_13  and  C_14
REMARK                            x       y       z     vdW  Elec       q    Type
REMARK                         _______ _______ _______ _____ _____    ______ ____
ROOT
ATOM      1  C   UNL     1       8.500   8.568  18.356  0.00  0.00    +0.000 A 
ATOM      2  N   UNL     1       8.606   7.657  19.276  0.00  0.00    +0.000 NA
ATOM      3  C   UNL     1       8.211   6.391  18.891  0.00  0.00    +0.000 A 
ATOM      4  O   UNL     1       8.164   5.455  19.680  0.00  0.00    +0.000 OA
ATOM      5  C   UNL     1       7.737   6.103  17.461  0.00  0.00    +0.000 A 
ATOM      6  N   UNL     1       7.657   7.075  16.589  0.00  0.00    +0.000 NA
ATOM      7  N   UNL     1       8.054   8.302  17.071  0.00  0.00    +0.000 N 
ATOM      8  H   UNL     1       8.146   9.034  16.365  0.00  0.00    +0.000 HD
ENDROOT
BRANCH   1  12
ATOM      9  C   UNL     1       9.426  12.635  19.538  0.00  0.00    +0.000 A 
ATOM     10  C   UNL     1       9.594  11.576  20.433  0.00  0.00    +0.000 A 
ATOM     11  C   UNL     1       9.316  10.260  20.043  0.00  0.00    +0.000 A 
ATOM     12  C   UNL     1       8.860   9.984  18.747  0.00  0.00    +0.000 A 
ATOM     13  C   UNL     1       8.674  11.048  17.857  0.00  0.00    +0.000 A 
ATOM     14  C   UNL     1       8.956  12.368  18.250  0.00  0.00    +0.000 A 
BRANCH   9  16
ATOM     15  C   UNL     1       9.424  14.074  21.427  0.00  0.00    +0.000 C 
ATOM     16  O   UNL     1       9.702  13.875  20.045  0.00  0.00    +0.000 OA
ENDBRANCH   9  16
ENDBRANCH   1  12
BRANCH   5  17
ATOM     17  C   UNL     1       7.256   4.690  17.166  0.00  0.00    +0.000 C 
BRANCH  17  18
ATOM     18  C   UNL     1       6.218   4.517  16.050  0.00  0.00    +0.000 C 
BRANCH  18  19
ATOM     19  C   UNL     1       4.943   5.299  16.323  0.00  0.00    +0.000 C 
ATOM     20  O   UNL     1       4.650   6.281  15.643  0.00  0.00    +0.000 OA
ATOM     21  N   UNL     1       4.194   4.933  17.429  0.00  0.00    +0.000 N 
ATOM     22  C   UNL     1       3.285   5.937  17.999  0.00  0.00    +0.000 C 
ATOM     23  C   UNL     1       3.086   5.699  19.507  0.00  0.00    +0.000 C 
ATOM     24  C   UNL     1       2.391   4.364  19.641  0.00  0.00    +0.000 A 
ATOM     25  C   UNL     1       1.295   4.201  20.488  0.00  0.00    +0.000 A 
ATOM     26  C   UNL     1       0.379   3.194  20.208  0.00  0.00    +0.000 A 
ATOM     27  C   UNL     1       0.574   2.365  19.100  0.00  0.00    +0.000 A 
ATOM     28  C   UNL     1       1.762   2.431  18.360  0.00  0.00    +0.000 A 
ATOM     29  C   UNL     1       2.720   3.393  18.672  0.00  0.00    +0.000 A 
ATOM     30  C   UNL     1       4.039   3.564  17.933  0.00  0.00    +0.000 C 
ENDBRANCH  18  19
ENDBRANCH  17  18
ENDBRANCH   5  17
TORSDOF 5
ENDMDL
MODEL 3
REMARK VINA RESULT:      -8.2      7.639     10.322
REMARK  Name = 
REMARK  6 active torsions:
REMARK  status: ('A' for Active; 'I' for Inactive)
REMARK    1  A    between atoms: C_1  and  O_2
REMARK    2  A    between atoms: O_2  and  C_3
REMARK    3  A    between atoms: C_6  and  C_7
REMARK    4  A    between atoms: C_11  and  C_12
REMARK    5  A    between atoms: C_12  and  C_13
REMARK    6  A    between atoms: C_13  and  C_14
REMARK                            x       y       z     vdW  Elec       q    Type
REMARK                         _______ _______ _______ _____ _____    ______ ____
ROOT
ATOM      1  C   UNL     1       2.563   7.471  18.521  0.00  0.00    +0.000 A 
ATOM      2  N   UNL     1       2.116   8.418  17.754  0.00  0.00    +0.000 NA
ATOM      3  C   UNL     1       1.289   9.332  18.378  0.00  0.00    +0.000 A 
ATOM      4  O   UNL     1       0.717  10.222  17.759  0.00  0.00    +0.000 OA
ATOM      5  C   UNL     1       0.983   9.238  19.878  0.00  0.00    +0.000 A 
ATOM      6  N   UNL     1       1.472   8.252  20.585  0.00  0.00    +0.000 NA
ATOM      7  N   UNL     1       2.268   7.384  19.873  0.00  0.00    +0.000 N 
ATOM      8  H   UNL     1       2.779   6.704  20.438  0.00  0.00    +0.000 HD
ENDROOT
BRANCH   1  12
ATOM      9  C   UNL     1       4.971   4.450  16.552  0.00  0.00    +0.000 A 
ATOM     10  C   UNL     1       5.279   5.806  16.420  0.00  0.00    +0.000 A 
ATOM     11  C   UNL     1       4.514   6.780  17.076  0.00  0.00    +0.000 A 
ATOM     12  C   UNL     1       3.422   6.409  17.872  0.00  0.00    +0.000 A 
ATOM     13  C   UNL     1       3.103   5.051  17.988  0.00  0.00    +0.000 A 
ATOM     14  C   UNL     1       3.873   4.076  17.331  0.00  0.00    +0.000 A 
BRANCH   9  16
ATOM     15  C   UNL     1       6.534   4.175  14.786  0.00  0.00    +0.000 C 
ATOM     16  O   UNL     1       5.772   3.600  15.842  0.00  0.00    +0.000 OA
ENDBRANCH   9  16
ENDBRANCH   1  12
BRANCH   5  17
ATOM     17  C   UNL     1       0.002  10.253  20.446  0.00  0.00    +0.000 C 
BRANCH  17  18
ATOM     18  C   UNL     1       0.388  10.950  21.756  0.00  0.00    +0.000 C 
BRANCH  18  19
ATOM     19  C   UNL     1      -0.727  10.897  22.788  0.00  0.00    +0.000 C 
ATOM     20  O   UNL     1      -1.005   9.845  23.361  0.00  0.00    +0.000 OA
ATOM     21  N   UNL     1      -1.485  12.043  22.969  0.00  0.00    +0.000 N 
ATOM     22  C   UNL     1      -2.829  11.888  23.542  0.00  0.00    +0.000 C 
ATOM     23  C   UNL     1      -3.764  13.009  23.053  0.00  0.00    +0.000 C 
ATOM     24  C   UNL     1      -3.207  14.301  23.604  0.00  0.00    +0.000 A 
ATOM     25  C   UNL     1      -4.035  15.244  24.212  0.00  0.00    +0.000 A 
ATOM     26  C   UNL     1      -3.484  16.112  25.148  0.00  0.00    +0.000 A 
ATOM     27  C   UNL     1      -2.123  16.031  25.453  0.00  0.00    +0.000 A 
ATOM     28  C   UNL     1      -1.274  15.196  24.715  0.00  0.00    +0.000 A 
ATOM     29  C   UNL     1      -1.804  14.369  23.727  0.00  0.00    +0.000 A 
ATOM     30  C   UNL     1      -0.981  13.417  22.872  0.00  0.00    +0.000 C 
ENDBRANCH  18  19
ENDBRANCH  17  18
ENDBRANCH   5  17
TORSDOF 5
ENDMDL
MODEL 4
REMARK VINA RESULT:      -8.2      2.055      3.028
REMARK  Name = 
REMARK  6 active torsions:
REMARK  status: ('A' for Active; 'I' for Inactive)
REMARK    1  A    between atoms: C_1  and  O_2
REMARK    2  A    between atoms: O_2  and  C_3
REMARK    3  A    between atoms: C_6  and  C_7
REMARK    4  A    between atoms: C_11  and  C_12
REMARK    5  A    between atoms: C_12  and  C_13
REMARK    6  A    between atoms: C_13  and  C_14
REMARK                            x       y       z     vdW  Elec       q    Type
REMARK                         _______ _______ _______ _____ _____    ______ ____
ROOT
ATOM      1  C   UNL     1       7.949   8.295  18.069  0.00  0.00    +0.000 A 
ATOM      2  N   UNL     1       8.392   7.352  18.844  0.00  0.00    +0.000 NA
ATOM      3  C   UNL     1       7.787   6.122  18.670  0.00  0.00    +0.000 A 
ATOM      4  O   UNL     1       8.034   5.166  19.395  0.00  0.00    +0.000 OA
ATOM      5  C   UNL     1       6.713   5.906  17.597  0.00  0.00    +0.000 A 
ATOM      6  N   UNL     1       6.318   6.907  16.854  0.00  0.00    +0.000 NA
ATOM      7  N   UNL     1       6.965   8.095  17.113  0.00  0.00    +0.000 N 
ATOM      8  H   UNL     1       6.782   8.842  16.442  0.00  0.00    +0.000 HD
ENDROOT
BRANCH   1  12
ATOM      9  C   UNL     1       9.553  12.270  18.724  0.00  0.00    +0.000 A 
ATOM     10  C   UNL     1       9.953  11.197  19.525  0.00  0.00    +0.000 A 
ATOM     11  C   UNL     1       9.452   9.909  19.297  0.00  0.00    +0.000 A 
ATOM     12  C   UNL     1       8.534   9.676  18.264  0.00  0.00    +0.000 A 
ATOM     13  C   UNL     1       8.119  10.754  17.474  0.00  0.00    +0.000 A 
ATOM     14  C   UNL     1       8.626  12.046  17.703  0.00  0.00    +0.000 A 
BRANCH   9  16
ATOM     15  C   UNL     1       9.169  14.545  19.284  0.00  0.00    +0.000 C 
ATOM     16  O   UNL     1      10.089  13.481  19.063  0.00  0.00    +0.000 OA
ENDBRANCH   9  16
ENDBRANCH   1  12
BRANCH   5  17
ATOM     17  C   UNL     1       6.061   4.531  17.541  0.00  0.00    +0.000 C 
BRANCH  17  18
ATOM     18  C   UNL     1       4.874   4.276  18.478  0.00  0.00    +0.000 C 
BRANCH  18  19
ATOM     19  C   UNL     1       3.562   4.774  17.892  0.00  0.00    +0.000 C 
ATOM     20  O   UNL     1       2.996   4.151  16.995  0.00  0.00    +0.000 OA
ATOM     21  N   UNL     1       3.095   6.005  18.326  0.00  0.00    +0.000 N 
ATOM     22  C   UNL     1       2.158   6.724  17.453  0.00  0.00    +0.000 C 
ATOM     23  C   UNL     1       2.277   8.245  17.658  0.00  0.00    +0.000 C 
ATOM     24  C   UNL     1       1.842   8.521  19.079  0.00  0.00    +0.000 A 
ATOM     25  C   UNL     1       0.959   9.559  19.375  0.00  0.00    +0.000 A 
ATOM     26  C   UNL     1       0.180   9.465  20.523  0.00  0.00    +0.000 A 
ATOM     27  C   UNL     1       0.299   8.349  21.355  0.00  0.00    +0.000 A 
ATOM     28  C   UNL     1       1.306   7.399  21.135  0.00  0.00    +0.000 A 
ATOM     29  C   UNL     1       2.139   7.517  20.025  0.00  0.00    +0.000 A 
ATOM     30  C   UNL     1       3.255   6.543  19.681  0.00  0.00    +0.000 C 
ENDBRANCH  18  19
ENDBRANCH  17  18
ENDBRANCH   5  17
TORSDOF 5
ENDMDL
MODEL 5
REMARK VINA RESULT:      -8.1      7.020      9.604
REMARK  Name = 
REMARK  6 active torsions:
REMARK  status: ('A' for Active; 'I' for Inactive)
REMARK    1  A    between atoms: C_1  and  O_2
REMARK    2  A    between atoms: O_2  and  C_3
REMARK    3  A    between atoms: C_6  and  C_7
REMARK    4  A    between atoms: C_11  and  C_12
REMARK    5  A    between atoms: C_12  and  C_13
REMARK    6  A    between atoms: C_13  and  C_14
REMARK                            x       y       z     vdW  Elec       q    Type
REMARK                         _______ _______ _______ _____ _____    ______ ____
ROOT
ATOM      1  C   UNL     1       2.939   7.143  18.159  0.00  0.00    +0.000 A 
ATOM      2  N   UNL     1       2.563   6.824  19.361  0.00  0.00    +0.000 NA
ATOM      3  C   UNL     1       1.804   7.780  20.007  0.00  0.00    +0.000 A 
ATOM      4  O   UNL     1       1.462   7.658  21.177  0.00  0.00    +0.000 OA
ATOM      5  C   UNL     1       1.406   9.088  19.312  0.00  0.00    +0.000 A 
ATOM      6  N   UNL     1       1.825   9.338  18.098  0.00  0.00    +0.000 NA
ATOM      7  N   UNL     1       2.589   8.336  17.545  0.00  0.00    +0.000 N 
ATOM      8  H   UNL     1       2.791   8.446  16.550  0.00  0.00    +0.000 HD
ENDROOT
BRANCH   1  12
ATOM      9  C   UNL     1       5.416   4.337  15.971  0.00  0.00    +0.000 A 
ATOM     10  C   UNL     1       5.598   5.714  15.826  0.00  0.00    +0.000 A 
ATOM     11  C   UNL     1       4.813   6.620  16.551  0.00  0.00    +0.000 A 
ATOM     12  C   UNL     1       3.825   6.157  17.432  0.00  0.00    +0.000 A 
ATOM     13  C   UNL     1       3.631   4.778  17.562  0.00  0.00    +0.000 A 
ATOM     14  C   UNL     1       4.422   3.871  16.836  0.00  0.00    +0.000 A 
BRANCH   9  16
ATOM     15  C   UNL     1       6.262   3.872  13.802  0.00  0.00    +0.000 C 
ATOM     16  O   UNL     1       6.222   3.557  15.190  0.00  0.00    +0.000 OA
ENDBRANCH   9  16
ENDBRANCH   1  12
BRANCH   5  17
ATOM     17  C   UNL     1       0.632  10.102  20.142  0.00  0.00    +0.000 C 
BRANCH  17  18
ATOM     18  C   UNL     1      -0.783  10.463  19.673  0.00  0.00    +0.000 C 
BRANCH  18  19
ATOM     19  C   UNL     1      -1.051  11.957  19.749  0.00  0.00    +0.000 C 
ATOM     20  O   UNL     1      -1.135  12.634  18.725  0.00  0.00    +0.000 OA
ATOM     21  N   UNL     1      -1.081  12.539  21.006  0.00  0.00    +0.000 N 
ATOM     22  C   UNL     1      -0.829  13.983  21.095  0.00  0.00    +0.000 C 
ATOM     23  C   UNL     1      -0.209  14.347  22.457  0.00  0.00    +0.000 C 
ATOM     24  C   UNL     1      -1.253  14.025  23.502  0.00  0.00    +0.000 A 
ATOM     25  C   UNL     1      -1.552  14.925  24.525  0.00  0.00    +0.000 A 
ATOM     26  C   UNL     1      -2.811  14.873  25.112  0.00  0.00    +0.000 A 
ATOM     27  C   UNL     1      -3.742  13.926  24.677  0.00  0.00    +0.000 A 
ATOM     28  C   UNL     1      -3.371  12.924  23.770  0.00  0.00    +0.000 A 
ATOM     29  C   UNL     1      -2.089  12.924  23.225  0.00  0.00    +0.000 A 
ATOM     30  C   UNL     1      -1.581  11.895  22.225  0.00  0.00    +0.000 C 
ENDBRANCH  18  19
ENDBRANCH  17  18
ENDBRANCH   5  17
TORSDOF 5
ENDMDL
MODEL 6
REMARK VINA RESULT:      -8.1      1.261      1.833
REMARK  Name = 
REMARK  6 active torsions:
REMARK  status: ('A' for Active; 'I' for Inactive)
REMARK    1  A    between atoms: C_1  and  O_2
REMARK    2  A    between atoms: O_2  and  C_3
REMARK    3  A    between atoms: C_6  and  C_7
REMARK    4  A    between atoms: C_11  and  C_12
REMARK    5  A    between atoms: C_12  and  C_13
REMARK    6  A    between atoms: C_13  and  C_14
REMARK                            x       y       z     vdW  Elec       q    Type
REMARK                         _______ _______ _______ _____ _____    ______ ____
ROOT
ATOM      1  C   UNL     1       8.700   9.173  18.588  0.00  0.00    +0.000 A 
ATOM      2  N   UNL     1       8.902   8.104  19.298  0.00  0.00    +0.000 NA
ATOM      3  C   UNL     1       8.260   6.970  18.840  0.00  0.00    +0.000 A 
ATOM      4  O   UNL     1       8.281   5.914  19.460  0.00  0.00    +0.000 OA
ATOM      5  C   UNL     1       7.422   6.991  17.556  0.00  0.00    +0.000 A 
ATOM      6  N   UNL     1       7.264   8.109  16.895  0.00  0.00    +0.000 NA
ATOM      7  N   UNL     1       7.926   9.187  17.438  0.00  0.00    +0.000 N 
ATOM      8  H   UNL     1       7.942  10.024  16.854  0.00  0.00    +0.000 HD
ENDROOT
BRANCH   1  12
ATOM      9  C   UNL     1      10.391  12.897  20.027  0.00  0.00    +0.000 A 
ATOM     10  C   UNL     1       9.879  11.953  20.920  0.00  0.00    +0.000 A 
ATOM     11  C   UNL     1       9.354  10.740  20.456  0.00  0.00    +0.000 A 
ATOM     12  C   UNL     1       9.329  10.456  19.084  0.00  0.00    +0.000 A 
ATOM     13  C   UNL     1       9.826  11.410  18.188  0.00  0.00    +0.000 A 
ATOM     14  C   UNL     1      10.354  12.625  18.657  0.00  0.00    +0.000 A 
BRANCH   9  16
ATOM     15  C   UNL     1      10.080  15.227  20.363  0.00  0.00    +0.000 C 
ATOM     16  O   UNL     1      10.848  14.051  20.599  0.00  0.00    +0.000 OA
ENDBRANCH   9  16
ENDBRANCH   1  12
BRANCH   5  17
ATOM     17  C   UNL     1       6.699   5.704  17.183  0.00  0.00    +0.000 C 
BRANCH  17  18
ATOM     18  C   UNL     1       5.416   5.832  16.353  0.00  0.00    +0.000 C 
BRANCH  18  19
ATOM     19  C   UNL     1       4.594   4.553  16.364  0.00  0.00    +0.000 C 
ATOM     20  O   UNL     1       4.716   3.718  15.469  0.00  0.00    +0.000 OA
ATOM     21  N   UNL     1       3.629   4.421  17.350  0.00  0.00    +0.000 N 
ATOM     22  C   UNL     1       2.520   3.491  17.099  0.00  0.00    +0.000 C 
ATOM     23  C   UNL     1       1.252   3.937  17.850  0.00  0.00    +0.000 C 
ATOM     24  C   UNL     1       1.572   3.840  19.324  0.00  0.00    +0.000 A 
ATOM     25  C   UNL     1       0.682   3.245  20.218  0.00  0.00    +0.000 A 
ATOM     26  C   UNL     1       1.184   2.694  21.392  0.00  0.00    +0.000 A 
ATOM     27  C   UNL     1       2.555   2.753  21.657  0.00  0.00    +0.000 A 
ATOM     28  C   UNL     1       3.409   3.498  20.834  0.00  0.00    +0.000 A 
ATOM     29  C   UNL     1       2.906   4.113  19.689  0.00  0.00    +0.000 A 
ATOM     30  C   UNL     1       3.741   4.936  18.719  0.00  0.00    +0.000 C 
ENDBRANCH  18  19
ENDBRANCH  17  18
ENDBRANCH   5  17
TORSDOF 5
ENDMDL
MODEL 7
REMARK VINA RESULT:      -8.0      5.197      8.107
REMARK  Name = 
REMARK  6 active torsions:
REMARK  status: ('A' for Active; 'I' for Inactive)
REMARK    1  A    between atoms: C_1  and  O_2
REMARK    2  A    between atoms: O_2  and  C_3
REMARK    3  A    between atoms: C_6  and  C_7
REMARK    4  A    between atoms: C_11  and  C_12
REMARK    5  A    between atoms: C_12  and  C_13
REMARK    6  A    between atoms: C_13  and  C_14
REMARK                            x       y       z     vdW  Elec       q    Type
REMARK                         _______ _______ _______ _____ _____    ______ ____
ROOT
ATOM      1  C   UNL     1       0.806   9.400  20.132  0.00  0.00    +0.000 A 
ATOM      2  N   UNL     1       1.155   9.678  18.912  0.00  0.00    +0.000 NA
ATOM      3  C   UNL     1       1.997   8.755  18.323  0.00  0.00    +0.000 A 
ATOM      4  O   UNL     1       2.485   8.934  17.213  0.00  0.00    +0.000 OA
ATOM      5  C   UNL     1       2.428   7.481  19.060  0.00  0.00    +0.000 A 
ATOM      6  N   UNL     1       2.034   7.272  20.290  0.00  0.00    +0.000 NA
ATOM      7  N   UNL     1       1.213   8.254  20.797  0.00  0.00    +0.000 N 
ATOM      8  H   UNL     1       0.775   8.031  21.692  0.00  0.00    +0.000 HD
ENDROOT
BRANCH   1  12
ATOM      9  C   UNL     1      -1.773  12.209  22.195  0.00  0.00    +0.000 A 
ATOM     10  C   UNL     1      -0.992  11.299  22.911  0.00  0.00    +0.000 A 
ATOM     11  C   UNL     1      -0.142  10.407  22.244  0.00  0.00    +0.000 A 
ATOM     12  C   UNL     1      -0.065  10.411  20.844  0.00  0.00    +0.000 A 
ATOM     13  C   UNL     1      -0.861  11.311  20.128  0.00  0.00    +0.000 A 
ATOM     14  C   UNL     1      -1.712  12.206  20.800  0.00  0.00    +0.000 A 
BRANCH   9  16
ATOM     15  C   UNL     1      -3.754  12.399  23.490  0.00  0.00    +0.000 C 
ATOM     16  O   UNL     1      -2.582  13.006  22.956  0.00  0.00    +0.000 OA
ENDBRANCH   9  16
ENDBRANCH   1  12
BRANCH   5  17
ATOM     17  C   UNL     1       3.416   6.571  18.345  0.00  0.00    +0.000 C 
BRANCH  17  18
ATOM     18  C   UNL     1       3.411   5.086  18.729  0.00  0.00    +0.000 C 
BRANCH  18  19
ATOM     19  C   UNL     1       4.738   4.408  18.422  0.00  0.00    +0.000 C 
ATOM     20  O   UNL     1       5.290   3.698  19.261  0.00  0.00    +0.000 OA
ATOM     21  N   UNL     1       5.347   4.714  17.216  0.00  0.00    +0.000 N 
ATOM     22  C   UNL     1       6.797   4.501  17.112  0.00  0.00    +0.000 C 
ATOM     23  C   UNL     1       7.420   5.473  16.094  0.00  0.00    +0.000 C 
ATOM     24  C   UNL     1       6.834   5.116  14.747  0.00  0.00    +0.000 A 
ATOM     25  C   UNL     1       7.642   4.993  13.617  0.00  0.00    +0.000 A 
ATOM     26  C   UNL     1       7.214   4.177  12.576  0.00  0.00    +0.000 A 
ATOM     27  C   UNL     1       5.991   3.508  12.675  0.00  0.00    +0.000 A 
ATOM     28  C   UNL     1       5.116   3.773  13.738  0.00  0.00    +0.000 A 
ATOM     29  C   UNL     1       5.506   4.642  14.755  0.00  0.00    +0.000 A 
ATOM     30  C   UNL     1       4.645   4.995  15.959  0.00  0.00    +0.000 C 
ENDBRANCH  18  19
ENDBRANCH  17  18
ENDBRANCH   5  17
TORSDOF 5
ENDMDL
MODEL 8
REMARK VINA RESULT:      -8.0      4.959      6.767
REMARK  Name = 
REMARK  6 active torsions:
REMARK  status: ('A' for Active; 'I' for Inactive)
REMARK    1  A    between atoms: C_1  and  O_2
REMARK    2  A    between atoms: O_2  and  C_3
REMARK    3  A    between atoms: C_6  and  C_7
REMARK    4  A    between atoms: C_11  and  C_12
REMARK    5  A    between atoms: C_12  and  C_13
REMARK    6  A    between atoms: C_13  and  C_14
REMARK                            x       y       z     vdW  Elec       q    Type
REMARK                         _______ _______ _______ _____ _____    ______ ____
ROOT
ATOM      1  C   UNL     1       5.236   3.567  17.507  0.00  0.00    +0.000 A 
ATOM      2  N   UNL     1       4.295   2.687  17.343  0.00  0.00    +0.000 NA
ATOM      3  C   UNL     1       3.688   2.258  18.508  0.00  0.00    +0.000 A 
ATOM      4  O   UNL     1       2.853   1.363  18.516  0.00  0.00    +0.000 OA
ATOM      5  C   UNL     1       4.084   2.835  19.873  0.00  0.00    +0.000 A 
ATOM      6  N   UNL     1       5.044   3.720  19.957  0.00  0.00    +0.000 NA
ATOM      7  N   UNL     1       5.599   4.070  18.746  0.00  0.00    +0.000 N 
ATOM      8  H   UNL     1       6.236   4.867  18.778  0.00  0.00    +0.000 HD
ENDROOT
BRANCH   1  12
ATOM      9  C   UNL     1       7.289   4.977  13.958  0.00  0.00    +0.000 A 
ATOM     10  C   UNL     1       7.644   5.449  15.223  0.00  0.00    +0.000 A 
ATOM     11  C   UNL     1       6.996   4.976  16.371  0.00  0.00    +0.000 A 
ATOM     12  C   UNL     1       5.974   4.022  16.268  0.00  0.00    +0.000 A 
ATOM     13  C   UNL     1       5.606   3.563  14.998  0.00  0.00    +0.000 A 
ATOM     14  C   UNL     1       6.260   4.038  13.848  0.00  0.00    +0.000 A 
BRANCH   9  16
ATOM     15  C   UNL     1       7.583   5.131  11.606  0.00  0.00    +0.000 C 
ATOM     16  O   UNL     1       7.973   5.535  12.914  0.00  0.00    +0.000 OA
ENDBRANCH   9  16
ENDBRANCH   1  12
BRANCH   5  17
ATOM     17  C   UNL     1       3.404   2.238  21.096  0.00  0.00    +0.000 C 
BRANCH  17  18
ATOM     18  C   UNL     1       2.086   2.876  21.552  0.00  0.00    +0.000 C 
BRANCH  18  19
ATOM     19  C   UNL     1       1.295   3.455  20.389  0.00  0.00    +0.000 C 
ATOM     20  O   UNL     1       0.405   2.803  19.845  0.00  0.00    +0.000 OA
ATOM     21  N   UNL     1       1.691   4.689  19.899  0.00  0.00    +0.000 N 
ATOM     22  C   UNL     1       1.311   5.029  18.521  0.00  0.00    +0.000 C 
ATOM     23  C   UNL     1       2.333   5.997  17.896  0.00  0.00    +0.000 C 
ATOM     24  C   UNL     1       2.254   7.277  18.694  0.00  0.00    +0.000 A 
ATOM     25  C   UNL     1       2.194   8.519  18.063  0.00  0.00    +0.000 A 
ATOM     26  C   UNL     1       1.600   9.581  18.735  0.00  0.00    +0.000 A 
ATOM     27  C   UNL     1       1.086   9.391  20.021  0.00  0.00    +0.000 A 
ATOM     28  C   UNL     1       1.304   8.187  20.705  0.00  0.00    +0.000 A 
ATOM     29  C   UNL     1       1.959   7.136  20.066  0.00  0.00    +0.000 A 
ATOM     30  C   UNL     1       2.240   5.785  20.706  0.00  0.00    +0.000 C 
ENDBRANCH  18  19
ENDBRANCH  17  18
ENDBRANCH   5  17
TORSDOF 5
ENDMDL
MODEL 9
REMARK VINA RESULT:      -8.0      5.523      8.954
REMARK  Name = 
REMARK  6 active torsions:
REMARK  status: ('A' for Active; 'I' for Inactive)
REMARK    1  A    between atoms: C_1  and  O_2
REMARK    2  A    between atoms: O_2  and  C_3
REMARK    3  A    between atoms: C_6  and  C_7
REMARK    4  A    between atoms: C_11  and  C_12
REMARK    5  A    between atoms: C_12  and  C_13
REMARK    6  A    between atoms: C_13  and  C_14
REMARK                            x       y       z     vdW  Elec       q    Type
REMARK                         _______ _______ _______ _____ _____    ______ ____
ROOT
ATOM      1  C   UNL     1       3.310   6.317  18.232  0.00  0.00    +0.000 A 
ATOM      2  N   UNL     1       3.025   5.499  19.200  0.00  0.00    +0.000 NA
ATOM      3  C   UNL     1       2.263   6.041  20.216  0.00  0.00    +0.000 A 
ATOM      4  O   UNL     1       1.999   5.417  21.237  0.00  0.00    +0.000 OA
ATOM      5  C   UNL     1       1.762   7.490  20.153  0.00  0.00    +0.000 A 
ATOM      6  N   UNL     1       2.093   8.254  19.144  0.00  0.00    +0.000 NA
ATOM      7  N   UNL     1       2.867   7.630  18.192  0.00  0.00    +0.000 N 
ATOM      8  H   UNL     1       3.002   8.161  17.330  0.00  0.00    +0.000 HD
ENDROOT
BRANCH   1  12
ATOM      9  C   UNL     1       5.931   4.774  15.142  0.00  0.00    +0.000 A 
ATOM     10  C   UNL     1       5.171   3.908  15.932  0.00  0.00    +0.000 A 
ATOM     11  C   UNL     1       4.307   4.409  16.914  0.00  0.00    +0.000 A 
ATOM     12  C   UNL     1       4.195   5.790  17.125  0.00  0.00    +0.000 A 
ATOM     13  C   UNL     1       4.971   6.656  16.346  0.00  0.00    +0.000 A 
ATOM     14  C   UNL     1       5.835   6.151  15.359  0.00  0.00    +0.000 A 
BRANCH   9  16
ATOM     15  C   UNL     1       6.129   3.522  13.135  0.00  0.00    +0.000 C 
ATOM     16  O   UNL     1       6.757   4.165  14.239  0.00  0.00    +0.000 OA
ENDBRANCH   9  16
ENDBRANCH   1  12
BRANCH   5  17
ATOM     17  C   UNL     1       0.994   8.007  21.361  0.00  0.00    +0.000 C 
BRANCH  17  18
ATOM     18  C   UNL     1      -0.125   9.023  21.103  0.00  0.00    +0.000 C 
BRANCH  18  19
ATOM     19  C   UNL     1       0.158  10.368  21.753  0.00  0.00    +0.000 C 
ATOM     20  O   UNL     1       0.233  10.472  22.977  0.00  0.00    +0.000 OA
ATOM     21  N   UNL     1       0.211  11.479  20.927  0.00  0.00    +0.000 N 
ATOM     22  C   UNL     1      -0.027  12.794  21.537  0.00  0.00    +0.000 C 
ATOM     23  C   UNL     1      -0.623  13.774  20.510  0.00  0.00    +0.000 C 
ATOM     24  C   UNL     1       0.433  13.975  19.448  0.00  0.00    +0.000 A 
ATOM     25  C   UNL     1       0.754  15.250  18.982  0.00  0.00    +0.000 A 
ATOM     26  C   UNL     1       2.021  15.466  18.452  0.00  0.00    +0.000 A 
ATOM     27  C   UNL     1       2.938  14.413  18.389  0.00  0.00    +0.000 A 
ATOM     28  C   UNL     1       2.545  13.105  18.704  0.00  0.00    +0.000 A 
ATOM     29  C   UNL     1       1.255  12.863  19.172  0.00  0.00    +0.000 A 
ATOM     30  C   UNL     1       0.724  11.489  19.553  0.00  0.00    +0.000 C 
ENDBRANCH  18  19
ENDBRANCH  17  18
ENDBRANCH   5  17
TORSDOF 5
ENDMDL
