MODEL 1
REMARK VINA RESULT:      -8.6      0.000      0.000
REMARK  Name = 
REMARK  7 active torsions:
REMARK  status: ('A' for Active; 'I' for Inactive)
REMARK    1  A    between atoms: C_2  and  C_5
REMARK    2  A    between atoms: N_3  and  O_4
REMARK    3  A    between atoms: C_9  and  C_10
REMARK    4  A    between atoms: C_10  and  O_11
REMARK    5  A    between atoms: O_11  and  C_12
REMARK    6  A    between atoms: C_16  and  C_17
REMARK    7  A    between atoms: N_19  and  O_20
REMARK                            x       y       z     vdW  Elec       q    Type
REMARK                         _______ _______ _______ _____ _____    ______ ____
ROOT
ATOM      1  O   UNL     1       4.278   4.632  19.531  0.00  0.00    +0.000 OA
ENDROOT
BRANCH   1   2
ATOM      2  C   UNL     1       4.781   4.592  18.248  0.00  0.00    +0.000 A 
ATOM      3  C   UNL     1       6.105   5.062  18.101  0.00  0.00    +0.000 A 
ATOM      4 CL   UNL     1       6.987   5.694  19.454  0.00  0.00    +0.000 Cl
ATOM      5  C   UNL     1       6.760   5.052  16.860  0.00  0.00    +0.000 A 
ATOM      6  C   UNL     1       6.091   4.571  15.739  0.00  0.00    +0.000 A 
ATOM      7  C   UNL     1       4.793   4.083  15.868  0.00  0.00    +0.000 A 
ATOM      8  C   UNL     1       4.141   4.076  17.106  0.00  0.00    +0.000 A 
ATOM      9 CL   UNL     1       2.585   3.324  17.058  0.00  0.00    +0.000 Cl
BRANCH   6  10
ATOM     10  C   UNL     1       6.716   4.564  14.384  0.00  0.00    +0.000 C 
ATOM     11  N   UNL     1       6.345   3.614  13.466  0.00  0.00    +0.000 N 
ATOM     12  N   UNL     1       7.592   5.492  14.121  0.00  0.00    +0.000 NA
ATOM     13  H   UNL     1       5.355   3.402  13.430  0.00  0.00    +0.000 HD
ATOM     14  H   UNL     1       6.706   3.877  12.551  0.00  0.00    +0.000 HD
BRANCH  12  15
ATOM     15  O   UNL     1       8.073   5.387  12.808  0.00  0.00    +0.000 OA
ATOM     16  H   UNL     1       8.615   6.196  12.728  0.00  0.00    +0.000 HD
ENDBRANCH  12  15
ENDBRANCH   6  10
ENDBRANCH   1   2
BRANCH   1  17
ATOM     17  C   UNL     1       2.874   4.828  19.677  0.00  0.00    +0.000 C 
BRANCH  17  22
ATOM     18  C   UNL     1       1.378   8.213  20.555  0.00  0.00    +0.000 A 
ATOM     19  C   UNL     1       1.597   8.941  19.386  0.00  0.00    +0.000 A 
ATOM     20  C   UNL     1       2.278   8.350  18.318  0.00  0.00    +0.000 A 
ATOM     21  C   UNL     1       2.725   7.028  18.409  0.00  0.00    +0.000 A 
ATOM     22  C   UNL     1       2.503   6.289  19.576  0.00  0.00    +0.000 A 
ATOM     23  C   UNL     1       1.837   6.898  20.654  0.00  0.00    +0.000 A 
BRANCH  18  25
ATOM     24  N   UNL     1      -0.719   8.417  21.851  0.00  0.00    +0.000 N 
ATOM     25  C   UNL     1       0.593   8.799  21.682  0.00  0.00    +0.000 C 
ATOM     26  N   UNL     1       1.178   9.659  22.464  0.00  0.00    +0.000 NA
ATOM     27  H   UNL     1      -1.049   8.740  22.760  0.00  0.00    +0.000 HD
ATOM     28  H   UNL     1      -0.901   7.429  21.709  0.00  0.00    +0.000 HD
BRANCH  26  29
ATOM     29  O   UNL     1       0.291  10.125  23.449  0.00  0.00    +0.000 OA
ATOM     30  H   UNL     1      -0.568   9.820  23.102  0.00  0.00    +0.000 HD
ENDBRANCH  26  29
ENDBRANCH  18  25
ENDBRANCH  17  22
ENDBRANCH   1  17
TORSDOF 7
ENDMDL
MODEL 2
REMARK VINA RESULT:      -8.3      3.719      7.950
REMARK  Name = 
REMARK  7 active torsions:
REMARK  status: ('A' for Active; 'I' for Inactive)
REMARK    1  A    between atoms: C_2  and  C_5
REMARK    2  A    between atoms: N_3  and  O_4
REMARK    3  A    between atoms: C_9  and  C_10
REMARK    4  A    between atoms: C_10  and  O_11
REMARK    5  A    between atoms: O_11  and  C_12
REMARK    6  A    between atoms: C_16  and  C_17
REMARK    7  A    between atoms: N_19  and  O_20
REMARK                            x       y       z     vdW  Elec       q    Type
REMARK                         _______ _______ _______ _____ _____    ______ ____
ROOT
ATOM      1  O   UNL     1       2.242   7.737  20.413  0.00  0.00    +0.000 OA
ENDROOT
BRANCH   1   2
ATOM      2  C   UNL     1       1.307   8.632  19.939  0.00  0.00    +0.000 A 
ATOM      3  C   UNL     1       1.409   8.943  18.564  0.00  0.00    +0.000 A 
ATOM      4 CL   UNL     1       2.672   8.270  17.584  0.00  0.00    +0.000 Cl
ATOM      5  C   UNL     1       0.508   9.815  17.934  0.00  0.00    +0.000 A 
ATOM      6  C   UNL     1      -0.514  10.395  18.679  0.00  0.00    +0.000 A 
ATOM      7  C   UNL     1      -0.644  10.084  20.030  0.00  0.00    +0.000 A 
ATOM      8  C   UNL     1       0.242   9.203  20.659  0.00  0.00    +0.000 A 
ATOM      9 CL   UNL     1      -0.172   8.873  22.305  0.00  0.00    +0.000 Cl
BRANCH   6  10
ATOM     10  C   UNL     1      -1.486  11.356  18.080  0.00  0.00    +0.000 C 
ATOM     11  N   UNL     1      -1.487  12.667  18.483  0.00  0.00    +0.000 N 
ATOM     12  N   UNL     1      -2.295  10.901  17.164  0.00  0.00    +0.000 NA
ATOM     13  H   UNL     1      -0.574  13.085  18.621  0.00  0.00    +0.000 HD
ATOM     14  H   UNL     1      -2.057  13.213  17.838  0.00  0.00    +0.000 HD
BRANCH  12  15
ATOM     15  O   UNL     1      -3.128  11.913  16.666  0.00  0.00    +0.000 OA
ATOM     16  H   UNL     1      -2.547  12.347  16.013  0.00  0.00    +0.000 HD
ENDBRANCH  12  15
ENDBRANCH   6  10
ENDBRANCH   1   2
BRANCH   1  17
ATOM     17  C   UNL     1       1.828   6.382  20.569  0.00  0.00    +0.000 C 
BRANCH  17  22
ATOM     18  C   UNL     1       4.488   4.685  18.444  0.00  0.00    +0.000 A 
ATOM     19  C   UNL     1       3.717   3.999  17.506  0.00  0.00    +0.000 A 
ATOM     20  C   UNL     1       2.323   4.043  17.588  0.00  0.00    +0.000 A 
ATOM     21  C   UNL     1       1.696   4.786  18.593  0.00  0.00    +0.000 A 
ATOM     22  C   UNL     1       2.462   5.484  19.534  0.00  0.00    +0.000 A 
ATOM     23  C   UNL     1       3.864   5.415  19.458  0.00  0.00    +0.000 A 
BRANCH  18  25
ATOM     24  N   UNL     1       6.720   5.065  19.440  0.00  0.00    +0.000 N 
ATOM     25  C   UNL     1       5.977   4.709  18.337  0.00  0.00    +0.000 C 
ATOM     26  N   UNL     1       6.521   4.398  17.196  0.00  0.00    +0.000 NA
ATOM     27  H   UNL     1       7.700   4.842  19.271  0.00  0.00    +0.000 HD
ATOM     28  H   UNL     1       6.390   4.687  20.321  0.00  0.00    +0.000 HD
BRANCH  26  29
ATOM     29  O   UNL     1       7.921   4.497  17.265  0.00  0.00    +0.000 OA
ATOM     30  H   UNL     1       8.043   5.449  17.442  0.00  0.00    +0.000 HD
ENDBRANCH  26  29
ENDBRANCH  18  25
ENDBRANCH  17  22
ENDBRANCH   1  17
TORSDOF 7
ENDMDL
MODEL 3
REMARK VINA RESULT:      -8.3      0.435      1.925
REMARK  Name = 
REMARK  7 active torsions:
REMARK  status: ('A' for Active; 'I' for Inactive)
REMARK    1  A    between atoms: C_2  and  C_5
REMARK    2  A    between atoms: N_3  and  O_4
REMARK    3  A    between atoms: C_9  and  C_10
REMARK    4  A    between atoms: C_10  and  O_11
REMARK    5  A    between atoms: O_11  and  C_12
REMARK    6  A    between atoms: C_16  and  C_17
REMARK    7  A    between atoms: N_19  and  O_20
REMARK                            x       y       z     vdW  Elec       q    Type
REMARK                         _______ _______ _______ _____ _____    ______ ____
ROOT
ATOM      1  O   UNL     1       3.960   3.992  19.508  0.00  0.00    +0.000 OA
ENDROOT
BRANCH   1   2
ATOM      2  C   UNL     1       4.721   4.163  18.372  0.00  0.00    +0.000 A 
ATOM      3  C   UNL     1       4.149   3.668  17.178  0.00  0.00    +0.000 A 
ATOM      4 CL   UNL     1       2.617   2.856  17.189  0.00  0.00    +0.000 Cl
ATOM      5  C   UNL     1       4.794   3.798  15.939  0.00  0.00    +0.000 A 
ATOM      6  C   UNL     1       6.034   4.427  15.878  0.00  0.00    +0.000 A 
ATOM      7  C   UNL     1       6.604   4.941  17.040  0.00  0.00    +0.000 A 
ATOM      8  C   UNL     1       5.958   4.828  18.275  0.00  0.00    +0.000 A 
ATOM      9 CL   UNL     1       6.789   5.633  19.560  0.00  0.00    +0.000 Cl
BRANCH   6  10
ATOM     10  C   UNL     1       6.789   4.570  14.599  0.00  0.00    +0.000 C 
ATOM     11  N   UNL     1       6.511   3.737  13.545  0.00  0.00    +0.000 N 
ATOM     12  N   UNL     1       7.686   5.513  14.532  0.00  0.00    +0.000 NA
ATOM     13  H   UNL     1       5.530   3.541  13.387  0.00  0.00    +0.000 HD
ATOM     14  H   UNL     1       6.961   4.100  12.706  0.00  0.00    +0.000 HD
BRANCH  12  15
ATOM     15  O   UNL     1       8.295   5.556  13.269  0.00  0.00    +0.000 OA
ATOM     16  H   UNL     1       8.367   4.607  13.050  0.00  0.00    +0.000 HD
ENDBRANCH  12  15
ENDBRANCH   6  10
ENDBRANCH   1   2
BRANCH   1  17
ATOM     17  C   UNL     1       2.586   4.362  19.434  0.00  0.00    +0.000 C 
BRANCH  17  22
ATOM     18  C   UNL     1       1.567   7.888  20.430  0.00  0.00    +0.000 A 
ATOM     19  C   UNL     1       1.873   8.616  19.280  0.00  0.00    +0.000 A 
ATOM     20  C   UNL     1       2.460   7.972  18.188  0.00  0.00    +0.000 A 
ATOM     21  C   UNL     1       2.726   6.600  18.234  0.00  0.00    +0.000 A 
ATOM     22  C   UNL     1       2.414   5.861  19.381  0.00  0.00    +0.000 A 
ATOM     23  C   UNL     1       1.844   6.521  20.484  0.00  0.00    +0.000 A 
BRANCH  18  25
ATOM     24  N   UNL     1      -0.490   8.412  21.701  0.00  0.00    +0.000 N 
ATOM     25  C   UNL     1       0.876   8.539  21.582  0.00  0.00    +0.000 C 
ATOM     26  N   UNL     1       1.593   9.213  22.434  0.00  0.00    +0.000 NA
ATOM     27  H   UNL     1      -0.779   8.731  22.624  0.00  0.00    +0.000 HD
ATOM     28  H   UNL     1      -0.856   7.491  21.485  0.00  0.00    +0.000 HD
BRANCH  26  29
ATOM     29  O   UNL     1       0.783   9.777  23.435  0.00  0.00    +0.000 OA
ATOM     30  H   UNL     1       0.238  10.401  22.921  0.00  0.00    +0.000 HD
ENDBRANCH  26  29
ENDBRANCH  18  25
ENDBRANCH  17  22
ENDBRANCH   1  17
TORSDOF 7
ENDMDL
MODEL 4
REMARK VINA RESULT:      -8.3      1.626      7.962
REMARK  Name = 
REMARK  7 active torsions:
REMARK  status: ('A' for Active; 'I' for Inactive)
REMARK    1  A    between atoms: C_2  and  C_5
REMARK    2  A    between atoms: N_3  and  O_4
REMARK    3  A    between atoms: C_9  and  C_10
REMARK    4  A    between atoms: C_10  and  O_11
REMARK    5  A    between atoms: O_11  and  C_12
REMARK    6  A    between atoms: C_16  and  C_17
REMARK    7  A    between atoms: N_19  and  O_20
REMARK                            x       y       z     vdW  Elec       q    Type
REMARK                         _______ _______ _______ _____ _____    ______ ____
ROOT
ATOM      1  O   UNL     1       2.877   4.242  18.663  0.00  0.00    +0.000 OA
ENDROOT
BRANCH   1   2
ATOM      2  C   UNL     1       2.452   5.445  19.185  0.00  0.00    +0.000 A 
ATOM      3  C   UNL     1       1.797   5.366  20.435  0.00  0.00    +0.000 A 
ATOM      4 CL   UNL     1       1.512   3.837  21.201  0.00  0.00    +0.000 Cl
ATOM      5  C   UNL     1       1.337   6.511  21.103  0.00  0.00    +0.000 A 
ATOM      6  C   UNL     1       1.525   7.762  20.523  0.00  0.00    +0.000 A 
ATOM      7  C   UNL     1       2.188   7.862  19.302  0.00  0.00    +0.000 A 
ATOM      8  C   UNL     1       2.663   6.725  18.640  0.00  0.00    +0.000 A 
ATOM      9 CL   UNL     1       3.552   7.090  17.202  0.00  0.00    +0.000 Cl
BRANCH   6  10
ATOM     10  C   UNL     1       1.032   9.016  21.163  0.00  0.00    +0.000 C 
ATOM     11  N   UNL     1       0.688  10.091  20.383  0.00  0.00    +0.000 N 
ATOM     12  N   UNL     1       0.928   9.028  22.462  0.00  0.00    +0.000 NA
ATOM     13  H   UNL     1       0.182   9.873  19.533  0.00  0.00    +0.000 HD
ATOM     14  H   UNL     1       0.188  10.770  20.955  0.00  0.00    +0.000 HD
BRANCH  12  15
ATOM     15  O   UNL     1       0.424  10.251  22.927  0.00  0.00    +0.000 OA
ATOM     16  H   UNL     1       1.073  10.885  22.566  0.00  0.00    +0.000 HD
ENDBRANCH  12  15
ENDBRANCH   6  10
ENDBRANCH   1   2
BRANCH   1  17
ATOM     17  C   UNL     1       4.146   3.757  19.091  0.00  0.00    +0.000 C 
BRANCH  17  22
ATOM     18  C   UNL     1       6.587   4.896  16.405  0.00  0.00    +0.000 A 
ATOM     19  C   UNL     1       7.487   5.668  17.138  0.00  0.00    +0.000 A 
ATOM     20  C   UNL     1       7.279   5.865  18.506  0.00  0.00    +0.000 A 
ATOM     21  C   UNL     1       6.183   5.277  19.147  0.00  0.00    +0.000 A 
ATOM     22  C   UNL     1       5.280   4.495  18.420  0.00  0.00    +0.000 A 
ATOM     23  C   UNL     1       5.484   4.321  17.040  0.00  0.00    +0.000 A 
BRANCH  18  25
ATOM     24  N   UNL     1       7.729   5.390  14.267  0.00  0.00    +0.000 N 
ATOM     25  C   UNL     1       6.825   4.614  14.958  0.00  0.00    +0.000 C 
ATOM     26  N   UNL     1       6.163   3.644  14.398  0.00  0.00    +0.000 NA
ATOM     27  H   UNL     1       7.927   4.955  13.367  0.00  0.00    +0.000 HD
ATOM     28  H   UNL     1       8.577   5.618  14.775  0.00  0.00    +0.000 HD
BRANCH  26  29
ATOM     29  O   UNL     1       6.490   3.535  13.036  0.00  0.00    +0.000 OA
ATOM     30  H   UNL     1       7.284   2.970  13.068  0.00  0.00    +0.000 HD
ENDBRANCH  26  29
ENDBRANCH  18  25
ENDBRANCH  17  22
ENDBRANCH   1  17
TORSDOF 7
ENDMDL
MODEL 5
REMARK VINA RESULT:      -8.2      3.677      7.985
REMARK  Name = 
REMARK  7 active torsions:
REMARK  status: ('A' for Active; 'I' for Inactive)
REMARK    1  A    between atoms: C_2  and  C_5
REMARK    2  A    between atoms: N_3  and  O_4
REMARK    3  A    between atoms: C_9  and  C_10
REMARK    4  A    between atoms: C_10  and  O_11
REMARK    5  A    between atoms: O_11  and  C_12
REMARK    6  A    between atoms: C_16  and  C_17
REMARK    7  A    between atoms: N_19  and  O_20
REMARK                            x       y       z     vdW  Elec       q    Type
REMARK                         _______ _______ _______ _____ _____    ______ ____
ROOT
ATOM      1  O   UNL     1       2.030   7.575  20.420  0.00  0.00    +0.000 OA
ENDROOT
BRANCH   1   2
ATOM      2  C   UNL     1       1.401   8.750  20.071  0.00  0.00    +0.000 A 
ATOM      3  C   UNL     1       1.557   9.144  18.722  0.00  0.00    +0.000 A 
ATOM      4 CL   UNL     1       2.530   8.217  17.626  0.00  0.00    +0.000 Cl
ATOM      5  C   UNL     1       0.949  10.303  18.215  0.00  0.00    +0.000 A 
ATOM      6  C   UNL     1       0.173  11.091  19.058  0.00  0.00    +0.000 A 
ATOM      7  C   UNL     1      -0.011  10.708  20.384  0.00  0.00    +0.000 A 
ATOM      8  C   UNL     1       0.579   9.546  20.891  0.00  0.00    +0.000 A 
ATOM      9 CL   UNL     1       0.127   9.203  22.524  0.00  0.00    +0.000 Cl
BRANCH   6  10
ATOM     10  C   UNL     1      -0.475  12.352  18.592  0.00  0.00    +0.000 C 
ATOM     11  N   UNL     1      -1.654  12.297  17.893  0.00  0.00    +0.000 N 
ATOM     12  N   UNL     1       0.113  13.477  18.893  0.00  0.00    +0.000 NA
ATOM     13  H   UNL     1      -2.332  11.623  18.229  0.00  0.00    +0.000 HD
ATOM     14  H   UNL     1      -2.051  13.234  17.838  0.00  0.00    +0.000 HD
BRANCH  12  15
ATOM     15  O   UNL     1      -0.617  14.579  18.424  0.00  0.00    +0.000 OA
ATOM     16  H   UNL     1      -1.403  14.149  18.037  0.00  0.00    +0.000 HD
ENDBRANCH  12  15
ENDBRANCH   6  10
ENDBRANCH   1   2
BRANCH   1  17
ATOM     17  C   UNL     1       1.204   6.493  20.842  0.00  0.00    +0.000 C 
BRANCH  17  22
ATOM     18  C   UNL     1       3.583   3.922  19.360  0.00  0.00    +0.000 A 
ATOM     19  C   UNL     1       2.876   2.733  19.540  0.00  0.00    +0.000 A 
ATOM     20  C   UNL     1       1.639   2.753  20.190  0.00  0.00    +0.000 A 
ATOM     21  C   UNL     1       1.099   3.960  20.646  0.00  0.00    +0.000 A 
ATOM     22  C   UNL     1       1.798   5.158  20.462  0.00  0.00    +0.000 A 
ATOM     23  C   UNL     1       3.052   5.126  19.827  0.00  0.00    +0.000 A 
BRANCH  18  25
ATOM     24  N   UNL     1       4.885   3.510  17.297  0.00  0.00    +0.000 N 
ATOM     25  C   UNL     1       4.872   3.935  18.607  0.00  0.00    +0.000 C 
ATOM     26  N   UNL     1       5.944   4.344  19.221  0.00  0.00    +0.000 NA
ATOM     27  H   UNL     1       5.774   3.765  16.869  0.00  0.00    +0.000 HD
ATOM     28  H   UNL     1       4.093   3.813  16.739  0.00  0.00    +0.000 HD
BRANCH  26  29
ATOM     29  O   UNL     1       7.065   4.268  18.376  0.00  0.00    +0.000 OA
ATOM     30  H   UNL     1       7.734   4.756  18.892  0.00  0.00    +0.000 HD
ENDBRANCH  26  29
ENDBRANCH  18  25
ENDBRANCH  17  22
ENDBRANCH   1  17
TORSDOF 7
ENDMDL
MODEL 6
REMARK VINA RESULT:      -8.1      1.506      8.076
REMARK  Name = 
REMARK  7 active torsions:
REMARK  status: ('A' for Active; 'I' for Inactive)
REMARK    1  A    between atoms: C_2  and  C_5
REMARK    2  A    between atoms: N_3  and  O_4
REMARK    3  A    between atoms: C_9  and  C_10
REMARK    4  A    between atoms: C_10  and  O_11
REMARK    5  A    between atoms: O_11  and  C_12
REMARK    6  A    between atoms: C_16  and  C_17
REMARK    7  A    between atoms: N_19  and  O_20
REMARK                            x       y       z     vdW  Elec       q    Type
REMARK                         _______ _______ _______ _____ _____    ______ ____
ROOT
ATOM      1  O   UNL     1       2.716   4.476  18.041  0.00  0.00    +0.000 OA
ENDROOT
BRANCH   1   2
ATOM      2  C   UNL     1       2.289   5.377  18.993  0.00  0.00    +0.000 A 
ATOM      3  C   UNL     1       2.563   6.734  18.710  0.00  0.00    +0.000 A 
ATOM      4 CL   UNL     1       3.433   7.192  17.281  0.00  0.00    +0.000 Cl
ATOM      5  C   UNL     1       2.161   7.765  19.572  0.00  0.00    +0.000 A 
ATOM      6  C   UNL     1       1.475   7.450  20.740  0.00  0.00    +0.000 A 
ATOM      7  C   UNL     1       1.176   6.120  21.026  0.00  0.00    +0.000 A 
ATOM      8  C   UNL     1       1.561   5.089  20.163  0.00  0.00    +0.000 A 
ATOM      9 CL   UNL     1       0.988   3.533  20.654  0.00  0.00    +0.000 Cl
BRANCH   6  10
ATOM     10  C   UNL     1       1.047   8.495  21.716  0.00  0.00    +0.000 C 
ATOM     11  N   UNL     1       1.974   9.078  22.543  0.00  0.00    +0.000 N 
ATOM     12  N   UNL     1      -0.213   8.828  21.726  0.00  0.00    +0.000 NA
ATOM     13  H   UNL     1       2.866   9.299  22.115  0.00  0.00    +0.000 HD
ATOM     14  H   UNL     1       1.557   9.896  22.985  0.00  0.00    +0.000 HD
BRANCH  12  15
ATOM     15  O   UNL     1      -0.470   9.839  22.664  0.00  0.00    +0.000 OA
ATOM     16  H   UNL     1      -0.235   9.398  23.503  0.00  0.00    +0.000 HD
ENDBRANCH  12  15
ENDBRANCH   6  10
ENDBRANCH   1   2
BRANCH   1  17
ATOM     17  C   UNL     1       3.855   3.681  18.360  0.00  0.00    +0.000 C 
BRANCH  17  22
ATOM     18  C   UNL     1       6.623   4.765  15.987  0.00  0.00    +0.000 A 
ATOM     19  C   UNL     1       7.577   5.278  16.866  0.00  0.00    +0.000 A 
ATOM     20  C   UNL     1       7.305   5.321  18.236  0.00  0.00    +0.000 A 
ATOM     21  C   UNL     1       6.090   4.836  18.732  0.00  0.00    +0.000 A 
ATOM     22  C   UNL     1       5.132   4.312  17.857  0.00  0.00    +0.000 A 
ATOM     23  C   UNL     1       5.404   4.293  16.479  0.00  0.00    +0.000 A 
BRANCH  18  25
ATOM     24  N   UNL     1       6.316   3.638  13.806  0.00  0.00    +0.000 N 
ATOM     25  C   UNL     1       6.918   4.644  14.528  0.00  0.00    +0.000 C 
ATOM     26  N   UNL     1       7.743   5.495  13.991  0.00  0.00    +0.000 NA
ATOM     27  H   UNL     1       6.456   3.808  12.811  0.00  0.00    +0.000 HD
ATOM     28  H   UNL     1       5.342   3.471  14.031  0.00  0.00    +0.000 HD
BRANCH  26  29
ATOM     29  O   UNL     1       7.924   5.222  12.624  0.00  0.00    +0.000 OA
ATOM     30  H   UNL     1       8.884   5.362  12.520  0.00  0.00    +0.000 HD
ENDBRANCH  26  29
ENDBRANCH  18  25
ENDBRANCH  17  22
ENDBRANCH   1  17
TORSDOF 7
ENDMDL
MODEL 7
REMARK VINA RESULT:      -8.1      3.295      4.458
REMARK  Name = 
REMARK  7 active torsions:
REMARK  status: ('A' for Active; 'I' for Inactive)
REMARK    1  A    between atoms: C_2  and  C_5
REMARK    2  A    between atoms: N_3  and  O_4
REMARK    3  A    between atoms: C_9  and  C_10
REMARK    4  A    between atoms: C_10  and  O_11
REMARK    5  A    between atoms: O_11  and  C_12
REMARK    6  A    between atoms: C_16  and  C_17
REMARK    7  A    between atoms: N_19  and  O_20
REMARK                            x       y       z     vdW  Elec       q    Type
REMARK                         _______ _______ _______ _____ _____    ______ ____
ROOT
ATOM      1  O   UNL     1       1.219   7.435  20.384  0.00  0.00    +0.000 OA
ENDROOT
BRANCH   1   2
ATOM      2  C   UNL     1       2.213   7.048  19.511  0.00  0.00    +0.000 A 
ATOM      3  C   UNL     1       2.775   5.775  19.757  0.00  0.00    +0.000 A 
ATOM      4 CL   UNL     1       2.264   4.817  21.110  0.00  0.00    +0.000 Cl
ATOM      5  C   UNL     1       3.775   5.236  18.934  0.00  0.00    +0.000 A 
ATOM      6  C   UNL     1       4.232   5.971  17.845  0.00  0.00    +0.000 A 
ATOM      7  C   UNL     1       3.675   7.218  17.573  0.00  0.00    +0.000 A 
ATOM      8  C   UNL     1       2.667   7.754  18.381  0.00  0.00    +0.000 A 
ATOM      9 CL   UNL     1       2.044   9.257  17.796  0.00  0.00    +0.000 Cl
BRANCH   6  10
ATOM     10  C   UNL     1       5.315   5.472  16.948  0.00  0.00    +0.000 C 
ATOM     11  N   UNL     1       5.681   4.151  16.989  0.00  0.00    +0.000 N 
ATOM     12  N   UNL     1       5.865   6.329  16.134  0.00  0.00    +0.000 NA
ATOM     13  H   UNL     1       4.920   3.487  17.072  0.00  0.00    +0.000 HD
ATOM     14  H   UNL     1       6.273   3.944  16.185  0.00  0.00    +0.000 HD
BRANCH  12  15
ATOM     15  O   UNL     1       6.840   5.722  15.330  0.00  0.00    +0.000 OA
ATOM     16  H   UNL     1       7.640   6.227  15.570  0.00  0.00    +0.000 HD
ENDBRANCH  12  15
ENDBRANCH   6  10
ENDBRANCH   1   2
BRANCH   1  17
ATOM     17  C   UNL     1       1.573   8.361  21.407  0.00  0.00    +0.000 C 
BRANCH  17  22
ATOM     18  C   UNL     1      -0.849  11.209  20.705  0.00  0.00    +0.000 A 
ATOM     19  C   UNL     1      -1.361  11.476  21.974  0.00  0.00    +0.000 A 
ATOM     20  C   UNL     1      -0.959  10.697  23.062  0.00  0.00    +0.000 A 
ATOM     21  C   UNL     1      -0.032   9.664  22.889  0.00  0.00    +0.000 A 
ATOM     22  C   UNL     1       0.492   9.395  21.620  0.00  0.00    +0.000 A 
ATOM     23  C   UNL     1       0.065  10.168  20.527  0.00  0.00    +0.000 A 
BRANCH  18  25
ATOM     24  N   UNL     1      -1.927  13.226  19.761  0.00  0.00    +0.000 N 
ATOM     25  C   UNL     1      -1.210  12.071  19.540  0.00  0.00    +0.000 C 
ATOM     26  N   UNL     1      -0.838  11.694  18.352  0.00  0.00    +0.000 NA
ATOM     27  H   UNL     1      -1.919  13.793  18.915  0.00  0.00    +0.000 HD
ATOM     28  H   UNL     1      -1.646  13.757  20.578  0.00  0.00    +0.000 HD
BRANCH  26  29
ATOM     29  O   UNL     1      -1.281  12.603  17.376  0.00  0.00    +0.000 OA
ATOM     30  H   UNL     1      -2.184  12.803  17.687  0.00  0.00    +0.000 HD
ENDBRANCH  26  29
ENDBRANCH  18  25
ENDBRANCH  17  22
ENDBRANCH   1  17
TORSDOF 7
ENDMDL
MODEL 8
REMARK VINA RESULT:      -8.1      3.901      5.033
REMARK  Name = 
REMARK  7 active torsions:
REMARK  status: ('A' for Active; 'I' for Inactive)
REMARK    1  A    between atoms: C_2  and  C_5
REMARK    2  A    between atoms: N_3  and  O_4
REMARK    3  A    between atoms: C_9  and  C_10
REMARK    4  A    between atoms: C_10  and  O_11
REMARK    5  A    between atoms: O_11  and  C_12
REMARK    6  A    between atoms: C_16  and  C_17
REMARK    7  A    between atoms: N_19  and  O_20
REMARK                            x       y       z     vdW  Elec       q    Type
REMARK                         _______ _______ _______ _____ _____    ______ ____
ROOT
ATOM      1  O   UNL     1       2.872   8.194  18.305  0.00  0.00    +0.000 OA
ENDROOT
BRANCH   1   2
ATOM      2  C   UNL     1       3.109   6.854  18.527  0.00  0.00    +0.000 A 
ATOM      3  C   UNL     1       4.046   6.251  17.657  0.00  0.00    +0.000 A 
ATOM      4 CL   UNL     1       4.783   7.152  16.372  0.00  0.00    +0.000 Cl
ATOM      5  C   UNL     1       4.409   4.902  17.782  0.00  0.00    +0.000 A 
ATOM      6  C   UNL     1       3.834   4.130  18.786  0.00  0.00    +0.000 A 
ATOM      7  C   UNL     1       2.925   4.712  19.667  0.00  0.00    +0.000 A 
ATOM      8  C   UNL     1       2.571   6.060  19.557  0.00  0.00    +0.000 A 
ATOM      9 CL   UNL     1       1.519   6.599  20.819  0.00  0.00    +0.000 Cl
BRANCH   6  10
ATOM     10  C   UNL     1       4.151   2.682  18.954  0.00  0.00    +0.000 C 
ATOM     11  N   UNL     1       4.959   2.275  19.985  0.00  0.00    +0.000 N 
ATOM     12  N   UNL     1       3.619   1.847  18.106  0.00  0.00    +0.000 NA
ATOM     13  H   UNL     1       4.802   2.736  20.874  0.00  0.00    +0.000 HD
ATOM     14  H   UNL     1       4.901   1.261  20.073  0.00  0.00    +0.000 HD
BRANCH  12  15
ATOM     15  O   UNL     1       3.972   0.522  18.399  0.00  0.00    +0.000 OA
ATOM     16  H   UNL     1       3.983   0.117  17.510  0.00  0.00    +0.000 HD
ENDBRANCH  12  15
ENDBRANCH   6  10
ENDBRANCH   1   2
BRANCH   1  17
ATOM     17  C   UNL     1       1.704   8.536  17.565  0.00  0.00    +0.000 C 
BRANCH  17  22
ATOM     18  C   UNL     1      -1.206  10.834  18.414  0.00  0.00    +0.000 A 
ATOM     19  C   UNL     1      -0.858  11.287  19.687  0.00  0.00    +0.000 A 
ATOM     20  C   UNL     1       0.303  10.810  20.299  0.00  0.00    +0.000 A 
ATOM     21  C   UNL     1       1.128   9.894  19.637  0.00  0.00    +0.000 A 
ATOM     22  C   UNL     1       0.789   9.440  18.357  0.00  0.00    +0.000 A 
ATOM     23  C   UNL     1      -0.392   9.909  17.757  0.00  0.00    +0.000 A 
BRANCH  18  25
ATOM     24  N   UNL     1      -2.334  11.614  16.356  0.00  0.00    +0.000 N 
ATOM     25  C   UNL     1      -2.404  11.382  17.711  0.00  0.00    +0.000 C 
ATOM     26  N   UNL     1      -3.474  11.628  18.410  0.00  0.00    +0.000 NA
ATOM     27  H   UNL     1      -3.271  11.791  15.996  0.00  0.00    +0.000 HD
ATOM     28  H   UNL     1      -1.850  10.901  15.822  0.00  0.00    +0.000 HD
BRANCH  26  29
ATOM     29  O   UNL     1      -4.490  12.160  17.599  0.00  0.00    +0.000 OA
ATOM     30  H   UNL     1      -3.998  12.812  17.066  0.00  0.00    +0.000 HD
ENDBRANCH  26  29
ENDBRANCH  18  25
ENDBRANCH  17  22
ENDBRANCH   1  17
TORSDOF 7
ENDMDL
MODEL 9
REMARK VINA RESULT:      -8.1      3.222      4.287
REMARK  Name = 
REMARK  7 active torsions:
REMARK  status: ('A' for Active; 'I' for Inactive)
REMARK    1  A    between atoms: C_2  and  C_5
REMARK    2  A    between atoms: N_3  and  O_4
REMARK    3  A    between atoms: C_9  and  C_10
REMARK    4  A    between atoms: C_10  and  O_11
REMARK    5  A    between atoms: O_11  and  C_12
REMARK    6  A    between atoms: C_16  and  C_17
REMARK    7  A    between atoms: N_19  and  O_20
REMARK                            x       y       z     vdW  Elec       q    Type
REMARK                         _______ _______ _______ _____ _____    ______ ____
ROOT
ATOM      1  O   UNL     1       1.411   7.203  19.835  0.00  0.00    +0.000 OA
ENDROOT
BRANCH   1   2
ATOM      2  C   UNL     1       2.496   6.485  19.381  0.00  0.00    +0.000 A 
ATOM      3  C   UNL     1       3.207   7.074  18.310  0.00  0.00    +0.000 A 
ATOM      4 CL   UNL     1       2.686   8.569  17.604  0.00  0.00    +0.000 Cl
ATOM      5  C   UNL     1       4.351   6.473  17.764  0.00  0.00    +0.000 A 
ATOM      6  C   UNL     1       4.802   5.263  18.283  0.00  0.00    +0.000 A 
ATOM      7  C   UNL     1       4.127   4.679  19.353  0.00  0.00    +0.000 A 
ATOM      8  C   UNL     1       2.995   5.281  19.912  0.00  0.00    +0.000 A 
ATOM      9 CL   UNL     1       2.387   4.445  21.297  0.00  0.00    +0.000 Cl
BRANCH   6  10
ATOM     10  C   UNL     1       5.991   4.555  17.728  0.00  0.00    +0.000 C 
ATOM     11  N   UNL     1       5.859   3.768  16.612  0.00  0.00    +0.000 N 
ATOM     12  N   UNL     1       7.134   4.735  18.330  0.00  0.00    +0.000 NA
ATOM     13  H   UNL     1       5.262   4.139  15.882  0.00  0.00    +0.000 HD
ATOM     14  H   UNL     1       6.785   3.535  16.257  0.00  0.00    +0.000 HD
BRANCH  12  15
ATOM     15  O   UNL     1       8.169   4.040  17.687  0.00  0.00    +0.000 OA
ATOM     16  H   UNL     1       8.649   4.764  17.243  0.00  0.00    +0.000 HD
ENDBRANCH  12  15
ENDBRANCH   6  10
ENDBRANCH   1   2
BRANCH   1  17
ATOM     17  C   UNL     1       1.481   7.725  21.159  0.00  0.00    +0.000 C 
BRANCH  17  22
ATOM     18  C   UNL     1      -0.419  10.920  20.351  0.00  0.00    +0.000 A 
ATOM     19  C   UNL     1      -0.892  11.303  21.606  0.00  0.00    +0.000 A 
ATOM     20  C   UNL     1      -0.637  10.497  22.719  0.00  0.00    +0.000 A 
ATOM     21  C   UNL     1       0.104   9.319  22.585  0.00  0.00    +0.000 A 
ATOM     22  C   UNL     1       0.588   8.931  21.330  0.00  0.00    +0.000 A 
ATOM     23  C   UNL     1       0.308   9.736  20.212  0.00  0.00    +0.000 A 
BRANCH  18  25
ATOM     24  N   UNL     1       0.050  13.000  19.098  0.00  0.00    +0.000 N 
ATOM     25  C   UNL     1      -0.619  11.798  19.161  0.00  0.00    +0.000 C 
ATOM     26  N   UNL     1      -1.427  11.397  18.223  0.00  0.00    +0.000 NA
ATOM     27  H   UNL     1      -0.030  13.381  18.156  0.00  0.00    +0.000 HD
ATOM     28  H   UNL     1       1.012  12.974  19.418  0.00  0.00    +0.000 HD
BRANCH  26  29
ATOM     29  O   UNL     1      -1.516  12.352  17.196  0.00  0.00    +0.000 OA
ATOM     30  H   UNL     1      -1.853  13.130  17.678  0.00  0.00    +0.000 HD
ENDBRANCH  26  29
ENDBRANCH  18  25
ENDBRANCH  17  22
ENDBRANCH   1  17
TORSDOF 7
ENDMDL
