MODEL 1
REMARK VINA RESULT:      -7.3      0.000      0.000
REMARK  Name = 
REMARK  4 active torsions:
REMARK  status: ('A' for Active; 'I' for Inactive)
REMARK    1  A    between atoms: C_4  and  S_5
REMARK    2  A    between atoms: S_5  and  C_6
REMARK    3  A    between atoms: C_6  and  S_7
REMARK    4  A    between atoms: S_7  and  C_8
REMARK                            x       y       z     vdW  Elec       q    Type
REMARK                         _______ _______ _______ _____ _____    ______ ____
ROOT
ATOM      1  C   UNL     1       4.641   4.341  17.386  0.00  0.00    +0.000 C 
ATOM      2  C   UNL     1       5.405   4.686  16.335  0.00  0.00    +0.000 C 
ATOM      3  C   UNL     1       5.417   4.366  14.849  0.00  0.00    +0.000 C 
ATOM      4  C   UNL     1       6.933   4.622  14.986  0.00  0.00    +0.000 C 
ATOM      5  C   UNL     1       6.655   5.547  16.196  0.00  0.00    +0.000 C 
ENDROOT
BRANCH   1   6
ATOM      6  S   UNL     1       4.877   5.122  18.935  0.00  0.00    +0.000 S 
BRANCH   6  10
ATOM      7  C   UNL     1       1.783   8.516  18.691  0.00  0.00    +0.000 A 
ATOM      8  C   UNL     1       1.830   7.699  19.822  0.00  0.00    +0.000 A 
ATOM      9  C   UNL     1       2.751   6.648  19.893  0.00  0.00    +0.000 A 
ATOM     10  C   UNL     1       3.636   6.410  18.836  0.00  0.00    +0.000 A 
ATOM     11  C   UNL     1       3.590   7.241  17.708  0.00  0.00    +0.000 A 
ATOM     12  C   UNL     1       2.664   8.288  17.634  0.00  0.00    +0.000 A 
ENDBRANCH   6  10
ENDBRANCH   1   6
BRANCH   1  13
ATOM     13  S   UNL     1       3.421   3.104  17.244  0.00  0.00    +0.000 S 
BRANCH  13  14
ATOM     14  C   UNL     1       2.695   3.044  18.892  0.00  0.00    +0.000 A 
ATOM     15  C   UNL     1       3.355   2.587  20.039  0.00  0.00    +0.000 A 
ATOM     16  C   UNL     1       2.714   2.566  21.285  0.00  0.00    +0.000 A 
ATOM     17  C   UNL     1       1.403   3.015  21.408  0.00  0.00    +0.000 A 
ATOM     18  C   UNL     1       0.739   3.501  20.286  0.00  0.00    +0.000 A 
ATOM     19  C   UNL     1       1.380   3.518  19.040  0.00  0.00    +0.000 A 
ENDBRANCH  13  14
ENDBRANCH   1  13
TORSDOF 4
ENDMDL
MODEL 2
REMARK VINA RESULT:      -7.2      0.240      1.133
REMARK  Name = 
REMARK  4 active torsions:
REMARK  status: ('A' for Active; 'I' for Inactive)
REMARK    1  A    between atoms: C_4  and  S_5
REMARK    2  A    between atoms: S_5  and  C_6
REMARK    3  A    between atoms: C_6  and  S_7
REMARK    4  A    between atoms: S_7  and  C_8
REMARK                            x       y       z     vdW  Elec       q    Type
REMARK                         _______ _______ _______ _____ _____    ______ ____
ROOT
ATOM      1  C   UNL     1       4.825   4.142  17.412  0.00  0.00    +0.000 C 
ATOM      2  C   UNL     1       5.502   4.548  16.324  0.00  0.00    +0.000 C 
ATOM      3  C   UNL     1       5.453   4.240  14.836  0.00  0.00    +0.000 C 
ATOM      4  C   UNL     1       6.951   4.603  14.891  0.00  0.00    +0.000 C 
ATOM      5  C   UNL     1       6.677   5.499  16.124  0.00  0.00    +0.000 C 
ENDROOT
BRANCH   1   6
ATOM      6  S   UNL     1       5.092   4.928  18.954  0.00  0.00    +0.000 S 
BRANCH   6  10
ATOM      7  C   UNL     1       1.906   8.234  18.685  0.00  0.00    +0.000 A 
ATOM      8  C   UNL     1       2.793   8.036  17.625  0.00  0.00    +0.000 A 
ATOM      9  C   UNL     1       3.782   7.050  17.710  0.00  0.00    +0.000 A 
ATOM     10  C   UNL     1       3.887   6.250  18.852  0.00  0.00    +0.000 A 
ATOM     11  C   UNL     1       2.986   6.446  19.908  0.00  0.00    +0.000 A 
ATOM     12  C   UNL     1       2.002   7.438  19.826  0.00  0.00    +0.000 A 
ENDBRANCH   6  10
ENDBRANCH   1   6
BRANCH   1  13
ATOM     13  S   UNL     1       3.692   2.821  17.326  0.00  0.00    +0.000 S 
BRANCH  13  14
ATOM     14  C   UNL     1       2.828   2.909  18.905  0.00  0.00    +0.000 A 
ATOM     15  C   UNL     1       3.384   2.555  20.141  0.00  0.00    +0.000 A 
ATOM     16  C   UNL     1       2.639   2.646  21.324  0.00  0.00    +0.000 A 
ATOM     17  C   UNL     1       1.328   3.108  21.295  0.00  0.00    +0.000 A 
ATOM     18  C   UNL     1       0.765   3.494  20.082  0.00  0.00    +0.000 A 
ATOM     19  C   UNL     1       1.510   3.398  18.899  0.00  0.00    +0.000 A 
ENDBRANCH  13  14
ENDBRANCH   1  13
TORSDOF 4
ENDMDL
MODEL 3
REMARK VINA RESULT:      -7.2      0.379      4.213
REMARK  Name = 
REMARK  4 active torsions:
REMARK  status: ('A' for Active; 'I' for Inactive)
REMARK    1  A    between atoms: C_4  and  S_5
REMARK    2  A    between atoms: S_5  and  C_6
REMARK    3  A    between atoms: C_6  and  S_7
REMARK    4  A    between atoms: S_7  and  C_8
REMARK                            x       y       z     vdW  Elec       q    Type
REMARK                         _______ _______ _______ _____ _____    ______ ____
ROOT
ATOM      1  C   UNL     1       4.754   4.130  17.601  0.00  0.00    +0.000 C 
ATOM      2  C   UNL     1       5.758   4.216  16.712  0.00  0.00    +0.000 C 
ATOM      3  C   UNL     1       7.156   4.815  16.705  0.00  0.00    +0.000 C 
ATOM      4  C   UNL     1       6.900   4.950  15.190  0.00  0.00    +0.000 C 
ATOM      5  C   UNL     1       5.908   3.763  15.264  0.00  0.00    +0.000 C 
ENDROOT
BRANCH   1   6
ATOM      6  S   UNL     1       3.349   3.150  17.243  0.00  0.00    +0.000 S 
BRANCH   6  10
ATOM      7  C   UNL     1       1.457   3.005  21.433  0.00  0.00    +0.000 A 
ATOM      8  C   UNL     1       2.743   2.500  21.233  0.00  0.00    +0.000 A 
ATOM      9  C   UNL     1       3.316   2.516  19.956  0.00  0.00    +0.000 A 
ATOM     10  C   UNL     1       2.609   3.044  18.871  0.00  0.00    +0.000 A 
ATOM     11  C   UNL     1       1.323   3.559  19.081  0.00  0.00    +0.000 A 
ATOM     12  C   UNL     1       0.747   3.536  20.356  0.00  0.00    +0.000 A 
ENDBRANCH   6  10
ENDBRANCH   1   6
BRANCH   1  13
ATOM     13  S   UNL     1       4.811   5.001  19.109  0.00  0.00    +0.000 S 
BRANCH  13  14
ATOM     14  C   UNL     1       3.684   6.381  18.838  0.00  0.00    +0.000 A 
ATOM     15  C   UNL     1       3.636   7.154  17.670  0.00  0.00    +0.000 A 
ATOM     16  C   UNL     1       2.732   8.217  17.543  0.00  0.00    +0.000 A 
ATOM     17  C   UNL     1       1.849   8.518  18.574  0.00  0.00    +0.000 A 
ATOM     18  C   UNL     1       1.860   7.743  19.730  0.00  0.00    +0.000 A 
ATOM     19  C   UNL     1       2.767   6.682  19.859  0.00  0.00    +0.000 A 
ENDBRANCH  13  14
ENDBRANCH   1  13
TORSDOF 4
ENDMDL
MODEL 4
REMARK VINA RESULT:      -7.2      0.113      1.107
REMARK  Name = 
REMARK  4 active torsions:
REMARK  status: ('A' for Active; 'I' for Inactive)
REMARK    1  A    between atoms: C_4  and  S_5
REMARK    2  A    between atoms: S_5  and  C_6
REMARK    3  A    between atoms: C_6  and  S_7
REMARK    4  A    between atoms: S_7  and  C_8
REMARK                            x       y       z     vdW  Elec       q    Type
REMARK                         _______ _______ _______ _____ _____    ______ ____
ROOT
ATOM      1  C   UNL     1       4.657   4.331  17.474  0.00  0.00    +0.000 C 
ATOM      2  C   UNL     1       5.418   4.677  16.422  0.00  0.00    +0.000 C 
ATOM      3  C   UNL     1       5.453   4.324  14.943  0.00  0.00    +0.000 C 
ATOM      4  C   UNL     1       6.958   4.633  15.086  0.00  0.00    +0.000 C 
ATOM      5  C   UNL     1       6.641   5.576  16.272  0.00  0.00    +0.000 C 
ENDROOT
BRANCH   1   6
ATOM      6  S   UNL     1       4.855   5.155  19.006  0.00  0.00    +0.000 S 
BRANCH   6  10
ATOM      7  C   UNL     1       1.823   8.585  18.559  0.00  0.00    +0.000 A 
ATOM      8  C   UNL     1       1.826   7.807  19.719  0.00  0.00    +0.000 A 
ATOM      9  C   UNL     1       2.728   6.745  19.851  0.00  0.00    +0.000 A 
ATOM     10  C   UNL     1       3.637   6.457  18.829  0.00  0.00    +0.000 A 
ATOM     11  C   UNL     1       3.636   7.249  17.672  0.00  0.00    +0.000 A 
ATOM     12  C   UNL     1       2.729   8.306  17.536  0.00  0.00    +0.000 A 
ENDBRANCH   6  10
ENDBRANCH   1   6
BRANCH   1  13
ATOM     13  S   UNL     1       3.481   3.052  17.352  0.00  0.00    +0.000 S 
BRANCH  13  14
ATOM     14  C   UNL     1       2.635   3.109  18.942  0.00  0.00    +0.000 A 
ATOM     15  C   UNL     1       1.344   3.617  19.142  0.00  0.00    +0.000 A 
ATOM     16  C   UNL     1       0.761   3.632  20.416  0.00  0.00    +0.000 A 
ATOM     17  C   UNL     1       1.452   3.126  21.512  0.00  0.00    +0.000 A 
ATOM     18  C   UNL     1       2.723   2.589  21.330  0.00  0.00    +0.000 A 
ATOM     19  C   UNL     1       3.307   2.579  20.056  0.00  0.00    +0.000 A 
ENDBRANCH  13  14
ENDBRANCH   1  13
TORSDOF 4
ENDMDL
MODEL 5
REMARK VINA RESULT:      -7.2      0.161      1.570
REMARK  Name = 
REMARK  4 active torsions:
REMARK  status: ('A' for Active; 'I' for Inactive)
REMARK    1  A    between atoms: C_4  and  S_5
REMARK    2  A    between atoms: S_5  and  C_6
REMARK    3  A    between atoms: C_6  and  S_7
REMARK    4  A    between atoms: S_7  and  C_8
REMARK                            x       y       z     vdW  Elec       q    Type
REMARK                         _______ _______ _______ _____ _____    ______ ____
ROOT
ATOM      1  C   UNL     1       4.774   4.211  17.439  0.00  0.00    +0.000 C 
ATOM      2  C   UNL     1       5.481   4.609  16.369  0.00  0.00    +0.000 C 
ATOM      3  C   UNL     1       5.467   4.300  14.880  0.00  0.00    +0.000 C 
ATOM      4  C   UNL     1       6.967   4.651  14.973  0.00  0.00    +0.000 C 
ATOM      5  C   UNL     1       6.670   5.550  16.197  0.00  0.00    +0.000 C 
ENDROOT
BRANCH   1   6
ATOM      6  S   UNL     1       5.008   4.996  18.986  0.00  0.00    +0.000 S 
BRANCH   6  10
ATOM      7  C   UNL     1       1.861   8.332  18.637  0.00  0.00    +0.000 A 
ATOM      8  C   UNL     1       2.744   8.097  17.582  0.00  0.00    +0.000 A 
ATOM      9  C   UNL     1       3.722   7.101  17.690  0.00  0.00    +0.000 A 
ATOM     10  C   UNL     1       3.819   6.329  18.852  0.00  0.00    +0.000 A 
ATOM     11  C   UNL     1       2.922   6.563  19.904  0.00  0.00    +0.000 A 
ATOM     12  C   UNL     1       1.950   7.565  19.798  0.00  0.00    +0.000 A 
ENDBRANCH   6  10
ENDBRANCH   1   6
BRANCH   1  13
ATOM     13  S   UNL     1       3.631   2.900  17.325  0.00  0.00    +0.000 S 
BRANCH  13  14
ATOM     14  C   UNL     1       2.693   3.030  18.859  0.00  0.00    +0.000 A 
ATOM     15  C   UNL     1       1.394   3.545  18.959  0.00  0.00    +0.000 A 
ATOM     16  C   UNL     1       0.737   3.617  20.194  0.00  0.00    +0.000 A 
ATOM     17  C   UNL     1       1.361   3.162  21.351  0.00  0.00    +0.000 A 
ATOM     18  C   UNL     1       2.639   2.619  21.269  0.00  0.00    +0.000 A 
ATOM     19  C   UNL     1       3.298   2.550  20.034  0.00  0.00    +0.000 A 
ENDBRANCH  13  14
ENDBRANCH   1  13
TORSDOF 4
ENDMDL
MODEL 6
REMARK VINA RESULT:      -7.2      0.363      4.229
REMARK  Name = 
REMARK  4 active torsions:
REMARK  status: ('A' for Active; 'I' for Inactive)
REMARK    1  A    between atoms: C_4  and  S_5
REMARK    2  A    between atoms: S_5  and  C_6
REMARK    3  A    between atoms: C_6  and  S_7
REMARK    4  A    between atoms: S_7  and  C_8
REMARK                            x       y       z     vdW  Elec       q    Type
REMARK                         _______ _______ _______ _____ _____    ______ ____
ROOT
ATOM      1  C   UNL     1       4.822   4.062  17.620  0.00  0.00    +0.000 C 
ATOM      2  C   UNL     1       5.755   4.235  16.668  0.00  0.00    +0.000 C 
ATOM      3  C   UNL     1       7.080   4.974  16.566  0.00  0.00    +0.000 C 
ATOM      4  C   UNL     1       6.719   5.054  15.069  0.00  0.00    +0.000 C 
ATOM      5  C   UNL     1       5.862   3.773  15.219  0.00  0.00    +0.000 C 
ENDROOT
BRANCH   1   6
ATOM      6  S   UNL     1       3.507   2.935  17.363  0.00  0.00    +0.000 S 
BRANCH   6  10
ATOM      7  C   UNL     1       1.409   3.037  21.455  0.00  0.00    +0.000 A 
ATOM      8  C   UNL     1       0.753   3.530  20.325  0.00  0.00    +0.000 A 
ATOM      9  C   UNL     1       1.395   3.527  19.081  0.00  0.00    +0.000 A 
ATOM     10  C   UNL     1       2.693   3.024  18.957  0.00  0.00    +0.000 A 
ATOM     11  C   UNL     1       3.342   2.521  20.092  0.00  0.00    +0.000 A 
ATOM     12  C   UNL     1       2.704   2.531  21.338  0.00  0.00    +0.000 A 
ENDBRANCH   6  10
ENDBRANCH   1   6
BRANCH   1  13
ATOM     13  S   UNL     1       4.881   4.962  19.111  0.00  0.00    +0.000 S 
BRANCH  13  14
ATOM     14  C   UNL     1       3.751   6.334  18.815  0.00  0.00    +0.000 A 
ATOM     15  C   UNL     1       3.720   7.104  17.645  0.00  0.00    +0.000 A 
ATOM     16  C   UNL     1       2.812   8.161  17.498  0.00  0.00    +0.000 A 
ATOM     17  C   UNL     1       1.910   8.460  18.513  0.00  0.00    +0.000 A 
ATOM     18  C   UNL     1       1.904   7.689  19.671  0.00  0.00    +0.000 A 
ATOM     19  C   UNL     1       2.815   6.634  19.820  0.00  0.00    +0.000 A 
ENDBRANCH  13  14
ENDBRANCH   1  13
TORSDOF 4
ENDMDL
MODEL 7
REMARK VINA RESULT:      -7.1      1.610      5.342
REMARK  Name = 
REMARK  4 active torsions:
REMARK  status: ('A' for Active; 'I' for Inactive)
REMARK    1  A    between atoms: C_4  and  S_5
REMARK    2  A    between atoms: S_5  and  C_6
REMARK    3  A    between atoms: C_6  and  S_7
REMARK    4  A    between atoms: S_7  and  C_8
REMARK                            x       y       z     vdW  Elec       q    Type
REMARK                         _______ _______ _______ _____ _____    ______ ____
ROOT
ATOM      1  C   UNL     1       3.056   4.656  18.641  0.00  0.00    +0.000 C 
ATOM      2  C   UNL     1       1.978   3.915  18.949  0.00  0.00    +0.000 C 
ATOM      3  C   UNL     1       0.903   3.954  20.024  0.00  0.00    +0.000 C 
ATOM      4  C   UNL     1       0.862   2.430  19.791  0.00  0.00    +0.000 C 
ATOM      5  C   UNL     1       1.379   2.648  18.348  0.00  0.00    +0.000 C 
ENDROOT
BRANCH   1   6
ATOM      6  S   UNL     1       3.930   4.355  17.154  0.00  0.00    +0.000 S 
BRANCH   6  10
ATOM      7  C   UNL     1       7.741   6.755  18.087  0.00  0.00    +0.000 A 
ATOM      8  C   UNL     1       6.759   7.303  17.259  0.00  0.00    +0.000 A 
ATOM      9  C   UNL     1       5.609   6.569  16.949  0.00  0.00    +0.000 A 
ATOM     10  C   UNL     1       5.429   5.284  17.470  0.00  0.00    +0.000 A 
ATOM     11  C   UNL     1       6.412   4.744  18.310  0.00  0.00    +0.000 A 
ATOM     12  C   UNL     1       7.567   5.476  18.613  0.00  0.00    +0.000 A 
ENDBRANCH   6  10
ENDBRANCH   1   6
BRANCH   1  13
ATOM     13  S   UNL     1       3.622   5.909  19.711  0.00  0.00    +0.000 S 
BRANCH  13  14
ATOM     14  C   UNL     1       2.581   7.319  19.291  0.00  0.00    +0.000 A 
ATOM     15  C   UNL     1       2.463   7.870  18.008  0.00  0.00    +0.000 A 
ATOM     16  C   UNL     1       1.634   8.974  17.767  0.00  0.00    +0.000 A 
ATOM     17  C   UNL     1       0.897   9.539  18.802  0.00  0.00    +0.000 A 
ATOM     18  C   UNL     1       0.977   8.988  20.078  0.00  0.00    +0.000 A 
ATOM     19  C   UNL     1       1.809   7.887  20.319  0.00  0.00    +0.000 A 
ENDBRANCH  13  14
ENDBRANCH   1  13
TORSDOF 4
ENDMDL
MODEL 8
REMARK VINA RESULT:      -7.1      1.702      5.152
REMARK  Name = 
REMARK  4 active torsions:
REMARK  status: ('A' for Active; 'I' for Inactive)
REMARK    1  A    between atoms: C_4  and  S_5
REMARK    2  A    between atoms: S_5  and  C_6
REMARK    3  A    between atoms: C_6  and  S_7
REMARK    4  A    between atoms: S_7  and  C_8
REMARK                            x       y       z     vdW  Elec       q    Type
REMARK                         _______ _______ _______ _____ _____    ______ ____
ROOT
ATOM      1  C   UNL     1       3.317   4.686  18.434  0.00  0.00    +0.000 C 
ATOM      2  C   UNL     1       2.304   3.813  18.563  0.00  0.00    +0.000 C 
ATOM      3  C   UNL     1       1.155   3.617  19.540  0.00  0.00    +0.000 C 
ATOM      4  C   UNL     1       1.293   2.136  19.130  0.00  0.00    +0.000 C 
ATOM      5  C   UNL     1       1.887   2.578  17.771  0.00  0.00    +0.000 C 
ENDROOT
BRANCH   1   6
ATOM      6  S   UNL     1       4.324   4.655  17.002  0.00  0.00    +0.000 S 
BRANCH   6  10
ATOM      7  C   UNL     1       8.028   6.998  18.398  0.00  0.00    +0.000 A 
ATOM      8  C   UNL     1       7.763   5.735  18.930  0.00  0.00    +0.000 A 
ATOM      9  C   UNL     1       6.624   5.027  18.531  0.00  0.00    +0.000 A 
ATOM     10  C   UNL     1       5.746   5.574  17.590  0.00  0.00    +0.000 A 
ATOM     11  C   UNL     1       6.023   6.837  17.051  0.00  0.00    +0.000 A 
ATOM     12  C   UNL     1       7.158   7.549  17.457  0.00  0.00    +0.000 A 
ENDBRANCH   6  10
ENDBRANCH   1   6
BRANCH   1  13
ATOM     13  S   UNL     1       3.669   5.848  19.685  0.00  0.00    +0.000 S 
BRANCH  13  14
ATOM     14  C   UNL     1       2.641   7.260  19.244  0.00  0.00    +0.000 A 
ATOM     15  C   UNL     1       2.556   7.816  17.961  0.00  0.00    +0.000 A 
ATOM     16  C   UNL     1       1.735   8.923  17.704  0.00  0.00    +0.000 A 
ATOM     17  C   UNL     1       0.973   9.485  18.722  0.00  0.00    +0.000 A 
ATOM     18  C   UNL     1       1.019   8.929  19.997  0.00  0.00    +0.000 A 
ATOM     19  C   UNL     1       1.844   7.825  20.255  0.00  0.00    +0.000 A 
ENDBRANCH  13  14
ENDBRANCH   1  13
TORSDOF 4
ENDMDL
MODEL 9
REMARK VINA RESULT:      -7.1      0.443      4.225
REMARK  Name = 
REMARK  4 active torsions:
REMARK  status: ('A' for Active; 'I' for Inactive)
REMARK    1  A    between atoms: C_4  and  S_5
REMARK    2  A    between atoms: S_5  and  C_6
REMARK    3  A    between atoms: C_6  and  S_7
REMARK    4  A    between atoms: S_7  and  C_8
REMARK                            x       y       z     vdW  Elec       q    Type
REMARK                         _______ _______ _______ _____ _____    ______ ____
ROOT
ATOM      1  C   UNL     1       4.875   4.023  17.711  0.00  0.00    +0.000 C 
ATOM      2  C   UNL     1       5.808   4.210  16.762  0.00  0.00    +0.000 C 
ATOM      3  C   UNL     1       7.122   4.968  16.664  0.00  0.00    +0.000 C 
ATOM      4  C   UNL     1       6.764   5.044  15.165  0.00  0.00    +0.000 C 
ATOM      5  C   UNL     1       5.925   3.751  15.312  0.00  0.00    +0.000 C 
ENDROOT
BRANCH   1   6
ATOM      6  S   UNL     1       3.577   2.878  17.450  0.00  0.00    +0.000 S 
BRANCH   6  10
ATOM      7  C   UNL     1       1.385   3.048  21.489  0.00  0.00    +0.000 A 
ATOM      8  C   UNL     1       0.759   3.531  20.339  0.00  0.00    +0.000 A 
ATOM      9  C   UNL     1       1.429   3.507  19.110  0.00  0.00    +0.000 A 
ATOM     10  C   UNL     1       2.727   2.994  19.023  0.00  0.00    +0.000 A 
ATOM     11  C   UNL     1       3.345   2.501  20.180  0.00  0.00    +0.000 A 
ATOM     12  C   UNL     1       2.678   2.532  21.410  0.00  0.00    +0.000 A 
ENDBRANCH   6  10
ENDBRANCH   1   6
BRANCH   1  13
ATOM     13  S   UNL     1       4.917   4.923  19.203  0.00  0.00    +0.000 S 
BRANCH  13  14
ATOM     14  C   UNL     1       3.746   6.262  18.915  0.00  0.00    +0.000 A 
ATOM     15  C   UNL     1       2.764   6.673  19.826  0.00  0.00    +0.000 A 
ATOM     16  C   UNL     1       1.887   7.722  19.521  0.00  0.00    +0.000 A 
ATOM     17  C   UNL     1       1.984   8.389  18.304  0.00  0.00    +0.000 A 
ATOM     18  C   UNL     1       2.972   8.016  17.398  0.00  0.00    +0.000 A 
ATOM     19  C   UNL     1       3.846   6.964  17.702  0.00  0.00    +0.000 A 
ENDBRANCH  13  14
ENDBRANCH   1  13
TORSDOF 4
ENDMDL
