MODEL 1
REMARK VINA RESULT:      -8.9      0.000      0.000
REMARK  Name = 
REMARK  6 active torsions:
REMARK  status: ('A' for Active; 'I' for Inactive)
REMARK    1  A    between atoms: C_1  and  C_2
REMARK    2  A    between atoms: C_2  and  C_3
REMARK    3  A    between atoms: C_4  and  C_5
REMARK    4  A    between atoms: N_14  and  C_15
REMARK    5  A    between atoms: C_15  and  C_16
REMARK    6  A    between atoms: C_20  and  C_21
REMARK                            x       y       z     vdW  Elec       q    Type
REMARK                         _______ _______ _______ _____ _____    ______ ____
ROOT
ATOM      1  C   UNL     1       2.094   6.228  19.743  0.00  0.00    +0.000 A 
ATOM      2  C   UNL     1       1.969   7.609  19.561  0.00  0.00    +0.000 A 
ATOM      3  N   UNL     1       2.678   8.043  18.476  0.00  0.00    +0.000 NA
ATOM      4  C   UNL     1       3.161   6.962  17.930  0.00  0.00    +0.000 A 
ATOM      5  N   UNL     1       2.806   5.824  18.615  0.00  0.00    +0.000 N 
ENDROOT
BRANCH   2   6
ATOM      6  C   UNL     1       1.185   8.534  20.361  0.00  0.00    +0.000 A 
ATOM      7  C   UNL     1       1.171   8.450  21.756  0.00  0.00    +0.000 A 
ATOM      8  C   UNL     1       0.538   9.445  22.514  0.00  0.00    +0.000 A 
ATOM      9  C   UNL     1      -0.101  10.510  21.879  0.00  0.00    +0.000 A 
ATOM     10 CL   UNL     1      -0.809  11.776  22.798  0.00  0.00    +0.000 Cl
ATOM     11  C   UNL     1      -0.122  10.587  20.494  0.00  0.00    +0.000 A 
ATOM     12  C   UNL     1       0.543   9.617  19.752  0.00  0.00    +0.000 A 
ENDBRANCH   2   6
BRANCH   1  14
ATOM     13  C   UNL     1       1.156   4.028  20.734  0.00  0.00    +0.000 C 
ATOM     14  C   UNL     1       1.680   5.440  20.954  0.00  0.00    +0.000 C 
ENDBRANCH   1  14
BRANCH   5  15
ATOM     15  C   UNL     1       3.276   4.529  18.121  0.00  0.00    +0.000 C 
BRANCH  15  16
ATOM     16  C   UNL     1       4.709   4.462  17.623  0.00  0.00    +0.000 A 
ATOM     17  C   UNL     1       5.754   4.678  18.541  0.00  0.00    +0.000 A 
ATOM     18  C   UNL     1       7.074   4.797  18.109  0.00  0.00    +0.000 A 
ATOM     19  C   UNL     1       7.374   4.711  16.749  0.00  0.00    +0.000 A 
ATOM     20  C   UNL     1       6.370   4.477  15.794  0.00  0.00    +0.000 A 
ATOM     21  C   UNL     1       5.045   4.341  16.265  0.00  0.00    +0.000 A 
BRANCH  20  22
ATOM     22  C   UNL     1       6.678   4.429  14.345  0.00  0.00    +0.000 A 
ATOM     23  C   UNL     1       7.602   5.310  13.748  0.00  0.00    +0.000 A 
ATOM     24  C   UNL     1       7.873   5.268  12.385  0.00  0.00    +0.000 A 
ATOM     25  C   UNL     1       7.236   4.340  11.564  0.00  0.00    +0.000 A 
ATOM     26  C   UNL     1       6.319   3.454  12.127  0.00  0.00    +0.000 A 
ATOM     27  C   UNL     1       6.038   3.507  13.495  0.00  0.00    +0.000 A 
ENDBRANCH  20  22
ENDBRANCH  15  16
ENDBRANCH   5  15
TORSDOF 5
ENDMDL
MODEL 2
REMARK VINA RESULT:      -8.8      0.939      1.975
REMARK  Name = 
REMARK  6 active torsions:
REMARK  status: ('A' for Active; 'I' for Inactive)
REMARK    1  A    between atoms: C_1  and  C_2
REMARK    2  A    between atoms: C_2  and  C_3
REMARK    3  A    between atoms: C_4  and  C_5
REMARK    4  A    between atoms: N_14  and  C_15
REMARK    5  A    between atoms: C_15  and  C_16
REMARK    6  A    between atoms: C_20  and  C_21
REMARK                            x       y       z     vdW  Elec       q    Type
REMARK                         _______ _______ _______ _____ _____    ______ ____
ROOT
ATOM      1  C   UNL     1       2.496   6.240  18.970  0.00  0.00    +0.000 A 
ATOM      2  C   UNL     1       1.886   6.704  20.138  0.00  0.00    +0.000 A 
ATOM      3  N   UNL     1       1.656   5.692  21.027  0.00  0.00    +0.000 NA
ATOM      4  C   UNL     1       2.188   4.634  20.483  0.00  0.00    +0.000 A 
ATOM      5  N   UNL     1       2.758   4.902  19.260  0.00  0.00    +0.000 N 
ENDROOT
BRANCH   2   6
ATOM      6  C   UNL     1       1.530   8.076  20.459  0.00  0.00    +0.000 A 
ATOM      7  C   UNL     1       1.333   9.025  19.453  0.00  0.00    +0.000 A 
ATOM      8  C   UNL     1       0.839  10.297  19.772  0.00  0.00    +0.000 A 
ATOM      9  C   UNL     1       0.563  10.628  21.099  0.00  0.00    +0.000 A 
ATOM     10 CL   UNL     1      -0.120  12.155  21.493  0.00  0.00    +0.000 Cl
ATOM     11  C   UNL     1       0.786   9.706  22.111  0.00  0.00    +0.000 A 
ATOM     12  C   UNL     1       1.238   8.434  21.779  0.00  0.00    +0.000 A 
ENDBRANCH   2   6
BRANCH   1  14
ATOM     13  C   UNL     1       4.062   7.486  17.328  0.00  0.00    +0.000 C 
ATOM     14  C   UNL     1       2.667   6.995  17.682  0.00  0.00    +0.000 C 
ENDBRANCH   1  14
BRANCH   5  15
ATOM     15  C   UNL     1       3.396   3.808  18.526  0.00  0.00    +0.000 C 
BRANCH  15  16
ATOM     16  C   UNL     1       4.781   4.074  17.963  0.00  0.00    +0.000 A 
ATOM     17  C   UNL     1       5.772   4.588  18.820  0.00  0.00    +0.000 A 
ATOM     18  C   UNL     1       7.004   5.008  18.321  0.00  0.00    +0.000 A 
ATOM     19  C   UNL     1       7.265   4.932  16.952  0.00  0.00    +0.000 A 
ATOM     20  C   UNL     1       6.317   4.409  16.056  0.00  0.00    +0.000 A 
ATOM     21  C   UNL     1       5.086   3.972  16.596  0.00  0.00    +0.000 A 
BRANCH  20  22
ATOM     22  C   UNL     1       6.574   4.367  14.597  0.00  0.00    +0.000 A 
ATOM     23  C   UNL     1       7.542   5.188  13.985  0.00  0.00    +0.000 A 
ATOM     24  C   UNL     1       7.766   5.153  12.613  0.00  0.00    +0.000 A 
ATOM     25  C   UNL     1       7.033   4.292  11.798  0.00  0.00    +0.000 A 
ATOM     26  C   UNL     1       6.070   3.467  12.376  0.00  0.00    +0.000 A 
ATOM     27  C   UNL     1       5.838   3.513  13.753  0.00  0.00    +0.000 A 
ENDBRANCH  20  22
ENDBRANCH  15  16
ENDBRANCH   5  15
TORSDOF 5
ENDMDL
MODEL 3
REMARK VINA RESULT:      -8.6      1.087      2.076
REMARK  Name = 
REMARK  6 active torsions:
REMARK  status: ('A' for Active; 'I' for Inactive)
REMARK    1  A    between atoms: C_1  and  C_2
REMARK    2  A    between atoms: C_2  and  C_3
REMARK    3  A    between atoms: C_4  and  C_5
REMARK    4  A    between atoms: N_14  and  C_15
REMARK    5  A    between atoms: C_15  and  C_16
REMARK    6  A    between atoms: C_20  and  C_21
REMARK                            x       y       z     vdW  Elec       q    Type
REMARK                         _______ _______ _______ _____ _____    ______ ____
ROOT
ATOM      1  C   UNL     1       2.641   6.121  19.018  0.00  0.00    +0.000 A 
ATOM      2  C   UNL     1       1.967   6.622  20.136  0.00  0.00    +0.000 A 
ATOM      3  N   UNL     1       1.809   5.669  21.102  0.00  0.00    +0.000 NA
ATOM      4  C   UNL     1       2.444   4.622  20.655  0.00  0.00    +0.000 A 
ATOM      5  N   UNL     1       3.014   4.840  19.422  0.00  0.00    +0.000 N 
ENDROOT
BRANCH   2   6
ATOM      6  C   UNL     1       1.486   7.978  20.337  0.00  0.00    +0.000 A 
ATOM      7  C   UNL     1       1.265   8.484  21.621  0.00  0.00    +0.000 A 
ATOM      8  C   UNL     1       0.953   9.838  21.801  0.00  0.00    +0.000 A 
ATOM      9  C   UNL     1       0.840  10.683  20.696  0.00  0.00    +0.000 A 
ATOM     10 CL   UNL     1       0.540  12.361  20.908  0.00  0.00    +0.000 Cl
ATOM     11  C   UNL     1       1.025  10.186  19.414  0.00  0.00    +0.000 A 
ATOM     12  C   UNL     1       1.373   8.851  19.250  0.00  0.00    +0.000 A 
ENDBRANCH   2   6
BRANCH   1  14
ATOM     13  C   UNL     1       4.099   7.444  17.337  0.00  0.00    +0.000 C 
ATOM     14  C   UNL     1       2.771   6.782  17.675  0.00  0.00    +0.000 C 
ENDBRANCH   1  14
BRANCH   5  15
ATOM     15  C   UNL     1       3.761   3.753  18.789  0.00  0.00    +0.000 C 
BRANCH  15  16
ATOM     16  C   UNL     1       5.080   4.116  18.131  0.00  0.00    +0.000 A 
ATOM     17  C   UNL     1       6.069   4.752  18.906  0.00  0.00    +0.000 A 
ATOM     18  C   UNL     1       7.225   5.259  18.315  0.00  0.00    +0.000 A 
ATOM     19  C   UNL     1       7.412   5.148  16.937  0.00  0.00    +0.000 A 
ATOM     20  C   UNL     1       6.464   4.505  16.122  0.00  0.00    +0.000 A 
ATOM     21  C   UNL     1       5.313   3.984  16.753  0.00  0.00    +0.000 A 
BRANCH  20  22
ATOM     22  C   UNL     1       6.638   4.424  14.652  0.00  0.00    +0.000 A 
ATOM     23  C   UNL     1       5.870   3.550  13.857  0.00  0.00    +0.000 A 
ATOM     24  C   UNL     1       6.050   3.469  12.481  0.00  0.00    +0.000 A 
ATOM     25  C   UNL     1       7.002   4.261  11.843  0.00  0.00    +0.000 A 
ATOM     26  C   UNL     1       7.775   5.136  12.604  0.00  0.00    +0.000 A 
ATOM     27  C   UNL     1       7.601   5.207  13.988  0.00  0.00    +0.000 A 
ENDBRANCH  20  22
ENDBRANCH  15  16
ENDBRANCH   5  15
TORSDOF 5
ENDMDL
MODEL 4
REMARK VINA RESULT:      -8.4      3.601      9.086
REMARK  Name = 
REMARK  6 active torsions:
REMARK  status: ('A' for Active; 'I' for Inactive)
REMARK    1  A    between atoms: C_1  and  C_2
REMARK    2  A    between atoms: C_2  and  C_3
REMARK    3  A    between atoms: C_4  and  C_5
REMARK    4  A    between atoms: N_14  and  C_15
REMARK    5  A    between atoms: C_15  and  C_16
REMARK    6  A    between atoms: C_20  and  C_21
REMARK                            x       y       z     vdW  Elec       q    Type
REMARK                         _______ _______ _______ _____ _____    ______ ____
ROOT
ATOM      1  C   UNL     1       2.462   6.848  19.570  0.00  0.00    +0.000 A 
ATOM      2  C   UNL     1       2.953   7.034  18.274  0.00  0.00    +0.000 A 
ATOM      3  N   UNL     1       2.515   8.207  17.729  0.00  0.00    +0.000 NA
ATOM      4  C   UNL     1       1.844   8.795  18.681  0.00  0.00    +0.000 A 
ATOM      5  N   UNL     1       1.813   8.052  19.838  0.00  0.00    +0.000 N 
ENDROOT
BRANCH   2   6
ATOM      6  C   UNL     1       3.842   6.153  17.537  0.00  0.00    +0.000 A 
ATOM      7  C   UNL     1       3.578   4.785  17.428  0.00  0.00    +0.000 A 
ATOM      8  C   UNL     1       4.358   3.982  16.584  0.00  0.00    +0.000 A 
ATOM      9  C   UNL     1       5.417   4.542  15.868  0.00  0.00    +0.000 A 
ATOM     10 CL   UNL     1       6.327   3.585  14.769  0.00  0.00    +0.000 Cl
ATOM     11  C   UNL     1       5.710   5.891  15.993  0.00  0.00    +0.000 A 
ATOM     12  C   UNL     1       4.905   6.687  16.801  0.00  0.00    +0.000 A 
ENDBRANCH   2   6
BRANCH   1  14
ATOM     13  C   UNL     1       1.240   4.753  20.476  0.00  0.00    +0.000 C 
ATOM     14  C   UNL     1       2.512   5.582  20.379  0.00  0.00    +0.000 C 
ENDBRANCH   1  14
BRANCH   5  15
ATOM     15  C   UNL     1       1.094   8.583  20.996  0.00  0.00    +0.000 C 
BRANCH  15  16
ATOM     16  C   UNL     1       0.228   9.809  20.766  0.00  0.00    +0.000 A 
ATOM     17  C   UNL     1       0.136  10.774  21.787  0.00  0.00    +0.000 A 
ATOM     18  C   UNL     1      -0.772  11.827  21.699  0.00  0.00    +0.000 A 
ATOM     19  C   UNL     1      -1.614  11.932  20.591  0.00  0.00    +0.000 A 
ATOM     20  C   UNL     1      -1.550  11.006  19.536  0.00  0.00    +0.000 A 
ATOM     21  C   UNL     1      -0.605   9.962  19.646  0.00  0.00    +0.000 A 
BRANCH  20  22
ATOM     22  C   UNL     1      -2.472  11.089  18.378  0.00  0.00    +0.000 A 
ATOM     23  C   UNL     1      -3.757  11.658  18.486  0.00  0.00    +0.000 A 
ATOM     24  C   UNL     1      -4.621  11.717  17.399  0.00  0.00    +0.000 A 
ATOM     25  C   UNL     1      -4.235  11.214  16.158  0.00  0.00    +0.000 A 
ATOM     26  C   UNL     1      -2.970  10.646  16.022  0.00  0.00    +0.000 A 
ATOM     27  C   UNL     1      -2.107  10.576  17.119  0.00  0.00    +0.000 A 
ENDBRANCH  20  22
ENDBRANCH  15  16
ENDBRANCH   5  15
TORSDOF 5
ENDMDL
MODEL 5
REMARK VINA RESULT:      -8.2      1.637      3.355
REMARK  Name = 
REMARK  6 active torsions:
REMARK  status: ('A' for Active; 'I' for Inactive)
REMARK    1  A    between atoms: C_1  and  C_2
REMARK    2  A    between atoms: C_2  and  C_3
REMARK    3  A    between atoms: C_4  and  C_5
REMARK    4  A    between atoms: N_14  and  C_15
REMARK    5  A    between atoms: C_15  and  C_16
REMARK    6  A    between atoms: C_20  and  C_21
REMARK                            x       y       z     vdW  Elec       q    Type
REMARK                         _______ _______ _______ _____ _____    ______ ____
ROOT
ATOM      1  C   UNL     1       1.250   8.879  20.482  0.00  0.00    +0.000 A 
ATOM      2  C   UNL     1       0.992   9.851  19.512  0.00  0.00    +0.000 A 
ATOM      3  N   UNL     1       1.556   9.530  18.309  0.00  0.00    +0.000 NA
ATOM      4  C   UNL     1       2.077   8.348  18.482  0.00  0.00    +0.000 A 
ATOM      5  N   UNL     1       1.886   7.871  19.758  0.00  0.00    +0.000 N 
ENDROOT
BRANCH   2   6
ATOM      6  C   UNL     1       0.209  11.065  19.670  0.00  0.00    +0.000 A 
ATOM      7  C   UNL     1      -1.151  11.094  19.353  0.00  0.00    +0.000 A 
ATOM      8  C   UNL     1      -1.922  12.224  19.661  0.00  0.00    +0.000 A 
ATOM      9  C   UNL     1      -1.328  13.333  20.264  0.00  0.00    +0.000 A 
ATOM     10 CL   UNL     1      -2.278  14.690  20.720  0.00  0.00    +0.000 Cl
ATOM     11  C   UNL     1       0.028  13.329  20.555  0.00  0.00    +0.000 A 
ATOM     12  C   UNL     1       0.775  12.188  20.282  0.00  0.00    +0.000 A 
ENDBRANCH   2   6
BRANCH   1  14
ATOM     13  C   UNL     1      -0.418   9.053  22.453  0.00  0.00    +0.000 C 
ATOM     14  C   UNL     1       1.020   9.001  21.962  0.00  0.00    +0.000 C 
ENDBRANCH   1  14
BRANCH   5  15
ATOM     15  C   UNL     1       2.417   6.552  20.104  0.00  0.00    +0.000 C 
BRANCH  15  16
ATOM     16  C   UNL     1       2.561   5.550  18.973  0.00  0.00    +0.000 A 
ATOM     17  C   UNL     1       1.688   4.446  18.933  0.00  0.00    +0.000 A 
ATOM     18  C   UNL     1       1.884   3.411  18.020  0.00  0.00    +0.000 A 
ATOM     19  C   UNL     1       2.961   3.454  17.134  0.00  0.00    +0.000 A 
ATOM     20  C   UNL     1       3.849   4.543  17.120  0.00  0.00    +0.000 A 
ATOM     21  C   UNL     1       3.613   5.586  18.044  0.00  0.00    +0.000 A 
BRANCH  20  22
ATOM     22  C   UNL     1       5.020   4.573  16.211  0.00  0.00    +0.000 A 
ATOM     23  C   UNL     1       6.272   5.073  16.622  0.00  0.00    +0.000 A 
ATOM     24  C   UNL     1       7.360   5.112  15.758  0.00  0.00    +0.000 A 
ATOM     25  C   UNL     1       7.243   4.648  14.449  0.00  0.00    +0.000 A 
ATOM     26  C   UNL     1       6.017   4.147  14.016  0.00  0.00    +0.000 A 
ATOM     27  C   UNL     1       4.921   4.120  14.881  0.00  0.00    +0.000 A 
ENDBRANCH  20  22
ENDBRANCH  15  16
ENDBRANCH   5  15
TORSDOF 5
ENDMDL
MODEL 6
REMARK VINA RESULT:      -8.1      3.515      9.573
REMARK  Name = 
REMARK  6 active torsions:
REMARK  status: ('A' for Active; 'I' for Inactive)
REMARK    1  A    between atoms: C_1  and  C_2
REMARK    2  A    between atoms: C_2  and  C_3
REMARK    3  A    between atoms: C_4  and  C_5
REMARK    4  A    between atoms: N_14  and  C_15
REMARK    5  A    between atoms: C_15  and  C_16
REMARK    6  A    between atoms: C_20  and  C_21
REMARK                            x       y       z     vdW  Elec       q    Type
REMARK                         _______ _______ _______ _____ _____    ______ ____
ROOT
ATOM      1  C   UNL     1       4.855   5.753  17.178  0.00  0.00    +0.000 A 
ATOM      2  C   UNL     1       4.916   4.594  16.400  0.00  0.00    +0.000 A 
ATOM      3  N   UNL     1       4.274   3.547  16.998  0.00  0.00    +0.000 NA
ATOM      4  C   UNL     1       3.741   4.047  18.078  0.00  0.00    +0.000 A 
ATOM      5  N   UNL     1       4.010   5.387  18.224  0.00  0.00    +0.000 N 
ENDROOT
BRANCH   2   6
ATOM      6  C   UNL     1       5.540   4.442  15.096  0.00  0.00    +0.000 A 
ATOM      7  C   UNL     1       6.898   4.711  14.909  0.00  0.00    +0.000 A 
ATOM      8  C   UNL     1       7.514   4.409  13.687  0.00  0.00    +0.000 A 
ATOM      9  C   UNL     1       6.767   3.860  12.644  0.00  0.00    +0.000 A 
ATOM     10 CL   UNL     1       7.527   3.409  11.170  0.00  0.00    +0.000 Cl
ATOM     11  C   UNL     1       5.411   3.618  12.806  0.00  0.00    +0.000 A 
ATOM     12  C   UNL     1       4.819   3.884  14.035  0.00  0.00    +0.000 A 
ENDBRANCH   2   6
BRANCH   1  14
ATOM     13  C   UNL     1       7.068   7.050  17.527  0.00  0.00    +0.000 C 
ATOM     14  C   UNL     1       5.650   7.014  16.979  0.00  0.00    +0.000 C 
ENDBRANCH   1  14
BRANCH   5  15
ATOM     15  C   UNL     1       3.477   6.089  19.393  0.00  0.00    +0.000 C 
BRANCH  15  16
ATOM     16  C   UNL     1       2.543   7.256  19.128  0.00  0.00    +0.000 A 
ATOM     17  C   UNL     1       2.566   7.865  17.859  0.00  0.00    +0.000 A 
ATOM     18  C   UNL     1       1.857   9.041  17.615  0.00  0.00    +0.000 A 
ATOM     19  C   UNL     1       1.120   9.637  18.639  0.00  0.00    +0.000 A 
ATOM     20  C   UNL     1       1.050   9.059  19.918  0.00  0.00    +0.000 A 
ATOM     21  C   UNL     1       1.762   7.857  20.128  0.00  0.00    +0.000 A 
BRANCH  20  22
ATOM     22  C   UNL     1       0.304   9.712  21.021  0.00  0.00    +0.000 A 
ATOM     23  C   UNL     1      -0.329  10.960  20.858  0.00  0.00    +0.000 A 
ATOM     24  C   UNL     1      -1.013  11.573  21.901  0.00  0.00    +0.000 A 
ATOM     25  C   UNL     1      -1.097  10.959  23.150  0.00  0.00    +0.000 A 
ATOM     26  C   UNL     1      -0.483   9.723  23.340  0.00  0.00    +0.000 A 
ATOM     27  C   UNL     1       0.216   9.115  22.293  0.00  0.00    +0.000 A 
ENDBRANCH  20  22
ENDBRANCH  15  16
ENDBRANCH   5  15
TORSDOF 5
ENDMDL
MODEL 7
REMARK VINA RESULT:      -8.1      1.225      2.193
REMARK  Name = 
REMARK  6 active torsions:
REMARK  status: ('A' for Active; 'I' for Inactive)
REMARK    1  A    between atoms: C_1  and  C_2
REMARK    2  A    between atoms: C_2  and  C_3
REMARK    3  A    between atoms: C_4  and  C_5
REMARK    4  A    between atoms: N_14  and  C_15
REMARK    5  A    between atoms: C_15  and  C_16
REMARK    6  A    between atoms: C_20  and  C_21
REMARK                            x       y       z     vdW  Elec       q    Type
REMARK                         _______ _______ _______ _____ _____    ______ ____
ROOT
ATOM      1  C   UNL     1       2.355   5.807  19.293  0.00  0.00    +0.000 A 
ATOM      2  C   UNL     1       1.808   6.061  20.554  0.00  0.00    +0.000 A 
ATOM      3  N   UNL     1       1.906   4.976  21.378  0.00  0.00    +0.000 NA
ATOM      4  C   UNL     1       2.578   4.091  20.696  0.00  0.00    +0.000 A 
ATOM      5  N   UNL     1       2.926   4.545  19.445  0.00  0.00    +0.000 N 
ENDROOT
BRANCH   2   6
ATOM      6  C   UNL     1       1.215   7.303  21.021  0.00  0.00    +0.000 A 
ATOM      7  C   UNL     1      -0.161   7.529  20.921  0.00  0.00    +0.000 A 
ATOM      8  C   UNL     1      -0.733   8.660  21.517  0.00  0.00    +0.000 A 
ATOM      9  C   UNL     1       0.071   9.578  22.194  0.00  0.00    +0.000 A 
ATOM     10 CL   UNL     1      -0.630  10.924  22.999  0.00  0.00    +0.000 Cl
ATOM     11  C   UNL     1       1.442   9.381  22.273  0.00  0.00    +0.000 A 
ATOM     12  C   UNL     1       1.994   8.236  21.713  0.00  0.00    +0.000 A 
ENDBRANCH   2   6
BRANCH   1  14
ATOM     13  C   UNL     1       3.274   7.698  17.782  0.00  0.00    +0.000 C 
ATOM     14  C   UNL     1       2.205   6.653  18.060  0.00  0.00    +0.000 C 
ENDBRANCH   1  14
BRANCH   5  15
ATOM     15  C   UNL     1       3.684   3.659  18.560  0.00  0.00    +0.000 C 
BRANCH  15  16
ATOM     16  C   UNL     1       4.955   4.222  17.948  0.00  0.00    +0.000 A 
ATOM     17  C   UNL     1       5.759   5.075  18.727  0.00  0.00    +0.000 A 
ATOM     18  C   UNL     1       6.840   5.752  18.164  0.00  0.00    +0.000 A 
ATOM     19  C   UNL     1       7.132   5.597  16.808  0.00  0.00    +0.000 A 
ATOM     20  C   UNL     1       6.372   4.743  15.992  0.00  0.00    +0.000 A 
ATOM     21  C   UNL     1       5.296   4.055  16.597  0.00  0.00    +0.000 A 
BRANCH  20  22
ATOM     22  C   UNL     1       6.652   4.608  14.543  0.00  0.00    +0.000 A 
ATOM     23  C   UNL     1       5.935   3.713  13.723  0.00  0.00    +0.000 A 
ATOM     24  C   UNL     1       6.214   3.582  12.368  0.00  0.00    +0.000 A 
ATOM     25  C   UNL     1       7.219   4.344  11.775  0.00  0.00    +0.000 A 
ATOM     26  C   UNL     1       7.944   5.239  12.560  0.00  0.00    +0.000 A 
ATOM     27  C   UNL     1       7.670   5.359  13.925  0.00  0.00    +0.000 A 
ENDBRANCH  20  22
ENDBRANCH  15  16
ENDBRANCH   5  15
TORSDOF 5
ENDMDL
MODEL 8
REMARK VINA RESULT:      -8.0      3.585      8.930
REMARK  Name = 
REMARK  6 active torsions:
REMARK  status: ('A' for Active; 'I' for Inactive)
REMARK    1  A    between atoms: C_1  and  C_2
REMARK    2  A    between atoms: C_2  and  C_3
REMARK    3  A    between atoms: C_4  and  C_5
REMARK    4  A    between atoms: N_14  and  C_15
REMARK    5  A    between atoms: C_15  and  C_16
REMARK    6  A    between atoms: C_20  and  C_21
REMARK                            x       y       z     vdW  Elec       q    Type
REMARK                         _______ _______ _______ _____ _____    ______ ____
ROOT
ATOM      1  C   UNL     1       2.374   7.327  19.301  0.00  0.00    +0.000 A 
ATOM      2  C   UNL     1       2.893   6.050  19.065  0.00  0.00    +0.000 A 
ATOM      3  N   UNL     1       2.598   5.187  20.082  0.00  0.00    +0.000 NA
ATOM      4  C   UNL     1       1.836   5.865  20.894  0.00  0.00    +0.000 A 
ATOM      5  N   UNL     1       1.618   7.151  20.459  0.00  0.00    +0.000 N 
ENDROOT
BRANCH   2   6
ATOM      6  C   UNL     1       3.640   5.606  17.900  0.00  0.00    +0.000 A 
ATOM      7  C   UNL     1       4.476   6.481  17.201  0.00  0.00    +0.000 A 
ATOM      8  C   UNL     1       5.306   5.997  16.181  0.00  0.00    +0.000 A 
ATOM      9  C   UNL     1       5.284   4.644  15.843  0.00  0.00    +0.000 A 
ATOM     10 CL   UNL     1       6.355   4.025  14.651  0.00  0.00    +0.000 Cl
ATOM     11  C   UNL     1       4.435   3.771  16.507  0.00  0.00    +0.000 A 
ATOM     12  C   UNL     1       3.645   4.253  17.545  0.00  0.00    +0.000 A 
ENDBRANCH   2   6
BRANCH   1  14
ATOM     13  C   UNL     1       1.781   8.995  17.413  0.00  0.00    +0.000 C 
ATOM     14  C   UNL     1       2.705   8.585  18.549  0.00  0.00    +0.000 C 
ENDBRANCH   1  14
BRANCH   5  15
ATOM     15  C   UNL     1       0.780   8.036  21.269  0.00  0.00    +0.000 C 
BRANCH  15  16
ATOM     16  C   UNL     1       0.377   9.361  20.647  0.00  0.00    +0.000 A 
ATOM     17  C   UNL     1       0.856  10.553  21.223  0.00  0.00    +0.000 A 
ATOM     18  C   UNL     1       0.384  11.794  20.800  0.00  0.00    +0.000 A 
ATOM     19  C   UNL     1      -0.585  11.869  19.799  0.00  0.00    +0.000 A 
ATOM     20  C   UNL     1      -1.082  10.710  19.178  0.00  0.00    +0.000 A 
ATOM     21  C   UNL     1      -0.569   9.468  19.614  0.00  0.00    +0.000 A 
BRANCH  20  22
ATOM     22  C   UNL     1      -2.143  10.782  18.145  0.00  0.00    +0.000 A 
ATOM     23  C   UNL     1      -3.301  11.566  18.317  0.00  0.00    +0.000 A 
ATOM     24  C   UNL     1      -4.298  11.616  17.349  0.00  0.00    +0.000 A 
ATOM     25  C   UNL     1      -4.176  10.887  16.168  0.00  0.00    +0.000 A 
ATOM     26  C   UNL     1      -3.040  10.104  15.969  0.00  0.00    +0.000 A 
ATOM     27  C   UNL     1      -2.045  10.046  16.949  0.00  0.00    +0.000 A 
ENDBRANCH  20  22
ENDBRANCH  15  16
ENDBRANCH   5  15
TORSDOF 5
ENDMDL
MODEL 9
REMARK VINA RESULT:      -8.0      1.788      3.725
REMARK  Name = 
REMARK  6 active torsions:
REMARK  status: ('A' for Active; 'I' for Inactive)
REMARK    1  A    between atoms: C_1  and  C_2
REMARK    2  A    between atoms: C_2  and  C_3
REMARK    3  A    between atoms: C_4  and  C_5
REMARK    4  A    between atoms: N_14  and  C_15
REMARK    5  A    between atoms: C_15  and  C_16
REMARK    6  A    between atoms: C_20  and  C_21
REMARK                            x       y       z     vdW  Elec       q    Type
REMARK                         _______ _______ _______ _____ _____    ______ ____
ROOT
ATOM      1  C   UNL     1       1.177   8.977  20.919  0.00  0.00    +0.000 A 
ATOM      2  C   UNL     1       0.957   9.969  19.959  0.00  0.00    +0.000 A 
ATOM      3  N   UNL     1       1.390   9.583  18.722  0.00  0.00    +0.000 NA
ATOM      4  C   UNL     1       1.787   8.350  18.870  0.00  0.00    +0.000 A 
ATOM      5  N   UNL     1       1.641   7.902  20.162  0.00  0.00    +0.000 N 
ENDROOT
BRANCH   2   6
ATOM      6  C   UNL     1       0.329  11.263  20.162  0.00  0.00    +0.000 A 
ATOM      7  C   UNL     1       1.074  12.372  20.573  0.00  0.00    +0.000 A 
ATOM      8  C   UNL     1       0.484  13.642  20.610  0.00  0.00    +0.000 A 
ATOM      9  C   UNL     1      -0.857  13.802  20.258  0.00  0.00    +0.000 A 
ATOM     10 CL   UNL     1      -1.568  15.366  20.221  0.00  0.00    +0.000 Cl
ATOM     11  C   UNL     1      -1.616  12.705  19.880  0.00  0.00    +0.000 A 
ATOM     12  C   UNL     1      -1.011  11.456  19.807  0.00  0.00    +0.000 A 
ENDBRANCH   2   6
BRANCH   1  14
ATOM     13  C   UNL     1      -0.311   9.324  23.008  0.00  0.00    +0.000 C 
ATOM     14  C   UNL     1       1.074   9.129  22.411  0.00  0.00    +0.000 C 
ENDBRANCH   1  14
BRANCH   5  15
ATOM     15  C   UNL     1       2.046   6.533  20.482  0.00  0.00    +0.000 C 
BRANCH  15  16
ATOM     16  C   UNL     1       2.250   5.585  19.314  0.00  0.00    +0.000 A 
ATOM     17  C   UNL     1       1.379   4.488  19.173  0.00  0.00    +0.000 A 
ATOM     18  C   UNL     1       1.623   3.496  18.224  0.00  0.00    +0.000 A 
ATOM     19  C   UNL     1       2.749   3.576  17.404  0.00  0.00    +0.000 A 
ATOM     20  C   UNL     1       3.639   4.659  17.492  0.00  0.00    +0.000 A 
ATOM     21  C   UNL     1       3.354   5.659  18.449  0.00  0.00    +0.000 A 
BRANCH  20  22
ATOM     22  C   UNL     1       4.860   4.726  16.653  0.00  0.00    +0.000 A 
ATOM     23  C   UNL     1       4.991   3.980  15.465  0.00  0.00    +0.000 A 
ATOM     24  C   UNL     1       6.145   4.037  14.692  0.00  0.00    +0.000 A 
ATOM     25  C   UNL     1       7.214   4.845  15.074  0.00  0.00    +0.000 A 
ATOM     26  C   UNL     1       7.113   5.594  16.244  0.00  0.00    +0.000 A 
ATOM     27  C   UNL     1       5.957   5.526  17.026  0.00  0.00    +0.000 A 
ENDBRANCH  20  22
ENDBRANCH  15  16
ENDBRANCH   5  15
TORSDOF 5
ENDMDL
