MODEL 1
REMARK VINA RESULT:      -7.5      0.000      0.000
REMARK  Name = 
REMARK  4 active torsions:
REMARK  status: ('A' for Active; 'I' for Inactive)
REMARK    1  A    between atoms: C_1  and  C_2
REMARK    2  A    between atoms: C_6  and  C_7
REMARK    3  A    between atoms: N_11  and  C_12
REMARK    4  A    between atoms: N_19  and  C_20
REMARK                            x       y       z     vdW  Elec       q    Type
REMARK                         _______ _______ _______ _____ _____    ______ ____
ROOT
ATOM      1  C   UNL     1      -3.683  13.208  20.609  0.00  0.00    +0.000 A 
ATOM      2  C   UNL     1      -3.728  12.311  19.545  0.00  0.00    +0.000 A 
ATOM      3  C   UNL     1      -5.093  12.255  19.172  0.00  0.00    +0.000 A 
ATOM      4  N   UNL     1      -5.864  13.056  19.893  0.00  0.00    +0.000 NA
ATOM      5  N   UNL     1      -4.984  13.677  20.710  0.00  0.00    +0.000 N 
ATOM      6  C   UNL     1      -5.513  14.772  21.489  0.00  0.00    +0.000 C 
ATOM      7  C   UNL     1      -5.606  11.382  18.087  0.00  0.00    +0.000 C 
ATOM      8  C   UNL     1      -4.511  11.172  17.030  0.00  0.00    +0.000 C 
ATOM      9  C   UNL     1      -3.145  10.941  17.630  0.00  0.00    +0.000 A 
ATOM     10  C   UNL     1      -2.200  10.194  16.978  0.00  0.00    +0.000 A 
ATOM     11  N   UNL     1      -0.969   9.996  17.461  0.00  0.00    +0.000 NA
ATOM     12  C   UNL     1      -0.654  10.576  18.635  0.00  0.00    +0.000 A 
ATOM     13  N   UNL     1       0.636  10.390  19.143  0.00  0.00    +0.000 N 
ATOM     14  N   UNL     1      -1.498  11.343  19.345  0.00  0.00    +0.000 NA
ATOM     15  C   UNL     1      -2.729  11.523  18.830  0.00  0.00    +0.000 A 
ATOM     16  H   UNL     1       0.680  10.831  20.051  0.00  0.00    +0.000 HD
ENDROOT
BRANCH   1  22
ATOM     17  C   UNL     1      -2.075  11.750  23.132  0.00  0.00    +0.000 C 
ATOM     18  C   UNL     1      -1.871  13.063  22.467  0.00  0.00    +0.000 A 
ATOM     19  C   UNL     1      -0.828  13.967  22.833  0.00  0.00    +0.000 A 
ATOM     20  C   UNL     1      -0.922  15.032  21.985  0.00  0.00    +0.000 A 
ATOM     21  O   UNL     1      -1.970  14.868  21.145  0.00  0.00    +0.000 OA
ATOM     22  C   UNL     1      -2.563  13.656  21.405  0.00  0.00    +0.000 A 
ENDBRANCH   1  22
BRANCH  13  23
ATOM     23  C   UNL     1       1.406   9.214  19.039  0.00  0.00    +0.000 A 
ATOM     24  C   UNL     1       1.396   8.291  20.091  0.00  0.00    +0.000 A 
ATOM     25  C   UNL     1       2.144   7.111  20.019  0.00  0.00    +0.000 A 
ATOM     26  C   UNL     1       2.890   6.824  18.877  0.00  0.00    +0.000 A 
ATOM     27  C   UNL     1       2.889   7.717  17.810  0.00  0.00    +0.000 A 
ATOM     28  C   UNL     1       2.150   8.900  17.892  0.00  0.00    +0.000 A 
ENDBRANCH  13  23
TORSDOF 2
ENDMDL
MODEL 2
REMARK VINA RESULT:      -7.3      4.935      9.990
REMARK  Name = 
REMARK  4 active torsions:
REMARK  status: ('A' for Active; 'I' for Inactive)
REMARK    1  A    between atoms: C_1  and  C_2
REMARK    2  A    between atoms: C_6  and  C_7
REMARK    3  A    between atoms: N_11  and  C_12
REMARK    4  A    between atoms: N_19  and  C_20
REMARK                            x       y       z     vdW  Elec       q    Type
REMARK                         _______ _______ _______ _____ _____    ______ ____
ROOT
ATOM      1  C   UNL     1       4.951   4.860  17.234  0.00  0.00    +0.000 A 
ATOM      2  C   UNL     1       3.793   4.431  17.876  0.00  0.00    +0.000 A 
ATOM      3  C   UNL     1       3.481   3.188  17.276  0.00  0.00    +0.000 A 
ATOM      4  N   UNL     1       4.360   2.818  16.356  0.00  0.00    +0.000 NA
ATOM      5  N   UNL     1       5.280   3.807  16.393  0.00  0.00    +0.000 N 
ATOM      6  C   UNL     1       6.482   3.578  15.627  0.00  0.00    +0.000 C 
ATOM      7  C   UNL     1       2.286   2.385  17.638  0.00  0.00    +0.000 C 
ATOM      8  C   UNL     1       1.914   2.645  19.105  0.00  0.00    +0.000 C 
ATOM      9  C   UNL     1       2.016   4.100  19.494  0.00  0.00    +0.000 A 
ATOM     10  C   UNL     1       1.228   4.630  20.481  0.00  0.00    +0.000 A 
ATOM     11  N   UNL     1       1.313   5.904  20.875  0.00  0.00    +0.000 NA
ATOM     12  C   UNL     1       2.230   6.687  20.276  0.00  0.00    +0.000 A 
ATOM     13  N   UNL     1       2.342   8.018  20.692  0.00  0.00    +0.000 N 
ATOM     14  N   UNL     1       3.066   6.264  19.313  0.00  0.00    +0.000 NA
ATOM     15  C   UNL     1       2.954   4.975  18.939  0.00  0.00    +0.000 A 
ATOM     16  H   UNL     1       3.022   8.474  20.099  0.00  0.00    +0.000 HD
ENDROOT
BRANCH   1  22
ATOM     17  C   UNL     1       7.857   5.372  18.774  0.00  0.00    +0.000 C 
ATOM     18  C   UNL     1       6.950   6.304  18.057  0.00  0.00    +0.000 A 
ATOM     19  C   UNL     1       7.240   7.691  17.881  0.00  0.00    +0.000 A 
ATOM     20  C   UNL     1       6.217   8.211  17.144  0.00  0.00    +0.000 A 
ATOM     21  O   UNL     1       5.297   7.255  16.883  0.00  0.00    +0.000 OA
ATOM     22  C   UNL     1       5.729   6.065  17.416  0.00  0.00    +0.000 A 
ENDBRANCH   1  22
BRANCH  13  23
ATOM     23  C   UNL     1       1.278   8.853  21.091  0.00  0.00    +0.000 A 
ATOM     24  C   UNL     1       1.013   9.025  22.455  0.00  0.00    +0.000 A 
ATOM     25  C   UNL     1      -0.031   9.851  22.885  0.00  0.00    +0.000 A 
ATOM     26  C   UNL     1      -0.806  10.542  21.955  0.00  0.00    +0.000 A 
ATOM     27  C   UNL     1      -0.537  10.405  20.596  0.00  0.00    +0.000 A 
ATOM     28  C   UNL     1       0.498   9.569  20.171  0.00  0.00    +0.000 A 
ENDBRANCH  13  23
TORSDOF 2
ENDMDL
MODEL 3
REMARK VINA RESULT:      -7.2      0.708      1.491
REMARK  Name = 
REMARK  4 active torsions:
REMARK  status: ('A' for Active; 'I' for Inactive)
REMARK    1  A    between atoms: C_1  and  C_2
REMARK    2  A    between atoms: C_6  and  C_7
REMARK    3  A    between atoms: N_11  and  C_12
REMARK    4  A    between atoms: N_19  and  C_20
REMARK                            x       y       z     vdW  Elec       q    Type
REMARK                         _______ _______ _______ _____ _____    ______ ____
ROOT
ATOM      1  C   UNL     1      -3.496  13.165  20.583  0.00  0.00    +0.000 A 
ATOM      2  C   UNL     1      -3.559  12.276  19.514  0.00  0.00    +0.000 A 
ATOM      3  C   UNL     1      -4.921  12.264  19.128  0.00  0.00    +0.000 A 
ATOM      4  N   UNL     1      -5.673  13.085  19.846  0.00  0.00    +0.000 NA
ATOM      5  N   UNL     1      -4.783  13.674  20.674  0.00  0.00    +0.000 N 
ATOM      6  C   UNL     1      -5.285  14.781  21.454  0.00  0.00    +0.000 C 
ATOM      7  C   UNL     1      -5.451  11.413  18.033  0.00  0.00    +0.000 C 
ATOM      8  C   UNL     1      -4.353  11.175  16.985  0.00  0.00    +0.000 C 
ATOM      9  C   UNL     1      -3.000  10.898  17.596  0.00  0.00    +0.000 A 
ATOM     10  C   UNL     1      -2.073  10.126  16.950  0.00  0.00    +0.000 A 
ATOM     11  N   UNL     1      -0.854   9.887  17.442  0.00  0.00    +0.000 NA
ATOM     12  C   UNL     1      -0.532  10.450  18.623  0.00  0.00    +0.000 A 
ATOM     13  N   UNL     1       0.748  10.223  19.141  0.00  0.00    +0.000 N 
ATOM     14  N   UNL     1      -1.358  11.240  19.329  0.00  0.00    +0.000 NA
ATOM     15  C   UNL     1      -2.578  11.461  18.804  0.00  0.00    +0.000 A 
ATOM     16  H   UNL     1       0.796  10.657  20.053  0.00  0.00    +0.000 HD
ENDROOT
BRANCH   1  22
ATOM     17  C   UNL     1      -0.809  14.978  19.827  0.00  0.00    +0.000 C 
ATOM     18  C   UNL     1      -1.232  14.336  21.097  0.00  0.00    +0.000 A 
ATOM     19  C   UNL     1      -0.485  14.440  22.309  0.00  0.00    +0.000 A 
ATOM     20  C   UNL     1      -1.195  13.771  23.262  0.00  0.00    +0.000 A 
ATOM     21  O   UNL     1      -2.310  13.229  22.720  0.00  0.00    +0.000 OA
ATOM     22  C   UNL     1      -2.370  13.575  21.391  0.00  0.00    +0.000 A 
ENDBRANCH   1  22
BRANCH  13  23
ATOM     23  C   UNL     1       1.482   9.023  19.039  0.00  0.00    +0.000 A 
ATOM     24  C   UNL     1       2.250   8.783  17.893  0.00  0.00    +0.000 A 
ATOM     25  C   UNL     1       2.994   7.606  17.761  0.00  0.00    +0.000 A 
ATOM     26  C   UNL     1       3.005   6.665  18.790  0.00  0.00    +0.000 A 
ATOM     27  C   UNL     1       2.270   6.902  19.948  0.00  0.00    +0.000 A 
ATOM     28  C   UNL     1       1.517   8.073  20.070  0.00  0.00    +0.000 A 
ENDBRANCH  13  23
TORSDOF 2
ENDMDL
MODEL 4
REMARK VINA RESULT:      -7.0      0.989      1.388
REMARK  Name = 
REMARK  4 active torsions:
REMARK  status: ('A' for Active; 'I' for Inactive)
REMARK    1  A    between atoms: C_1  and  C_2
REMARK    2  A    between atoms: C_6  and  C_7
REMARK    3  A    between atoms: N_11  and  C_12
REMARK    4  A    between atoms: N_19  and  C_20
REMARK                            x       y       z     vdW  Elec       q    Type
REMARK                         _______ _______ _______ _____ _____    ______ ____
ROOT
ATOM      1  C   UNL     1      -4.583  13.602  20.985  0.00  0.00    +0.000 A 
ATOM      2  C   UNL     1      -4.575  12.765  19.873  0.00  0.00    +0.000 A 
ATOM      3  C   UNL     1      -5.926  12.699  19.455  0.00  0.00    +0.000 A 
ATOM      4  N   UNL     1      -6.737  13.441  20.194  0.00  0.00    +0.000 NA
ATOM      5  N   UNL     1      -5.897  14.035  21.070  0.00  0.00    +0.000 N 
ATOM      6  C   UNL     1      -6.475  15.073  21.891  0.00  0.00    +0.000 C 
ATOM      7  C   UNL     1      -6.385  11.875  18.309  0.00  0.00    +0.000 C 
ATOM      8  C   UNL     1      -5.254  11.749  17.277  0.00  0.00    +0.000 C 
ATOM      9  C   UNL     1      -3.901  11.516  17.905  0.00  0.00    +0.000 A 
ATOM     10  C   UNL     1      -2.919  10.828  17.244  0.00  0.00    +0.000 A 
ATOM     11  N   UNL     1      -1.699  10.631  17.753  0.00  0.00    +0.000 NA
ATOM     12  C   UNL     1      -1.434  11.152  18.966  0.00  0.00    +0.000 A 
ATOM     13  N   UNL     1      -0.154  10.968  19.503  0.00  0.00    +0.000 N 
ATOM     14  N   UNL     1      -2.316  11.860  19.690  0.00  0.00    +0.000 NA
ATOM     15  C   UNL     1      -3.536  12.040  19.148  0.00  0.00    +0.000 A 
ATOM     16  H   UNL     1      -0.149  11.359  20.435  0.00  0.00    +0.000 HD
ENDROOT
BRANCH   1  22
ATOM     17  C   UNL     1      -3.164  12.138  23.615  0.00  0.00    +0.000 C 
ATOM     18  C   UNL     1      -2.885  13.434  22.947  0.00  0.00    +0.000 A 
ATOM     19  C   UNL     1      -1.841  14.315  23.361  0.00  0.00    +0.000 A 
ATOM     20  C   UNL     1      -1.856  15.369  22.495  0.00  0.00    +0.000 A 
ATOM     21  O   UNL     1      -2.857  15.223  21.598  0.00  0.00    +0.000 OA
ATOM     22  C   UNL     1      -3.498  14.031  21.838  0.00  0.00    +0.000 A 
ENDBRANCH   1  22
BRANCH  13  23
ATOM     23  C   UNL     1       0.647   9.817  19.360  0.00  0.00    +0.000 A 
ATOM     24  C   UNL     1       1.197   9.514  18.109  0.00  0.00    +0.000 A 
ATOM     25  C   UNL     1       2.001   8.382  17.933  0.00  0.00    +0.000 A 
ATOM     26  C   UNL     1       2.290   7.554  19.016  0.00  0.00    +0.000 A 
ATOM     27  C   UNL     1       1.774   7.857  20.273  0.00  0.00    +0.000 A 
ATOM     28  C   UNL     1       0.962   8.981  20.441  0.00  0.00    +0.000 A 
ENDBRANCH  13  23
TORSDOF 2
ENDMDL
MODEL 5
REMARK VINA RESULT:      -6.9      1.268      1.604
REMARK  Name = 
REMARK  4 active torsions:
REMARK  status: ('A' for Active; 'I' for Inactive)
REMARK    1  A    between atoms: C_1  and  C_2
REMARK    2  A    between atoms: C_6  and  C_7
REMARK    3  A    between atoms: N_11  and  C_12
REMARK    4  A    between atoms: N_19  and  C_20
REMARK                            x       y       z     vdW  Elec       q    Type
REMARK                         _______ _______ _______ _____ _____    ______ ____
ROOT
ATOM      1  C   UNL     1      -4.869  13.140  20.854  0.00  0.00    +0.000 A 
ATOM      2  C   UNL     1      -4.717  12.443  19.659  0.00  0.00    +0.000 A 
ATOM      3  C   UNL     1      -6.023  12.353  19.120  0.00  0.00    +0.000 A 
ATOM      4  N   UNL     1      -6.937  12.957  19.865  0.00  0.00    +0.000 NA
ATOM      5  N   UNL     1      -6.211  13.487  20.874  0.00  0.00    +0.000 N 
ATOM      6  C   UNL     1      -6.919  14.387  21.754  0.00  0.00    +0.000 C 
ATOM      7  C   UNL     1      -6.334  11.648  17.851  0.00  0.00    +0.000 C 
ATOM      8  C   UNL     1      -5.119  11.708  16.914  0.00  0.00    +0.000 C 
ATOM      9  C   UNL     1      -3.808  11.477  17.628  0.00  0.00    +0.000 A 
ATOM     10  C   UNL     1      -2.734  10.927  16.981  0.00  0.00    +0.000 A 
ATOM     11  N   UNL     1      -1.548  10.739  17.568  0.00  0.00    +0.000 NA
ATOM     12  C   UNL     1      -1.415  11.125  18.852  0.00  0.00    +0.000 A 
ATOM     13  N   UNL     1      -0.174  10.949  19.474  0.00  0.00    +0.000 N 
ATOM     14  N   UNL     1      -2.398  11.692  19.572  0.00  0.00    +0.000 NA
ATOM     15  C   UNL     1      -3.578  11.868  18.950  0.00  0.00    +0.000 A 
ATOM     16  H   UNL     1      -0.269  11.226  20.441  0.00  0.00    +0.000 HD
ENDROOT
BRANCH   1  22
ATOM     17  C   UNL     1      -2.467  15.443  20.767  0.00  0.00    +0.000 C 
ATOM     18  C   UNL     1      -2.870  14.487  21.830  0.00  0.00    +0.000 A 
ATOM     19  C   UNL     1      -2.239  14.434  23.110  0.00  0.00    +0.000 A 
ATOM     20  C   UNL     1      -2.898  13.479  23.828  0.00  0.00    +0.000 A 
ATOM     21  O   UNL     1      -3.866  12.912  23.073  0.00  0.00    +0.000 OA
ATOM     22  C   UNL     1      -3.887  13.524  21.843  0.00  0.00    +0.000 A 
ENDBRANCH   1  22
BRANCH  13  23
ATOM     23  C   UNL     1       0.708   9.869  19.271  0.00  0.00    +0.000 A 
ATOM     24  C   UNL     1       0.904   8.938  20.298  0.00  0.00    +0.000 A 
ATOM     25  C   UNL     1       1.769   7.852  20.128  0.00  0.00    +0.000 A 
ATOM     26  C   UNL     1       2.427   7.664  18.914  0.00  0.00    +0.000 A 
ATOM     27  C   UNL     1       2.221   8.564  17.871  0.00  0.00    +0.000 A 
ATOM     28  C   UNL     1       1.367   9.655  18.051  0.00  0.00    +0.000 A 
ENDBRANCH  13  23
TORSDOF 2
ENDMDL
MODEL 6
REMARK VINA RESULT:      -6.9      1.498      1.782
REMARK  Name = 
REMARK  4 active torsions:
REMARK  status: ('A' for Active; 'I' for Inactive)
REMARK    1  A    between atoms: C_1  and  C_2
REMARK    2  A    between atoms: C_6  and  C_7
REMARK    3  A    between atoms: N_11  and  C_12
REMARK    4  A    between atoms: N_19  and  C_20
REMARK                            x       y       z     vdW  Elec       q    Type
REMARK                         _______ _______ _______ _____ _____    ______ ____
ROOT
ATOM      1  C   UNL     1      -5.225  13.511  21.467  0.00  0.00    +0.000 A 
ATOM      2  C   UNL     1      -5.164  12.753  20.301  0.00  0.00    +0.000 A 
ATOM      3  C   UNL     1      -6.513  12.576  19.909  0.00  0.00    +0.000 A 
ATOM      4  N   UNL     1      -7.373  13.182  20.713  0.00  0.00    +0.000 NA
ATOM      5  N   UNL     1      -6.574  13.801  21.610  0.00  0.00    +0.000 N 
ATOM      6  C   UNL     1      -7.230  14.719  22.511  0.00  0.00    +0.000 C 
ATOM      7  C   UNL     1      -6.919  11.786  18.720  0.00  0.00    +0.000 C 
ATOM      8  C   UNL     1      -5.811  11.844  17.657  0.00  0.00    +0.000 C 
ATOM      9  C   UNL     1      -4.425  11.710  18.239  0.00  0.00    +0.000 A 
ATOM     10  C   UNL     1      -3.397  11.170  17.512  0.00  0.00    +0.000 A 
ATOM     11  N   UNL     1      -2.150  11.066  17.980  0.00  0.00    +0.000 NA
ATOM     12  C   UNL     1      -1.904  11.531  19.220  0.00  0.00    +0.000 A 
ATOM     13  N   UNL     1      -0.598  11.445  19.716  0.00  0.00    +0.000 N 
ATOM     14  N   UNL     1      -2.833  12.097  20.009  0.00  0.00    +0.000 NA
ATOM     15  C   UNL     1      -4.079  12.186  19.507  0.00  0.00    +0.000 A 
ATOM     16  H   UNL     1      -0.606  11.773  20.672  0.00  0.00    +0.000 HD
ENDROOT
BRANCH   1  22
ATOM     17  C   UNL     1      -4.279  12.559  24.512  0.00  0.00    +0.000 C 
ATOM     18  C   UNL     1      -3.749  13.609  23.605  0.00  0.00    +0.000 A 
ATOM     19  C   UNL     1      -2.622  14.423  23.930  0.00  0.00    +0.000 A 
ATOM     20  C   UNL     1      -2.401  15.229  22.851  0.00  0.00    +0.000 A 
ATOM     21  O   UNL     1      -3.332  14.998  21.898  0.00  0.00    +0.000 OA
ATOM     22  C   UNL     1      -4.166  13.992  22.324  0.00  0.00    +0.000 A 
ENDBRANCH   1  22
BRANCH  13  23
ATOM     23  C   UNL     1       0.310  10.393  19.478  0.00  0.00    +0.000 A 
ATOM     24  C   UNL     1       0.484   9.402  20.451  0.00  0.00    +0.000 A 
ATOM     25  C   UNL     1       1.373   8.341  20.245  0.00  0.00    +0.000 A 
ATOM     26  C   UNL     1       2.079   8.242  19.047  0.00  0.00    +0.000 A 
ATOM     27  C   UNL     1       1.896   9.204  18.057  0.00  0.00    +0.000 A 
ATOM     28  C   UNL     1       1.017  10.268  18.273  0.00  0.00    +0.000 A 
ENDBRANCH  13  23
TORSDOF 2
ENDMDL
MODEL 7
REMARK VINA RESULT:      -6.8      3.098      5.502
REMARK  Name = 
REMARK  4 active torsions:
REMARK  status: ('A' for Active; 'I' for Inactive)
REMARK    1  A    between atoms: C_1  and  C_2
REMARK    2  A    between atoms: C_6  and  C_7
REMARK    3  A    between atoms: N_11  and  C_12
REMARK    4  A    between atoms: N_19  and  C_20
REMARK                            x       y       z     vdW  Elec       q    Type
REMARK                         _______ _______ _______ _____ _____    ______ ____
ROOT
ATOM      1  C   UNL     1      -4.368  11.736  18.775  0.00  0.00    +0.000 A 
ATOM      2  C   UNL     1      -3.799  12.401  19.857  0.00  0.00    +0.000 A 
ATOM      3  C   UNL     1      -4.872  12.625  20.753  0.00  0.00    +0.000 A 
ATOM      4  N   UNL     1      -6.023  12.130  20.323  0.00  0.00    +0.000 NA
ATOM      5  N   UNL     1      -5.685  11.535  19.158  0.00  0.00    +0.000 N 
ATOM      6  C   UNL     1      -6.711  10.724  18.545  0.00  0.00    +0.000 C 
ATOM      7  C   UNL     1      -4.720  13.347  22.041  0.00  0.00    +0.000 C 
ATOM      8  C   UNL     1      -3.296  13.149  22.581  0.00  0.00    +0.000 C 
ATOM      9  C   UNL     1      -2.237  13.246  21.510  0.00  0.00    +0.000 A 
ATOM     10  C   UNL     1      -0.968  13.671  21.800  0.00  0.00    +0.000 A 
ATOM     11  N   UNL     1       0.005  13.738  20.886  0.00  0.00    +0.000 NA
ATOM     12  C   UNL     1      -0.287  13.352  19.629  0.00  0.00    +0.000 A 
ATOM     13  N   UNL     1       0.727  13.400  18.667  0.00  0.00    +0.000 N 
ATOM     14  N   UNL     1      -1.491  12.900  19.242  0.00  0.00    +0.000 NA
ATOM     15  C   UNL     1      -2.448  12.845  20.188  0.00  0.00    +0.000 A 
ATOM     16  H   UNL     1       0.324  13.145  17.776  0.00  0.00    +0.000 HD
ENDROOT
BRANCH   1  22
ATOM     17  C   UNL     1      -1.769   9.722  18.259  0.00  0.00    +0.000 C 
ATOM     18  C   UNL     1      -2.676  10.414  17.308  0.00  0.00    +0.000 A 
ATOM     19  C   UNL     1      -2.572  10.275  15.891  0.00  0.00    +0.000 A 
ATOM     20  C   UNL     1      -3.589  11.009  15.353  0.00  0.00    +0.000 A 
ATOM     21  O   UNL     1      -4.292  11.621  16.333  0.00  0.00    +0.000 OA
ATOM     22  C   UNL     1      -3.766  11.259  17.550  0.00  0.00    +0.000 A 
ENDBRANCH   1  22
BRANCH  13  23
ATOM     23  C   UNL     1       1.739  14.378  18.578  0.00  0.00    +0.000 A 
ATOM     24  C   UNL     1       3.069  13.977  18.403  0.00  0.00    +0.000 A 
ATOM     25  C   UNL     1       4.097  14.921  18.306  0.00  0.00    +0.000 A 
ATOM     26  C   UNL     1       3.803  16.283  18.350  0.00  0.00    +0.000 A 
ATOM     27  C   UNL     1       2.482  16.699  18.494  0.00  0.00    +0.000 A 
ATOM     28  C   UNL     1       1.461  15.753  18.604  0.00  0.00    +0.000 A 
ENDBRANCH  13  23
TORSDOF 2
ENDMDL
MODEL 8
REMARK VINA RESULT:      -6.7      2.188      2.882
REMARK  Name = 
REMARK  4 active torsions:
REMARK  status: ('A' for Active; 'I' for Inactive)
REMARK    1  A    between atoms: C_1  and  C_2
REMARK    2  A    between atoms: C_6  and  C_7
REMARK    3  A    between atoms: N_11  and  C_12
REMARK    4  A    between atoms: N_19  and  C_20
REMARK                            x       y       z     vdW  Elec       q    Type
REMARK                         _______ _______ _______ _____ _____    ______ ____
ROOT
ATOM      1  C   UNL     1      -5.840  13.276  22.102  0.00  0.00    +0.000 A 
ATOM      2  C   UNL     1      -5.795  12.554  20.913  0.00  0.00    +0.000 A 
ATOM      3  C   UNL     1      -7.092  12.003  20.770  0.00  0.00    +0.000 A 
ATOM      4  N   UNL     1      -7.916  12.352  21.747  0.00  0.00    +0.000 NA
ATOM      5  N   UNL     1      -7.163  13.178  22.505  0.00  0.00    +0.000 N 
ATOM      6  C   UNL     1      -7.864  13.885  23.552  0.00  0.00    +0.000 C 
ATOM      7  C   UNL     1      -7.482  11.119  19.644  0.00  0.00    +0.000 C 
ATOM      8  C   UNL     1      -6.657  11.473  18.398  0.00  0.00    +0.000 C 
ATOM      9  C   UNL     1      -5.203  11.738  18.706  0.00  0.00    +0.000 A 
ATOM     10  C   UNL     1      -4.224  11.500  17.778  0.00  0.00    +0.000 A 
ATOM     11  N   UNL     1      -2.932  11.755  18.001  0.00  0.00    +0.000 NA
ATOM     12  C   UNL     1      -2.592  12.282  19.193  0.00  0.00    +0.000 A 
ATOM     13  N   UNL     1      -1.244  12.570  19.433  0.00  0.00    +0.000 N 
ATOM     14  N   UNL     1      -3.473  12.573  20.165  0.00  0.00    +0.000 NA
ATOM     15  C   UNL     1      -4.767  12.306  19.907  0.00  0.00    +0.000 A 
ATOM     16  H   UNL     1      -1.160  12.892  20.388  0.00  0.00    +0.000 HD
ENDROOT
BRANCH   1  22
ATOM     17  C   UNL     1      -4.001  12.591  24.790  0.00  0.00    +0.000 C 
ATOM     18  C   UNL     1      -4.026  13.777  23.896  0.00  0.00    +0.000 A 
ATOM     19  C   UNL     1      -3.153  14.895  24.060  0.00  0.00    +0.000 A 
ATOM     20  C   UNL     1      -3.430  15.757  23.040  0.00  0.00    +0.000 A 
ATOM     21  O   UNL     1      -4.436  15.270  22.277  0.00  0.00    +0.000 OA
ATOM     22  C   UNL     1      -4.812  14.043  22.768  0.00  0.00    +0.000 A 
ENDBRANCH   1  22
BRANCH  13  23
ATOM     23  C   UNL     1      -0.143  11.812  18.985  0.00  0.00    +0.000 A 
ATOM     24  C   UNL     1      -0.315  10.453  18.697  0.00  0.00    +0.000 A 
ATOM     25  C   UNL     1       0.755   9.673  18.245  0.00  0.00    +0.000 A 
ATOM     26  C   UNL     1       2.007  10.251  18.046  0.00  0.00    +0.000 A 
ATOM     27  C   UNL     1       2.189  11.608  18.300  0.00  0.00    +0.000 A 
ATOM     28  C   UNL     1       1.121  12.380  18.763  0.00  0.00    +0.000 A 
ENDBRANCH  13  23
TORSDOF 2
ENDMDL
MODEL 9
REMARK VINA RESULT:      -6.7      2.303      3.339
REMARK  Name = 
REMARK  4 active torsions:
REMARK  status: ('A' for Active; 'I' for Inactive)
REMARK    1  A    between atoms: C_1  and  C_2
REMARK    2  A    between atoms: C_6  and  C_7
REMARK    3  A    between atoms: N_11  and  C_12
REMARK    4  A    between atoms: N_19  and  C_20
REMARK                            x       y       z     vdW  Elec       q    Type
REMARK                         _______ _______ _______ _____ _____    ______ ____
ROOT
ATOM      1  C   UNL     1      -5.812  13.158  22.529  0.00  0.00    +0.000 A 
ATOM      2  C   UNL     1      -5.810  12.485  21.311  0.00  0.00    +0.000 A 
ATOM      3  C   UNL     1      -7.110  11.936  21.194  0.00  0.00    +0.000 A 
ATOM      4  N   UNL     1      -7.899  12.243  22.214  0.00  0.00    +0.000 NA
ATOM      5  N   UNL     1      -7.119  13.040  22.977  0.00  0.00    +0.000 N 
ATOM      6  C   UNL     1      -7.781  13.702  24.076  0.00  0.00    +0.000 C 
ATOM      7  C   UNL     1      -7.541  11.097  20.048  0.00  0.00    +0.000 C 
ATOM      8  C   UNL     1      -6.764  11.504  18.788  0.00  0.00    +0.000 C 
ATOM      9  C   UNL     1      -5.300  11.761  19.052  0.00  0.00    +0.000 A 
ATOM     10  C   UNL     1      -4.356  11.564  18.079  0.00  0.00    +0.000 A 
ATOM     11  N   UNL     1      -3.057  11.813  18.264  0.00  0.00    +0.000 NA
ATOM     12  C   UNL     1      -2.674  12.293  19.463  0.00  0.00    +0.000 A 
ATOM     13  N   UNL     1      -1.318  12.575  19.664  0.00  0.00    +0.000 N 
ATOM     14  N   UNL     1      -3.518  12.542  20.477  0.00  0.00    +0.000 NA
ATOM     15  C   UNL     1      -4.820  12.281  20.257  0.00  0.00    +0.000 A 
ATOM     16  H   UNL     1      -1.198  12.859  20.626  0.00  0.00    +0.000 HD
ENDROOT
BRANCH   1  22
ATOM     17  C   UNL     1      -5.057  16.399  22.459  0.00  0.00    +0.000 C 
ATOM     18  C   UNL     1      -4.425  15.261  23.173  0.00  0.00    +0.000 A 
ATOM     19  C   UNL     1      -3.305  15.414  24.046  0.00  0.00    +0.000 A 
ATOM     20  C   UNL     1      -3.034  14.176  24.550  0.00  0.00    +0.000 A 
ATOM     21  O   UNL     1      -3.880  13.261  24.024  0.00  0.00    +0.000 OA
ATOM     22  C   UNL     1      -4.761  13.901  23.186  0.00  0.00    +0.000 A 
ENDBRANCH   1  22
BRANCH  13  23
ATOM     23  C   UNL     1      -0.233  11.839  19.144  0.00  0.00    +0.000 A 
ATOM     24  C   UNL     1       0.935  12.512  18.765  0.00  0.00    +0.000 A 
ATOM     25  C   UNL     1       2.032  11.812  18.252  0.00  0.00    +0.000 A 
ATOM     26  C   UNL     1       1.986  10.423  18.139  0.00  0.00    +0.000 A 
ATOM     27  C   UNL     1       0.843   9.736  18.538  0.00  0.00    +0.000 A 
ATOM     28  C   UNL     1      -0.255  10.441  19.038  0.00  0.00    +0.000 A 
ENDBRANCH  13  23
TORSDOF 2
ENDMDL
