MODEL 1
REMARK VINA RESULT:      -7.1      0.000      0.000
REMARK  Name = 
REMARK  6 active torsions:
REMARK  status: ('A' for Active; 'I' for Inactive)
REMARK    1  A    between atoms: C_1  and  C_2
REMARK    2  A    between atoms: C_2  and  C_3
REMARK    3  A    between atoms: C_2  and  N_4
REMARK    4  A    between atoms: N_12  and  C_13
REMARK    5  A    between atoms: C_13  and  C_14
REMARK    6  A    between atoms: N_16  and  C_17
REMARK                            x       y       z     vdW  Elec       q    Type
REMARK                         _______ _______ _______ _____ _____    ______ ____
ROOT
ATOM      1  N   UNL     1       0.145  10.832  21.590  0.00  0.00    +0.000 N 
ATOM      2  N   UNL     1       0.396  10.850  20.236  0.00  0.00    +0.000 NA
ATOM      3  C   UNL     1       0.957   9.809  19.705  0.00  0.00    +0.000 A 
ATOM      4  C   UNL     1       1.363   8.603  20.457  0.00  0.00    +0.000 A 
ATOM      5  C   UNL     1       1.123   8.614  21.771  0.00  0.00    +0.000 A 
ATOM      6  C   UNL     1       0.504   9.783  22.425  0.00  0.00    +0.000 A 
ATOM      7  O   UNL     1       0.352   9.760  23.644  0.00  0.00    +0.000 OA
ATOM      8  C   UNL     1       2.042   7.476  19.750  0.00  0.00    +0.000 C 
ATOM      9  N   UNL     1       1.873   7.526  18.301  0.00  0.00    +0.000 NA
ATOM     10  C   UNL     1       2.191   8.839  17.747  0.00  0.00    +0.000 C 
ATOM     11  C   UNL     1       1.138   9.827  18.204  0.00  0.00    +0.000 C 
ENDROOT
BRANCH   1  13
ATOM     12  C   UNL     1       0.208  13.291  21.538  0.00  0.00    +0.000 C 
ATOM     13  C   UNL     1      -0.425  12.054  22.172  0.00  0.00    +0.000 C 
ATOM     14  C   UNL     1      -1.952  12.102  22.052  0.00  0.00    +0.000 C 
ENDBRANCH   1  13
BRANCH   9  15
ATOM     15  C   UNL     1       2.572   6.429  17.596  0.00  0.00    +0.000 C 
BRANCH  15  16
ATOM     16  C   UNL     1       4.016   6.109  18.061  0.00  0.00    +0.000 C 
ATOM     17  O   UNL     1       4.937   6.915  17.867  0.00  0.00    +0.000 OA
ATOM     18  N   UNL     1       4.260   4.907  18.748  0.00  0.00    +0.000 N 
ATOM     19  C   UNL     1       5.628   4.664  19.204  0.00  0.00    +0.000 C 
ATOM     20  C   UNL     1       3.225   3.995  18.954  0.00  0.00    +0.000 A 
ATOM     21  N   UNL     1       2.050   3.998  18.368  0.00  0.00    +0.000 NA
ATOM     22  C   UNL     1       1.248   2.990  18.844  0.00  0.00    +0.000 A 
ATOM     23  C   UNL     1       1.819   2.212  19.822  0.00  0.00    +0.000 A 
ATOM     24  S   UNL     1       3.431   2.727  20.098  0.00  0.00    +0.000 S 
ENDBRANCH  15  16
ENDBRANCH   9  15
TORSDOF 3
ENDMDL
MODEL 2
REMARK VINA RESULT:      -7.1      1.885      2.749
REMARK  Name = 
REMARK  6 active torsions:
REMARK  status: ('A' for Active; 'I' for Inactive)
REMARK    1  A    between atoms: C_1  and  C_2
REMARK    2  A    between atoms: C_2  and  C_3
REMARK    3  A    between atoms: C_2  and  N_4
REMARK    4  A    between atoms: N_12  and  C_13
REMARK    5  A    between atoms: C_13  and  C_14
REMARK    6  A    between atoms: N_16  and  C_17
REMARK                            x       y       z     vdW  Elec       q    Type
REMARK                         _______ _______ _______ _____ _____    ______ ____
ROOT
ATOM      1  N   UNL     1      -0.657  10.834  21.352  0.00  0.00    +0.000 N 
ATOM      2  N   UNL     1      -0.273  10.781  20.031  0.00  0.00    +0.000 NA
ATOM      3  C   UNL     1       0.557   9.853  19.671  0.00  0.00    +0.000 A 
ATOM      4  C   UNL     1       1.138   8.850  20.588  0.00  0.00    +0.000 A 
ATOM      5  C   UNL     1       0.764   8.929  21.869  0.00  0.00    +0.000 A 
ATOM      6  C   UNL     1      -0.164   9.980  22.330  0.00  0.00    +0.000 A 
ATOM      7  O   UNL     1      -0.436  10.037  23.527  0.00  0.00    +0.000 OA
ATOM      8  C   UNL     1       2.121   7.850  20.075  0.00  0.00    +0.000 C 
ATOM      9  N   UNL     1       2.100   7.722  18.621  0.00  0.00    +0.000 NA
ATOM     10  C   UNL     1       2.176   9.015  17.947  0.00  0.00    +0.000 C 
ATOM     11  C   UNL     1       0.887   9.770  18.198  0.00  0.00    +0.000 C 
ENDROOT
BRANCH   1  13
ATOM     12  C   UNL     1      -0.725  13.098  22.311  0.00  0.00    +0.000 C 
ATOM     13  C   UNL     1      -1.541  11.939  21.740  0.00  0.00    +0.000 C 
ATOM     14  C   UNL     1      -2.426  12.414  20.583  0.00  0.00    +0.000 C 
ENDBRANCH   1  13
BRANCH   9  15
ATOM     15  C   UNL     1       3.094   6.756  18.107  0.00  0.00    +0.000 C 
BRANCH  15  16
ATOM     16  C   UNL     1       2.637   5.278  17.992  0.00  0.00    +0.000 C 
ATOM     17  O   UNL     1       1.513   4.932  18.381  0.00  0.00    +0.000 OA
ATOM     18  N   UNL     1       3.500   4.342  17.399  0.00  0.00    +0.000 N 
ATOM     19  C   UNL     1       3.013   2.968  17.275  0.00  0.00    +0.000 C 
ATOM     20  C   UNL     1       4.771   4.731  16.973  0.00  0.00    +0.000 A 
ATOM     21  N   UNL     1       5.388   5.850  17.273  0.00  0.00    +0.000 NA
ATOM     22  C   UNL     1       6.603   5.938  16.640  0.00  0.00    +0.000 A 
ATOM     23  C   UNL     1       6.912   4.870  15.832  0.00  0.00    +0.000 A 
ATOM     24  S   UNL     1       5.665   3.698  15.927  0.00  0.00    +0.000 S 
ENDBRANCH  15  16
ENDBRANCH   9  15
TORSDOF 3
ENDMDL
MODEL 3
REMARK VINA RESULT:      -7.1      3.014      7.660
REMARK  Name = 
REMARK  6 active torsions:
REMARK  status: ('A' for Active; 'I' for Inactive)
REMARK    1  A    between atoms: C_1  and  C_2
REMARK    2  A    between atoms: C_2  and  C_3
REMARK    3  A    between atoms: C_2  and  N_4
REMARK    4  A    between atoms: N_12  and  C_13
REMARK    5  A    between atoms: C_13  and  C_14
REMARK    6  A    between atoms: N_16  and  C_17
REMARK                            x       y       z     vdW  Elec       q    Type
REMARK                         _______ _______ _______ _____ _____    ______ ____
ROOT
ATOM      1  N   UNL     1       5.034   5.027  17.868  0.00  0.00    +0.000 N 
ATOM      2  N   UNL     1       4.474   6.211  17.442  0.00  0.00    +0.000 NA
ATOM      3  C   UNL     1       3.533   6.736  18.161  0.00  0.00    +0.000 A 
ATOM      4  C   UNL     1       3.002   6.143  19.406  0.00  0.00    +0.000 A 
ATOM      5  C   UNL     1       3.549   4.987  19.793  0.00  0.00    +0.000 A 
ATOM      6  C   UNL     1       4.610   4.339  18.998  0.00  0.00    +0.000 A 
ATOM      7  O   UNL     1       5.043   3.252  19.373  0.00  0.00    +0.000 OA
ATOM      8  C   UNL     1       1.884   6.813  20.135  0.00  0.00    +0.000 C 
ATOM      9  N   UNL     1       1.701   8.207  19.743  0.00  0.00    +0.000 NA
ATOM     10  C   UNL     1       1.637   8.375  18.294  0.00  0.00    +0.000 C 
ATOM     11  C   UNL     1       3.003   8.079  17.710  0.00  0.00    +0.000 C 
ENDROOT
BRANCH   1  13
ATOM     12  C   UNL     1       5.821   4.847  15.544  0.00  0.00    +0.000 C 
ATOM     13  C   UNL     1       6.046   4.422  16.995  0.00  0.00    +0.000 C 
ATOM     14  C   UNL     1       7.475   4.749  17.441  0.00  0.00    +0.000 C 
ENDBRANCH   1  13
BRANCH   9  15
ATOM     15  C   UNL     1       0.573   8.864  20.439  0.00  0.00    +0.000 C 
BRANCH  15  16
ATOM     16  C   UNL     1       0.843  10.274  21.027  0.00  0.00    +0.000 C 
ATOM     17  O   UNL     1       1.631  10.426  21.971  0.00  0.00    +0.000 OA
ATOM     18  N   UNL     1       0.213  11.386  20.443  0.00  0.00    +0.000 N 
ATOM     19  C   UNL     1       0.527  12.701  21.002  0.00  0.00    +0.000 C 
ATOM     20  C   UNL     1      -0.684  11.212  19.389  0.00  0.00    +0.000 A 
ATOM     21  N   UNL     1      -1.221  10.080  18.998  0.00  0.00    +0.000 NA
ATOM     22  C   UNL     1      -2.017  10.257  17.893  0.00  0.00    +0.000 A 
ATOM     23  C   UNL     1      -2.075  11.548  17.425  0.00  0.00    +0.000 A 
ATOM     24  S   UNL     1      -1.155  12.572  18.446  0.00  0.00    +0.000 S 
ENDBRANCH  15  16
ENDBRANCH   9  15
TORSDOF 3
ENDMDL
MODEL 4
REMARK VINA RESULT:      -7.1      2.232      3.033
REMARK  Name = 
REMARK  6 active torsions:
REMARK  status: ('A' for Active; 'I' for Inactive)
REMARK    1  A    between atoms: C_1  and  C_2
REMARK    2  A    between atoms: C_2  and  C_3
REMARK    3  A    between atoms: C_2  and  N_4
REMARK    4  A    between atoms: N_12  and  C_13
REMARK    5  A    between atoms: C_13  and  C_14
REMARK    6  A    between atoms: N_16  and  C_17
REMARK                            x       y       z     vdW  Elec       q    Type
REMARK                         _______ _______ _______ _____ _____    ______ ____
ROOT
ATOM      1  N   UNL     1      -0.586  11.196  19.765  0.00  0.00    +0.000 N 
ATOM      2  N   UNL     1       0.123  10.630  18.730  0.00  0.00    +0.000 NA
ATOM      3  C   UNL     1       0.850   9.587  18.984  0.00  0.00    +0.000 A 
ATOM      4  C   UNL     1       0.986   8.968  20.319  0.00  0.00    +0.000 A 
ATOM      5  C   UNL     1       0.300   9.543  21.312  0.00  0.00    +0.000 A 
ATOM      6  C   UNL     1      -0.526  10.743  21.076  0.00  0.00    +0.000 A 
ATOM      7  O   UNL     1      -1.096  11.260  22.034  0.00  0.00    +0.000 OA
ATOM      8  C   UNL     1       1.886   7.793  20.510  0.00  0.00    +0.000 C 
ATOM      9  N   UNL     1       2.235   7.131  19.256  0.00  0.00    +0.000 NA
ATOM     10  C   UNL     1       2.707   8.071  18.243  0.00  0.00    +0.000 C 
ATOM     11  C   UNL     1       1.546   8.940  17.808  0.00  0.00    +0.000 C 
ENDROOT
BRANCH   1  13
ATOM     12  C   UNL     1      -0.608  13.248  18.408  0.00  0.00    +0.000 C 
ATOM     13  C   UNL     1      -1.343  12.416  19.459  0.00  0.00    +0.000 C 
ATOM     14  C   UNL     1      -2.777  12.118  19.011  0.00  0.00    +0.000 C 
ENDBRANCH   1  13
BRANCH   9  15
ATOM     15  C   UNL     1       3.153   5.986  19.438  0.00  0.00    +0.000 C 
BRANCH  15  16
ATOM     16  C   UNL     1       2.691   4.623  18.858  0.00  0.00    +0.000 C 
ATOM     17  O   UNL     1       1.616   4.118  19.210  0.00  0.00    +0.000 OA
ATOM     18  N   UNL     1       3.490   3.988  17.893  0.00  0.00    +0.000 N 
ATOM     19  C   UNL     1       2.997   2.725  17.344  0.00  0.00    +0.000 C 
ATOM     20  C   UNL     1       4.707   4.551  17.508  0.00  0.00    +0.000 A 
ATOM     21  N   UNL     1       5.348   5.520  18.118  0.00  0.00    +0.000 NA
ATOM     22  C   UNL     1       6.490   5.873  17.440  0.00  0.00    +0.000 A 
ATOM     23  C   UNL     1       6.714   5.166  16.283  0.00  0.00    +0.000 A 
ATOM     24  S   UNL     1       5.488   3.984  16.084  0.00  0.00    +0.000 S 
ENDBRANCH  15  16
ENDBRANCH   9  15
TORSDOF 3
ENDMDL
MODEL 5
REMARK VINA RESULT:      -7.0      1.646      2.644
REMARK  Name = 
REMARK  6 active torsions:
REMARK  status: ('A' for Active; 'I' for Inactive)
REMARK    1  A    between atoms: C_1  and  C_2
REMARK    2  A    between atoms: C_2  and  C_3
REMARK    3  A    between atoms: C_2  and  N_4
REMARK    4  A    between atoms: N_12  and  C_13
REMARK    5  A    between atoms: C_13  and  C_14
REMARK    6  A    between atoms: N_16  and  C_17
REMARK                            x       y       z     vdW  Elec       q    Type
REMARK                         _______ _______ _______ _____ _____    ______ ____
ROOT
ATOM      1  N   UNL     1      -0.006  10.831  21.760  0.00  0.00    +0.000 N 
ATOM      2  N   UNL     1       0.219  10.862  20.402  0.00  0.00    +0.000 NA
ATOM      3  C   UNL     1       0.827   9.855  19.859  0.00  0.00    +0.000 A 
ATOM      4  C   UNL     1       1.316   8.674  20.601  0.00  0.00    +0.000 A 
ATOM      5  C   UNL     1       1.101   8.672  21.920  0.00  0.00    +0.000 A 
ATOM      6  C   UNL     1       0.429   9.804  22.587  0.00  0.00    +0.000 A 
ATOM      7  O   UNL     1       0.301   9.772  23.809  0.00  0.00    +0.000 OA
ATOM      8  C   UNL     1       2.045   7.588  19.881  0.00  0.00    +0.000 C 
ATOM      9  N   UNL     1       1.846   7.628  18.436  0.00  0.00    +0.000 NA
ATOM     10  C   UNL     1       2.078   8.957  17.877  0.00  0.00    +0.000 C 
ATOM     11  C   UNL     1       0.978   9.883  18.354  0.00  0.00    +0.000 C 
ENDROOT
BRANCH   1  13
ATOM     12  C   UNL     1      -0.721  13.144  21.326  0.00  0.00    +0.000 C 
ATOM     13  C   UNL     1      -0.633  12.017  22.354  0.00  0.00    +0.000 C 
ATOM     14  C   UNL     1      -2.013  11.714  22.947  0.00  0.00    +0.000 C 
ENDBRANCH   1  13
BRANCH   9  15
ATOM     15  C   UNL     1       2.592   6.573  17.716  0.00  0.00    +0.000 C 
BRANCH  15  16
ATOM     16  C   UNL     1       2.821   5.239  18.474  0.00  0.00    +0.000 C 
ATOM     17  O   UNL     1       1.862   4.587  18.911  0.00  0.00    +0.000 OA
ATOM     18  N   UNL     1       4.132   4.757  18.622  0.00  0.00    +0.000 N 
ATOM     19  C   UNL     1       4.299   3.475  19.308  0.00  0.00    +0.000 C 
ATOM     20  C   UNL     1       5.212   5.498  18.141  0.00  0.00    +0.000 A 
ATOM     21  N   UNL     1       5.189   6.753  17.756  0.00  0.00    +0.000 NA
ATOM     22  C   UNL     1       6.415   7.156  17.285  0.00  0.00    +0.000 A 
ATOM     23  C   UNL     1       7.386   6.184  17.300  0.00  0.00    +0.000 A 
ATOM     24  S   UNL     1       6.752   4.747  17.986  0.00  0.00    +0.000 S 
ENDBRANCH  15  16
ENDBRANCH   9  15
TORSDOF 3
ENDMDL
MODEL 6
REMARK VINA RESULT:      -6.9      2.055      2.978
REMARK  Name = 
REMARK  6 active torsions:
REMARK  status: ('A' for Active; 'I' for Inactive)
REMARK    1  A    between atoms: C_1  and  C_2
REMARK    2  A    between atoms: C_2  and  C_3
REMARK    3  A    between atoms: C_2  and  N_4
REMARK    4  A    between atoms: N_12  and  C_13
REMARK    5  A    between atoms: C_13  and  C_14
REMARK    6  A    between atoms: N_16  and  C_17
REMARK                            x       y       z     vdW  Elec       q    Type
REMARK                         _______ _______ _______ _____ _____    ______ ____
ROOT
ATOM      1  N   UNL     1       0.448  10.720  20.268  0.00  0.00    +0.000 N 
ATOM      2  N   UNL     1       0.963  10.155  19.123  0.00  0.00    +0.000 NA
ATOM      3  C   UNL     1       1.474   8.967  19.204  0.00  0.00    +0.000 A 
ATOM      4  C   UNL     1       1.560   8.177  20.450  0.00  0.00    +0.000 A 
ATOM      5  C   UNL     1       1.068   8.751  21.552  0.00  0.00    +0.000 A 
ATOM      6  C   UNL     1       0.493  10.110  21.514  0.00  0.00    +0.000 A 
ATOM      7  O   UNL     1       0.100  10.609  22.566  0.00  0.00    +0.000 OA
ATOM      8  C   UNL     1       2.210   6.832  20.439  0.00  0.00    +0.000 C 
ATOM      9  N   UNL     1       2.339   6.272  19.097  0.00  0.00    +0.000 NA
ATOM     10  C   UNL     1       2.932   7.215  18.154  0.00  0.00    +0.000 C 
ATOM     11  C   UNL     1       1.950   8.342  17.911  0.00  0.00    +0.000 C 
ENDROOT
BRANCH   1  13
ATOM     12  C   UNL     1       1.100  13.077  19.998  0.00  0.00    +0.000 C 
ATOM     13  C   UNL     1      -0.058  12.094  20.157  0.00  0.00    +0.000 C 
ATOM     14  C   UNL     1      -1.068  12.254  19.016  0.00  0.00    +0.000 C 
ENDBRANCH   1  13
BRANCH   9  15
ATOM     15  C   UNL     1       3.012   4.954  19.079  0.00  0.00    +0.000 C 
BRANCH  15  16
ATOM     16  C   UNL     1       3.226   4.300  17.689  0.00  0.00    +0.000 C 
ATOM     17  O   UNL     1       2.264   3.875  17.035  0.00  0.00    +0.000 OA
ATOM     18  N   UNL     1       4.526   4.235  17.161  0.00  0.00    +0.000 N 
ATOM     19  C   UNL     1       4.678   3.647  15.830  0.00  0.00    +0.000 C 
ATOM     20  C   UNL     1       5.610   4.703  17.904  0.00  0.00    +0.000 A 
ATOM     21  N   UNL     1       5.613   4.999  19.182  0.00  0.00    +0.000 NA
ATOM     22  C   UNL     1       6.833   5.486  19.583  0.00  0.00    +0.000 A 
ATOM     23  C   UNL     1       7.774   5.574  18.586  0.00  0.00    +0.000 A 
ATOM     24  S   UNL     1       7.120   4.967  17.122  0.00  0.00    +0.000 S 
ENDBRANCH  15  16
ENDBRANCH   9  15
TORSDOF 3
ENDMDL
MODEL 7
REMARK VINA RESULT:      -6.7      2.122      3.022
REMARK  Name = 
REMARK  6 active torsions:
REMARK  status: ('A' for Active; 'I' for Inactive)
REMARK    1  A    between atoms: C_1  and  C_2
REMARK    2  A    between atoms: C_2  and  C_3
REMARK    3  A    between atoms: C_2  and  N_4
REMARK    4  A    between atoms: N_12  and  C_13
REMARK    5  A    between atoms: C_13  and  C_14
REMARK    6  A    between atoms: N_16  and  C_17
REMARK                            x       y       z     vdW  Elec       q    Type
REMARK                         _______ _______ _______ _____ _____    ______ ____
ROOT
ATOM      1  N   UNL     1       0.519  11.498  19.726  0.00  0.00    +0.000 N 
ATOM      2  N   UNL     1       1.030  10.617  18.799  0.00  0.00    +0.000 NA
ATOM      3  C   UNL     1       1.391   9.441  19.208  0.00  0.00    +0.000 A 
ATOM      4  C   UNL     1       1.308   8.981  20.609  0.00  0.00    +0.000 A 
ATOM      5  C   UNL     1       0.823   9.857  21.494  0.00  0.00    +0.000 A 
ATOM      6  C   UNL     1       0.416  11.214  21.082  0.00  0.00    +0.000 A 
ATOM      7  O   UNL     1       0.023  11.996  21.944  0.00  0.00    +0.000 OA
ATOM      8  C   UNL     1       1.794   7.617  20.977  0.00  0.00    +0.000 C 
ATOM      9  N   UNL     1       1.935   6.731  19.826  0.00  0.00    +0.000 NA
ATOM     10  C   UNL     1       2.691   7.347  18.739  0.00  0.00    +0.000 C 
ATOM     11  C   UNL     1       1.866   8.471  18.149  0.00  0.00    +0.000 C 
ENDROOT
BRANCH   1  13
ATOM     12  C   UNL     1       1.412  13.501  18.612  0.00  0.00    +0.000 C 
ATOM     13  C   UNL     1       0.186  12.844  19.245  0.00  0.00    +0.000 C 
ATOM     14  C   UNL     1      -0.995  12.842  18.269  0.00  0.00    +0.000 C 
ENDBRANCH   1  13
BRANCH   9  15
ATOM     15  C   UNL     1       2.447   5.390  20.183  0.00  0.00    +0.000 C 
BRANCH  15  16
ATOM     16  C   UNL     1       2.032   4.217  19.257  0.00  0.00    +0.000 C 
ATOM     17  O   UNL     1       0.873   3.780  19.269  0.00  0.00    +0.000 OA
ATOM     18  N   UNL     1       2.982   3.682  18.370  0.00  0.00    +0.000 N 
ATOM     19  C   UNL     1       2.537   2.604  17.487  0.00  0.00    +0.000 C 
ATOM     20  C   UNL     1       4.290   4.166  18.367  0.00  0.00    +0.000 A 
ATOM     21  N   UNL     1       4.844   4.929  19.280  0.00  0.00    +0.000 NA
ATOM     22  C   UNL     1       6.131   5.269  18.938  0.00  0.00    +0.000 A 
ATOM     23  C   UNL     1       6.559   4.764  17.734  0.00  0.00    +0.000 A 
ATOM     24  S   UNL     1       5.330   3.784  17.050  0.00  0.00    +0.000 S 
ENDBRANCH  15  16
ENDBRANCH   9  15
TORSDOF 3
ENDMDL
MODEL 8
REMARK VINA RESULT:      -6.6      3.079      7.713
REMARK  Name = 
REMARK  6 active torsions:
REMARK  status: ('A' for Active; 'I' for Inactive)
REMARK    1  A    between atoms: C_1  and  C_2
REMARK    2  A    between atoms: C_2  and  C_3
REMARK    3  A    between atoms: C_2  and  N_4
REMARK    4  A    between atoms: N_12  and  C_13
REMARK    5  A    between atoms: C_13  and  C_14
REMARK    6  A    between atoms: N_16  and  C_17
REMARK                            x       y       z     vdW  Elec       q    Type
REMARK                         _______ _______ _______ _____ _____    ______ ____
ROOT
ATOM      1  N   UNL     1       3.555   4.183  18.891  0.00  0.00    +0.000 N 
ATOM      2  N   UNL     1       2.766   4.879  19.779  0.00  0.00    +0.000 NA
ATOM      3  C   UNL     1       2.470   6.110  19.499  0.00  0.00    +0.000 A 
ATOM      4  C   UNL     1       2.938   6.829  18.296  0.00  0.00    +0.000 A 
ATOM      5  C   UNL     1       3.715   6.139  17.456  0.00  0.00    +0.000 A 
ATOM      6  C   UNL     1       4.095   4.741  17.740  0.00  0.00    +0.000 A 
ATOM      7  O   UNL     1       4.852   4.169  16.959  0.00  0.00    +0.000 OA
ATOM      8  C   UNL     1       2.572   8.263  18.094  0.00  0.00    +0.000 C 
ATOM      9  N   UNL     1       1.450   8.688  18.924  0.00  0.00    +0.000 NA
ATOM     10  C   UNL     1       1.624   8.322  20.327  0.00  0.00    +0.000 C 
ATOM     11  C   UNL     1       1.530   6.815  20.451  0.00  0.00    +0.000 C 
ENDROOT
BRANCH   1  13
ATOM     12  C   UNL     1       3.531   2.537  20.720  0.00  0.00    +0.000 C 
ATOM     13  C   UNL     1       3.930   2.815  19.272  0.00  0.00    +0.000 C 
ATOM     14  C   UNL     1       3.334   1.763  18.332  0.00  0.00    +0.000 C 
ENDBRANCH   1  13
BRANCH   9  15
ATOM     15  C   UNL     1       1.106  10.117  18.751  0.00  0.00    +0.000 C 
BRANCH  15  16
ATOM     16  C   UNL     1       0.417  10.819  19.950  0.00  0.00    +0.000 C 
ATOM     17  O   UNL     1       1.054  11.083  20.979  0.00  0.00    +0.000 OA
ATOM     18  N   UNL     1      -0.933  11.191  19.837  0.00  0.00    +0.000 N 
ATOM     19  C   UNL     1      -1.531  11.887  20.976  0.00  0.00    +0.000 C 
ATOM     20  C   UNL     1      -1.652  10.882  18.682  0.00  0.00    +0.000 A 
ATOM     21  N   UNL     1      -1.290  10.048  17.736  0.00  0.00    +0.000 NA
ATOM     22  C   UNL     1      -2.207  10.020  16.713  0.00  0.00    +0.000 A 
ATOM     23  C   UNL     1      -3.281  10.860  16.880  0.00  0.00    +0.000 A 
ATOM     24  S   UNL     1      -3.162  11.653  18.394  0.00  0.00    +0.000 S 
ENDBRANCH  15  16
ENDBRANCH   9  15
TORSDOF 3
ENDMDL
MODEL 9
REMARK VINA RESULT:      -6.6      3.251      7.532
REMARK  Name = 
REMARK  6 active torsions:
REMARK  status: ('A' for Active; 'I' for Inactive)
REMARK    1  A    between atoms: C_1  and  C_2
REMARK    2  A    between atoms: C_2  and  C_3
REMARK    3  A    between atoms: C_2  and  N_4
REMARK    4  A    between atoms: N_12  and  C_13
REMARK    5  A    between atoms: C_13  and  C_14
REMARK    6  A    between atoms: N_16  and  C_17
REMARK                            x       y       z     vdW  Elec       q    Type
REMARK                         _______ _______ _______ _____ _____    ______ ____
ROOT
ATOM      1  N   UNL     1       3.019   5.107  19.508  0.00  0.00    +0.000 N 
ATOM      2  N   UNL     1       3.102   6.077  18.535  0.00  0.00    +0.000 NA
ATOM      3  C   UNL     1       2.494   7.203  18.741  0.00  0.00    +0.000 A 
ATOM      4  C   UNL     1       1.699   7.516  19.947  0.00  0.00    +0.000 A 
ATOM      5  C   UNL     1       1.619   6.554  20.871  0.00  0.00    +0.000 A 
ATOM      6  C   UNL     1       2.278   5.248  20.674  0.00  0.00    +0.000 A 
ATOM      7  O   UNL     1       2.131   4.382  21.533  0.00  0.00    +0.000 OA
ATOM      8  C   UNL     1       1.003   8.832  20.062  0.00  0.00    +0.000 C 
ATOM      9  N   UNL     1       1.516   9.832  19.131  0.00  0.00    +0.000 NA
ATOM     10  C   UNL     1       1.595   9.331  17.762  0.00  0.00    +0.000 C 
ATOM     11  C   UNL     1       2.680   8.277  17.692  0.00  0.00    +0.000 C 
ENDROOT
BRANCH   1  13
ATOM     12  C   UNL     1       2.791   3.000  18.258  0.00  0.00    +0.000 C 
ATOM     13  C   UNL     1       3.658   3.818  19.213  0.00  0.00    +0.000 C 
ATOM     14  C   UNL     1       5.075   3.983  18.655  0.00  0.00    +0.000 C 
ENDBRANCH   1  13
BRANCH   9  15
ATOM     15  C   UNL     1       0.807  11.128  19.220  0.00  0.00    +0.000 C 
BRANCH  15  16
ATOM     16  C   UNL     1       0.559  11.691  20.644  0.00  0.00    +0.000 C 
ATOM     17  O   UNL     1       1.496  11.830  21.441  0.00  0.00    +0.000 OA
ATOM     18  N   UNL     1      -0.742  12.083  21.003  0.00  0.00    +0.000 N 
ATOM     19  C   UNL     1      -0.924  12.647  22.341  0.00  0.00    +0.000 C 
ATOM     20  C   UNL     1      -1.799  11.915  20.108  0.00  0.00    +0.000 A 
ATOM     21  N   UNL     1      -1.787  11.194  19.011  0.00  0.00    +0.000 NA
ATOM     22  C   UNL     1      -2.978  11.291  18.334  0.00  0.00    +0.000 A 
ATOM     23  C   UNL     1      -3.909  12.114  18.920  0.00  0.00    +0.000 A 
ATOM     24  S   UNL     1      -3.288  12.725  20.396  0.00  0.00    +0.000 S 
ENDBRANCH  15  16
ENDBRANCH   9  15
TORSDOF 3
ENDMDL
