MODEL 1
REMARK VINA RESULT:      -7.7      0.000      0.000
REMARK  Name = 
REMARK  7 active torsions:
REMARK  status: ('A' for Active; 'I' for Inactive)
REMARK    1  A    between atoms: C_1  and  N_2
REMARK    2  A    between atoms: N_2  and  C_3
REMARK    3  A    between atoms: N_2  and  C_4
REMARK    4  A    between atoms: C_4  and  C_5
REMARK    5  A    between atoms: C_5  and  C_6
REMARK    6  A    between atoms: C_6  and  C_7
REMARK    7  A    between atoms: C_12  and  C_13
REMARK                            x       y       z     vdW  Elec       q    Type
REMARK                         _______ _______ _______ _____ _____    ______ ____
ROOT
ATOM      1  C   UNL     1       6.648   6.336  16.894  0.00  0.00    +0.000 A 
ATOM      2  N   UNL     1       7.574   6.191  15.898  0.00  0.00    +0.000 N 
ATOM      3  N   UNL     1       7.494   5.024  15.249  0.00  0.00    +0.000 NA
ATOM      4  C   UNL     1       6.476   4.396  15.835  0.00  0.00    +0.000 A 
ATOM      5  N   UNL     1       6.101   3.169  15.454  0.00  0.00    +0.000 N 
ATOM      6  C   UNL     1       5.883   5.183  16.856  0.00  0.00    +0.000 A 
ATOM      7  H   UNL     1       8.321   6.838  15.654  0.00  0.00    +0.000 HD
ATOM      8  H   UNL     1       6.489   2.824  14.583  0.00  0.00    +0.000 HD
ATOM      9  H   UNL     1       5.187   2.801  15.682  0.00  0.00    +0.000 HD
ENDROOT
BRANCH   6  10
ATOM     10  C   UNL     1       4.708   4.896  17.744  0.00  0.00    +0.000 A 
ATOM     11  N   UNL     1       3.640   4.269  17.292  0.00  0.00    +0.000 NA
ATOM     12  C   UNL     1       2.759   4.009  18.325  0.00  0.00    +0.000 A 
ATOM     13  C   UNL     1       1.554   3.286  18.222  0.00  0.00    +0.000 A 
ATOM     14  C   UNL     1       0.771   3.076  19.362  0.00  0.00    +0.000 A 
ATOM     15  C   UNL     1       1.164   3.595  20.592  0.00  0.00    +0.000 A 
ATOM     16  C   UNL     1       2.348   4.328  20.716  0.00  0.00    +0.000 A 
ATOM     17  C   UNL     1       3.136   4.511  19.569  0.00  0.00    +0.000 A 
ATOM     18  S   UNL     1       4.648   5.310  19.410  0.00  0.00    +0.000 S 
ENDBRANCH   6  10
BRANCH   1  19
ATOM     19  C   UNL     1       6.670   7.521  17.796  0.00  0.00    +0.000 C 
BRANCH  19  20
ATOM     20  C   UNL     1       8.043   8.206  17.777  0.00  0.00    +0.000 C 
BRANCH  20  21
ATOM     21  C   UNL     1       7.977   9.744  17.734  0.00  0.00    +0.000 C 
BRANCH  21  23
ATOM     22  C   UNL     1       9.185  11.841  17.915  0.00  0.00    +0.000 C 
ATOM     23  N   UNL     1       9.200  10.407  18.226  0.00  0.00    +0.000 NA
ATOM     24  C   UNL     1       9.321  10.223  19.675  0.00  0.00    +0.000 C 
ENDBRANCH  21  23
ENDBRANCH  20  21
ENDBRANCH  19  20
ENDBRANCH   1  19
TORSDOF 5
ENDMDL
MODEL 2
REMARK VINA RESULT:      -7.5      2.995      5.389
REMARK  Name = 
REMARK  7 active torsions:
REMARK  status: ('A' for Active; 'I' for Inactive)
REMARK    1  A    between atoms: C_1  and  N_2
REMARK    2  A    between atoms: N_2  and  C_3
REMARK    3  A    between atoms: N_2  and  C_4
REMARK    4  A    between atoms: C_4  and  C_5
REMARK    5  A    between atoms: C_5  and  C_6
REMARK    6  A    between atoms: C_6  and  C_7
REMARK    7  A    between atoms: C_12  and  C_13
REMARK                            x       y       z     vdW  Elec       q    Type
REMARK                         _______ _______ _______ _____ _____    ______ ____
ROOT
ATOM      1  C   UNL     1       6.218   4.240  16.310  0.00  0.00    +0.000 A 
ATOM      2  N   UNL     1       7.480   4.738  16.131  0.00  0.00    +0.000 N 
ATOM      3  N   UNL     1       8.022   5.250  17.242  0.00  0.00    +0.000 NA
ATOM      4  C   UNL     1       7.088   5.068  18.173  0.00  0.00    +0.000 A 
ATOM      5  N   UNL     1       7.273   5.475  19.435  0.00  0.00    +0.000 N 
ATOM      6  C   UNL     1       5.943   4.410  17.656  0.00  0.00    +0.000 A 
ATOM      7  H   UNL     1       7.997   4.804  15.257  0.00  0.00    +0.000 HD
ATOM      8  H   UNL     1       8.215   5.744  19.694  0.00  0.00    +0.000 HD
ATOM      9  H   UNL     1       6.716   5.107  20.195  0.00  0.00    +0.000 HD
ENDROOT
BRANCH   6  10
ATOM     10  C   UNL     1       4.679   3.977  18.341  0.00  0.00    +0.000 A 
ATOM     11  N   UNL     1       4.703   3.351  19.499  0.00  0.00    +0.000 NA
ATOM     12  C   UNL     1       3.420   3.177  19.982  0.00  0.00    +0.000 A 
ATOM     13  C   UNL     1       3.074   2.618  21.229  0.00  0.00    +0.000 A 
ATOM     14  C   UNL     1       1.728   2.530  21.600  0.00  0.00    +0.000 A 
ATOM     15  C   UNL     1       0.728   2.971  20.738  0.00  0.00    +0.000 A 
ATOM     16  C   UNL     1       1.047   3.516  19.490  0.00  0.00    +0.000 A 
ATOM     17  C   UNL     1       2.402   3.620  19.139  0.00  0.00    +0.000 A 
ATOM     18  S   UNL     1       3.107   4.281  17.719  0.00  0.00    +0.000 S 
ENDBRANCH   6  10
BRANCH   1  19
ATOM     19  C   UNL     1       5.419   3.743  15.155  0.00  0.00    +0.000 C 
BRANCH  19  20
ATOM     20  C   UNL     1       5.796   4.478  13.863  0.00  0.00    +0.000 C 
BRANCH  20  21
ATOM     21  C   UNL     1       6.342   3.561  12.754  0.00  0.00    +0.000 C 
BRANCH  21  23
ATOM     22  C   UNL     1       4.319   3.368  11.428  0.00  0.00    +0.000 C 
ATOM     23  N   UNL     1       5.336   2.638  12.194  0.00  0.00    +0.000 NA
ATOM     24  C   UNL     1       5.988   1.654  11.324  0.00  0.00    +0.000 C 
ENDBRANCH  21  23
ENDBRANCH  20  21
ENDBRANCH  19  20
ENDBRANCH   1  19
TORSDOF 5
ENDMDL
MODEL 3
REMARK VINA RESULT:      -7.5      2.559      4.697
REMARK  Name = 
REMARK  7 active torsions:
REMARK  status: ('A' for Active; 'I' for Inactive)
REMARK    1  A    between atoms: C_1  and  N_2
REMARK    2  A    between atoms: N_2  and  C_3
REMARK    3  A    between atoms: N_2  and  C_4
REMARK    4  A    between atoms: C_4  and  C_5
REMARK    5  A    between atoms: C_5  and  C_6
REMARK    6  A    between atoms: C_6  and  C_7
REMARK    7  A    between atoms: C_12  and  C_13
REMARK                            x       y       z     vdW  Elec       q    Type
REMARK                         _______ _______ _______ _____ _____    ______ ____
ROOT
ATOM      1  C   UNL     1       6.252   6.121  16.850  0.00  0.00    +0.000 A 
ATOM      2  N   UNL     1       7.497   6.686  16.816  0.00  0.00    +0.000 N 
ATOM      3  N   UNL     1       8.169   6.585  17.969  0.00  0.00    +0.000 NA
ATOM      4  C   UNL     1       7.338   5.923  18.772  0.00  0.00    +0.000 A 
ATOM      5  N   UNL     1       7.668   5.643  20.039  0.00  0.00    +0.000 N 
ATOM      6  C   UNL     1       6.129   5.577  18.116  0.00  0.00    +0.000 A 
ATOM      7  H   UNL     1       7.917   7.203  16.047  0.00  0.00    +0.000 HD
ATOM      8  H   UNL     1       8.639   5.778  20.297  0.00  0.00    +0.000 HD
ATOM      9  H   UNL     1       7.189   4.922  20.562  0.00  0.00    +0.000 HD
ENDROOT
BRANCH   6  10
ATOM     10  C   UNL     1       4.938   4.812  18.616  0.00  0.00    +0.000 A 
ATOM     11  N   UNL     1       4.175   5.280  19.583  0.00  0.00    +0.000 NA
ATOM     12  C   UNL     1       3.077   4.462  19.773  0.00  0.00    +0.000 A 
ATOM     13  C   UNL     1       2.013   4.698  20.666  0.00  0.00    +0.000 A 
ATOM     14  C   UNL     1       0.949   3.792  20.733  0.00  0.00    +0.000 A 
ATOM     15  C   UNL     1       0.944   2.650  19.937  0.00  0.00    +0.000 A 
ATOM     16  C   UNL     1       1.995   2.388  19.053  0.00  0.00    +0.000 A 
ATOM     17  C   UNL     1       3.046   3.316  18.979  0.00  0.00    +0.000 A 
ATOM     18  S   UNL     1       4.435   3.301  17.970  0.00  0.00    +0.000 S 
ENDBRANCH   6  10
BRANCH   1  19
ATOM     19  C   UNL     1       5.321   6.247  15.694  0.00  0.00    +0.000 C 
BRANCH  19  20
ATOM     20  C   UNL     1       5.247   4.938  14.896  0.00  0.00    +0.000 C 
BRANCH  20  21
ATOM     21  C   UNL     1       6.558   4.564  14.181  0.00  0.00    +0.000 C 
BRANCH  21  23
ATOM     22  C   UNL     1       4.972   3.649  12.587  0.00  0.00    +0.000 C 
ATOM     23  N   UNL     1       6.371   3.660  13.030  0.00  0.00    +0.000 NA
ATOM     24  C   UNL     1       7.232   4.079  11.919  0.00  0.00    +0.000 C 
ENDBRANCH  21  23
ENDBRANCH  20  21
ENDBRANCH  19  20
ENDBRANCH   1  19
TORSDOF 5
ENDMDL
MODEL 4
REMARK VINA RESULT:      -7.3      3.207      5.309
REMARK  Name = 
REMARK  7 active torsions:
REMARK  status: ('A' for Active; 'I' for Inactive)
REMARK    1  A    between atoms: C_1  and  N_2
REMARK    2  A    between atoms: N_2  and  C_3
REMARK    3  A    between atoms: N_2  and  C_4
REMARK    4  A    between atoms: C_4  and  C_5
REMARK    5  A    between atoms: C_5  and  C_6
REMARK    6  A    between atoms: C_6  and  C_7
REMARK    7  A    between atoms: C_12  and  C_13
REMARK                            x       y       z     vdW  Elec       q    Type
REMARK                         _______ _______ _______ _____ _____    ______ ____
ROOT
ATOM      1  C   UNL     1       5.235   4.535  19.253  0.00  0.00    +0.000 A 
ATOM      2  N   UNL     1       5.430   3.188  19.401  0.00  0.00    +0.000 N 
ATOM      3  N   UNL     1       4.297   2.487  19.526  0.00  0.00    +0.000 NA
ATOM      4  C   UNL     1       3.336   3.406  19.445  0.00  0.00    +0.000 A 
ATOM      5  N   UNL     1       2.043   3.073  19.544  0.00  0.00    +0.000 N 
ATOM      6  C   UNL     1       3.862   4.708  19.242  0.00  0.00    +0.000 A 
ATOM      7  H   UNL     1       6.320   2.701  19.479  0.00  0.00    +0.000 HD
ATOM      8  H   UNL     1       1.821   2.086  19.485  0.00  0.00    +0.000 HD
ATOM      9  H   UNL     1       1.313   3.690  19.214  0.00  0.00    +0.000 HD
ENDROOT
BRANCH   6  10
ATOM     10  C   UNL     1       3.158   6.022  19.062  0.00  0.00    +0.000 A 
ATOM     11  N   UNL     1       2.359   6.508  19.991  0.00  0.00    +0.000 NA
ATOM     12  C   UNL     1       1.939   7.779  19.650  0.00  0.00    +0.000 A 
ATOM     13  C   UNL     1       1.143   8.628  20.445  0.00  0.00    +0.000 A 
ATOM     14  C   UNL     1       0.816   9.908  19.982  0.00  0.00    +0.000 A 
ATOM     15  C   UNL     1       1.254  10.338  18.733  0.00  0.00    +0.000 A 
ATOM     16  C   UNL     1       2.034   9.509  17.921  0.00  0.00    +0.000 A 
ATOM     17  C   UNL     1       2.374   8.236  18.407  0.00  0.00    +0.000 A 
ATOM     18  S   UNL     1       3.346   7.022  17.679  0.00  0.00    +0.000 S 
ENDBRANCH   6  10
BRANCH   1  19
ATOM     19  C   UNL     1       6.387   5.477  19.221  0.00  0.00    +0.000 C 
BRANCH  19  20
ATOM     20  C   UNL     1       7.330   5.162  18.053  0.00  0.00    +0.000 C 
BRANCH  20  21
ATOM     21  C   UNL     1       6.782   5.573  16.674  0.00  0.00    +0.000 C 
BRANCH  21  23
ATOM     22  C   UNL     1       5.075   4.123  15.742  0.00  0.00    +0.000 C 
ATOM     23  N   UNL     1       6.508   4.435  15.778  0.00  0.00    +0.000 NA
ATOM     24  C   UNL     1       6.974   4.742  14.422  0.00  0.00    +0.000 C 
ENDBRANCH  21  23
ENDBRANCH  20  21
ENDBRANCH  19  20
ENDBRANCH   1  19
TORSDOF 5
ENDMDL
MODEL 5
REMARK VINA RESULT:      -7.3      3.023      6.110
REMARK  Name = 
REMARK  7 active torsions:
REMARK  status: ('A' for Active; 'I' for Inactive)
REMARK    1  A    between atoms: C_1  and  N_2
REMARK    2  A    between atoms: N_2  and  C_3
REMARK    3  A    between atoms: N_2  and  C_4
REMARK    4  A    between atoms: C_4  and  C_5
REMARK    5  A    between atoms: C_5  and  C_6
REMARK    6  A    between atoms: C_6  and  C_7
REMARK    7  A    between atoms: C_12  and  C_13
REMARK                            x       y       z     vdW  Elec       q    Type
REMARK                         _______ _______ _______ _____ _____    ______ ____
ROOT
ATOM      1  C   UNL     1       4.298   4.007  16.941  0.00  0.00    +0.000 A 
ATOM      2  N   UNL     1       5.388   3.434  16.344  0.00  0.00    +0.000 N 
ATOM      3  N   UNL     1       6.424   4.268  16.194  0.00  0.00    +0.000 NA
ATOM      4  C   UNL     1       5.997   5.414  16.720  0.00  0.00    +0.000 A 
ATOM      5  N   UNL     1       6.772   6.506  16.736  0.00  0.00    +0.000 N 
ATOM      6  C   UNL     1       4.680   5.305  17.234  0.00  0.00    +0.000 A 
ATOM      7  H   UNL     1       5.459   2.491  15.970  0.00  0.00    +0.000 HD
ATOM      8  H   UNL     1       7.753   6.371  16.516  0.00  0.00    +0.000 HD
ATOM      9  H   UNL     1       6.583   7.278  17.361  0.00  0.00    +0.000 HD
ENDROOT
BRANCH   6  10
ATOM     10  C   UNL     1       3.823   6.320  17.933  0.00  0.00    +0.000 A 
ATOM     11  N   UNL     1       3.502   7.462  17.361  0.00  0.00    +0.000 NA
ATOM     12  C   UNL     1       2.606   8.163  18.147  0.00  0.00    +0.000 A 
ATOM     13  C   UNL     1       1.989   9.384  17.810  0.00  0.00    +0.000 A 
ATOM     14  C   UNL     1       1.076   9.968  18.696  0.00  0.00    +0.000 A 
ATOM     15  C   UNL     1       0.791   9.361  19.916  0.00  0.00    +0.000 A 
ATOM     16  C   UNL     1       1.402   8.156  20.277  0.00  0.00    +0.000 A 
ATOM     17  C   UNL     1       2.297   7.569  19.370  0.00  0.00    +0.000 A 
ATOM     18  S   UNL     1       3.157   6.088  19.500  0.00  0.00    +0.000 S 
ENDBRANCH   6  10
BRANCH   1  19
ATOM     19  C   UNL     1       3.018   3.260  17.077  0.00  0.00    +0.000 C 
BRANCH  19  20
ATOM     20  C   UNL     1       3.154   2.103  18.076  0.00  0.00    +0.000 C 
BRANCH  20  21
ATOM     21  C   UNL     1       3.227   2.549  19.548  0.00  0.00    +0.000 C 
BRANCH  21  23
ATOM     22  C   UNL     1       2.064   2.896  21.650  0.00  0.00    +0.000 C 
ATOM     23  N   UNL     1       1.979   2.321  20.302  0.00  0.00    +0.000 NA
ATOM     24  C   UNL     1       0.846   2.918  19.587  0.00  0.00    +0.000 C 
ENDBRANCH  21  23
ENDBRANCH  20  21
ENDBRANCH  19  20
ENDBRANCH   1  19
TORSDOF 5
ENDMDL
MODEL 6
REMARK VINA RESULT:      -7.2      2.980      5.322
REMARK  Name = 
REMARK  7 active torsions:
REMARK  status: ('A' for Active; 'I' for Inactive)
REMARK    1  A    between atoms: C_1  and  N_2
REMARK    2  A    between atoms: N_2  and  C_3
REMARK    3  A    between atoms: N_2  and  C_4
REMARK    4  A    between atoms: C_4  and  C_5
REMARK    5  A    between atoms: C_5  and  C_6
REMARK    6  A    between atoms: C_6  and  C_7
REMARK    7  A    between atoms: C_12  and  C_13
REMARK                            x       y       z     vdW  Elec       q    Type
REMARK                         _______ _______ _______ _____ _____    ______ ____
ROOT
ATOM      1  C   UNL     1       6.333   4.399  16.177  0.00  0.00    +0.000 A 
ATOM      2  N   UNL     1       7.686   4.595  16.116  0.00  0.00    +0.000 N 
ATOM      3  N   UNL     1       8.250   4.860  17.300  0.00  0.00    +0.000 NA
ATOM      4  C   UNL     1       7.232   4.824  18.159  0.00  0.00    +0.000 A 
ATOM      5  N   UNL     1       7.413   5.060  19.464  0.00  0.00    +0.000 N 
ATOM      6  C   UNL     1       6.007   4.508  17.518  0.00  0.00    +0.000 A 
ATOM      7  H   UNL     1       8.267   4.613  15.281  0.00  0.00    +0.000 HD
ATOM      8  H   UNL     1       8.371   5.071  19.797  0.00  0.00    +0.000 HD
ATOM      9  H   UNL     1       6.732   4.769  20.152  0.00  0.00    +0.000 HD
ENDROOT
BRANCH   6  10
ATOM     10  C   UNL     1       4.630   4.330  18.089  0.00  0.00    +0.000 A 
ATOM     11  N   UNL     1       3.871   3.307  17.752  0.00  0.00    +0.000 NA
ATOM     12  C   UNL     1       2.712   3.296  18.505  0.00  0.00    +0.000 A 
ATOM     13  C   UNL     1       1.711   2.305  18.468  0.00  0.00    +0.000 A 
ATOM     14  C   UNL     1       0.599   2.409  19.312  0.00  0.00    +0.000 A 
ATOM     15  C   UNL     1       0.466   3.496  20.171  0.00  0.00    +0.000 A 
ATOM     16  C   UNL     1       1.440   4.498  20.215  0.00  0.00    +0.000 A 
ATOM     17  C   UNL     1       2.561   4.370  19.381  0.00  0.00    +0.000 A 
ATOM     18  S   UNL     1       3.933   5.395  19.243  0.00  0.00    +0.000 S 
ENDBRANCH   6  10
BRANCH   1  19
ATOM     19  C   UNL     1       5.528   4.213  14.938  0.00  0.00    +0.000 C 
BRANCH  19  20
ATOM     20  C   UNL     1       6.399   3.704  13.782  0.00  0.00    +0.000 C 
BRANCH  20  21
ATOM     21  C   UNL     1       5.769   3.893  12.390  0.00  0.00    +0.000 C 
BRANCH  21  23
ATOM     22  C   UNL     1       3.897   3.182  11.018  0.00  0.00    +0.000 C 
ATOM     23  N   UNL     1       4.947   2.750  11.948  0.00  0.00    +0.000 NA
ATOM     24  C   UNL     1       5.794   1.747  11.296  0.00  0.00    +0.000 C 
ENDBRANCH  21  23
ENDBRANCH  20  21
ENDBRANCH  19  20
ENDBRANCH   1  19
TORSDOF 5
ENDMDL
MODEL 7
REMARK VINA RESULT:      -7.2      2.572      4.375
REMARK  Name = 
REMARK  7 active torsions:
REMARK  status: ('A' for Active; 'I' for Inactive)
REMARK    1  A    between atoms: C_1  and  N_2
REMARK    2  A    between atoms: N_2  and  C_3
REMARK    3  A    between atoms: N_2  and  C_4
REMARK    4  A    between atoms: C_4  and  C_5
REMARK    5  A    between atoms: C_5  and  C_6
REMARK    6  A    between atoms: C_6  and  C_7
REMARK    7  A    between atoms: C_12  and  C_13
REMARK                            x       y       z     vdW  Elec       q    Type
REMARK                         _______ _______ _______ _____ _____    ______ ____
ROOT
ATOM      1  C   UNL     1       6.050   6.408  17.145  0.00  0.00    +0.000 A 
ATOM      2  N   UNL     1       7.341   6.827  16.967  0.00  0.00    +0.000 N 
ATOM      3  N   UNL     1       8.146   6.554  18.000  0.00  0.00    +0.000 NA
ATOM      4  C   UNL     1       7.357   5.927  18.870  0.00  0.00    +0.000 A 
ATOM      5  N   UNL     1       7.820   5.505  20.053  0.00  0.00    +0.000 N 
ATOM      6  C   UNL     1       6.035   5.777  18.376  0.00  0.00    +0.000 A 
ATOM      7  H   UNL     1       7.713   7.356  16.181  0.00  0.00    +0.000 HD
ATOM      8  H   UNL     1       8.826   5.506  20.175  0.00  0.00    +0.000 HD
ATOM      9  H   UNL     1       7.331   4.802  20.591  0.00  0.00    +0.000 HD
ENDROOT
BRANCH   6  10
ATOM     10  C   UNL     1       4.838   5.114  18.993  0.00  0.00    +0.000 A 
ATOM     11  N   UNL     1       4.902   3.892  19.482  0.00  0.00    +0.000 NA
ATOM     12  C   UNL     1       3.716   3.558  20.107  0.00  0.00    +0.000 A 
ATOM     13  C   UNL     1       3.458   2.363  20.808  0.00  0.00    +0.000 A 
ATOM     14  C   UNL     1       2.213   2.171  21.418  0.00  0.00    +0.000 A 
ATOM     15  C   UNL     1       1.223   3.143  21.320  0.00  0.00    +0.000 A 
ATOM     16  C   UNL     1       1.451   4.331  20.618  0.00  0.00    +0.000 A 
ATOM     17  C   UNL     1       2.711   4.521  20.030  0.00  0.00    +0.000 A 
ATOM     18  S   UNL     1       3.307   5.875  19.157  0.00  0.00    +0.000 S 
ENDBRANCH   6  10
BRANCH   1  19
ATOM     19  C   UNL     1       4.993   6.736  16.149  0.00  0.00    +0.000 C 
BRANCH  19  20
ATOM     20  C   UNL     1       5.222   5.987  14.830  0.00  0.00    +0.000 C 
BRANCH  20  21
ATOM     21  C   UNL     1       5.472   4.477  14.999  0.00  0.00    +0.000 C 
BRANCH  21  23
ATOM     22  C   UNL     1       5.804   3.492  12.807  0.00  0.00    +0.000 C 
ATOM     23  N   UNL     1       6.455   3.925  14.049  0.00  0.00    +0.000 NA
ATOM     24  C   UNL     1       7.474   4.933  13.739  0.00  0.00    +0.000 C 
ENDBRANCH  21  23
ENDBRANCH  20  21
ENDBRANCH  19  20
ENDBRANCH   1  19
TORSDOF 5
ENDMDL
MODEL 8
REMARK VINA RESULT:      -7.2      3.605      6.205
REMARK  Name = 
REMARK  7 active torsions:
REMARK  status: ('A' for Active; 'I' for Inactive)
REMARK    1  A    between atoms: C_1  and  N_2
REMARK    2  A    between atoms: N_2  and  C_3
REMARK    3  A    between atoms: N_2  and  C_4
REMARK    4  A    between atoms: C_4  and  C_5
REMARK    5  A    between atoms: C_5  and  C_6
REMARK    6  A    between atoms: C_6  and  C_7
REMARK    7  A    between atoms: C_12  and  C_13
REMARK                            x       y       z     vdW  Elec       q    Type
REMARK                         _______ _______ _______ _____ _____    ______ ____
ROOT
ATOM      1  C   UNL     1       2.533   3.665  20.408  0.00  0.00    +0.000 A 
ATOM      2  N   UNL     1       2.372   2.994  21.590  0.00  0.00    +0.000 N 
ATOM      3  N   UNL     1       3.329   2.091  21.835  0.00  0.00    +0.000 NA
ATOM      4  C   UNL     1       4.143   2.188  20.785  0.00  0.00    +0.000 A 
ATOM      5  N   UNL     1       5.228   1.413  20.671  0.00  0.00    +0.000 N 
ATOM      6  C   UNL     1       3.713   3.182  19.869  0.00  0.00    +0.000 A 
ATOM      7  H   UNL     1       1.595   3.075  22.241  0.00  0.00    +0.000 HD
ATOM      8  H   UNL     1       5.509   0.897  21.498  0.00  0.00    +0.000 HD
ATOM      9  H   UNL     1       5.987   1.655  20.048  0.00  0.00    +0.000 HD
ENDROOT
BRANCH   6  10
ATOM     10  C   UNL     1       4.330   3.649  18.583  0.00  0.00    +0.000 A 
ATOM     11  N   UNL     1       5.562   4.116  18.540  0.00  0.00    +0.000 NA
ATOM     12  C   UNL     1       5.943   4.356  17.233  0.00  0.00    +0.000 A 
ATOM     13  C   UNL     1       7.217   4.782  16.807  0.00  0.00    +0.000 A 
ATOM     14  C   UNL     1       7.470   4.959  15.443  0.00  0.00    +0.000 A 
ATOM     15  C   UNL     1       6.465   4.736  14.505  0.00  0.00    +0.000 A 
ATOM     16  C   UNL     1       5.189   4.326  14.905  0.00  0.00    +0.000 A 
ATOM     17  C   UNL     1       4.955   4.131  16.275  0.00  0.00    +0.000 A 
ATOM     18  S   UNL     1       3.529   3.590  17.065  0.00  0.00    +0.000 S 
ENDBRANCH   6  10
BRANCH   1  19
ATOM     19  C   UNL     1       1.498   4.618  19.920  0.00  0.00    +0.000 C 
BRANCH  19  20
ATOM     20  C   UNL     1       1.707   6.016  20.517  0.00  0.00    +0.000 C 
BRANCH  20  21
ATOM     21  C   UNL     1       2.793   6.846  19.809  0.00  0.00    +0.000 C 
BRANCH  21  23
ATOM     22  C   UNL     1       1.845   8.653  18.495  0.00  0.00    +0.000 C 
ATOM     23  N   UNL     1       2.412   7.299  18.458  0.00  0.00    +0.000 NA
ATOM     24  C   UNL     1       3.583   7.285  17.576  0.00  0.00    +0.000 C 
ENDBRANCH  21  23
ENDBRANCH  20  21
ENDBRANCH  19  20
ENDBRANCH   1  19
TORSDOF 5
ENDMDL
MODEL 9
REMARK VINA RESULT:      -7.2      2.620      4.828
REMARK  Name = 
REMARK  7 active torsions:
REMARK  status: ('A' for Active; 'I' for Inactive)
REMARK    1  A    between atoms: C_1  and  N_2
REMARK    2  A    between atoms: N_2  and  C_3
REMARK    3  A    between atoms: N_2  and  C_4
REMARK    4  A    between atoms: C_4  and  C_5
REMARK    5  A    between atoms: C_5  and  C_6
REMARK    6  A    between atoms: C_6  and  C_7
REMARK    7  A    between atoms: C_12  and  C_13
REMARK                            x       y       z     vdW  Elec       q    Type
REMARK                         _______ _______ _______ _____ _____    ______ ____
ROOT
ATOM      1  C   UNL     1       6.143   5.711  16.366  0.00  0.00    +0.000 A 
ATOM      2  N   UNL     1       7.462   6.076  16.381  0.00  0.00    +0.000 N 
ATOM      3  N   UNL     1       8.015   6.058  17.600  0.00  0.00    +0.000 NA
ATOM      4  C   UNL     1       7.027   5.658  18.398  0.00  0.00    +0.000 A 
ATOM      5  N   UNL     1       7.205   5.533  19.719  0.00  0.00    +0.000 N 
ATOM      6  C   UNL     1       5.834   5.394  17.677  0.00  0.00    +0.000 A 
ATOM      7  H   UNL     1       8.019   6.400  15.594  0.00  0.00    +0.000 HD
ATOM      8  H   UNL     1       8.161   5.563  20.055  0.00  0.00    +0.000 HD
ATOM      9  H   UNL     1       6.577   4.980  20.287  0.00  0.00    +0.000 HD
ENDROOT
BRANCH   6  10
ATOM     10  C   UNL     1       4.500   4.899  18.155  0.00  0.00    +0.000 A 
ATOM     11  N   UNL     1       3.963   3.795  17.676  0.00  0.00    +0.000 NA
ATOM     12  C   UNL     1       2.805   3.483  18.363  0.00  0.00    +0.000 A 
ATOM     13  C   UNL     1       2.016   2.331  18.173  0.00  0.00    +0.000 A 
ATOM     14  C   UNL     1       0.879   2.131  18.964  0.00  0.00    +0.000 A 
ATOM     15  C   UNL     1       0.511   3.072  19.921  0.00  0.00    +0.000 A 
ATOM     16  C   UNL     1       1.271   4.229  20.118  0.00  0.00    +0.000 A 
ATOM     17  C   UNL     1       2.423   4.406  19.334  0.00  0.00    +0.000 A 
ATOM     18  S   UNL     1       3.574   5.680  19.373  0.00  0.00    +0.000 S 
ENDBRANCH   6  10
BRANCH   1  19
ATOM     19  C   UNL     1       5.341   5.790  15.114  0.00  0.00    +0.000 C 
BRANCH  19  20
ATOM     20  C   UNL     1       5.164   4.404  14.480  0.00  0.00    +0.000 C 
BRANCH  20  21
ATOM     21  C   UNL     1       6.391   3.914  13.689  0.00  0.00    +0.000 C 
BRANCH  21  23
ATOM     22  C   UNL     1       7.111   2.849  11.631  0.00  0.00    +0.000 C 
ATOM     23  N   UNL     1       6.151   3.777  12.240  0.00  0.00    +0.000 NA
ATOM     24  C   UNL     1       4.787   3.293  12.002  0.00  0.00    +0.000 C 
ENDBRANCH  21  23
ENDBRANCH  20  21
ENDBRANCH  19  20
ENDBRANCH   1  19
TORSDOF 5
ENDMDL
