MODEL 1
REMARK VINA RESULT:      -9.3      0.000      0.000
REMARK  Name = 
REMARK  7 active torsions:
REMARK  status: ('A' for Active; 'I' for Inactive)
REMARK    1  A    between atoms: C_2  and  C_16
REMARK    2  A    between atoms: N_3  and  C_4
REMARK    3  A    between atoms: C_4  and  C_5
REMARK    4  A    between atoms: C_5  and  C_6
REMARK    5  A    between atoms: C_19  and  C_20
REMARK    6  A    between atoms: C_20  and  C_21
REMARK    7  A    between atoms: C_25  and  C_26
REMARK                            x       y       z     vdW  Elec       q    Type
REMARK                         _______ _______ _______ _____ _____    ______ ____
ROOT
ATOM      1  O   UNL     1       1.950   5.117  18.836  0.00  0.00    +0.000 OA
ATOM      2  C   UNL     1       2.728   6.058  18.735  0.00  0.00    +0.000 C 
ATOM      3  N   UNL     1       4.084   5.917  18.536  0.00  0.00    +0.000 N 
ATOM      4  H   UNL     1       4.680   6.692  18.800  0.00  0.00    +0.000 HD
ENDROOT
BRANCH   2   5
ATOM      5  C   UNL     1       2.241   7.459  18.864  0.00  0.00    +0.000 A 
ATOM      6  C   UNL     1       1.535   7.834  20.010  0.00  0.00    +0.000 A 
ATOM      7  C   UNL     1       1.054   9.140  20.139  0.00  0.00    +0.000 A 
ATOM      8  C   UNL     1       1.256  10.083  19.119  0.00  0.00    +0.000 A 
ATOM      9  C   UNL     1       1.966   9.696  17.972  0.00  0.00    +0.000 A 
ATOM     10  C   UNL     1       2.449   8.392  17.841  0.00  0.00    +0.000 A 
BRANCH   8  11
ATOM     11  C   UNL     1       0.700  11.483  19.242  0.00  0.00    +0.000 C 
BRANCH  11  12
ATOM     12  C   UNL     1      -0.794  11.583  19.046  0.00  0.00    +0.000 A 
ATOM     13  C   UNL     1      -1.605  12.157  20.035  0.00  0.00    +0.000 A 
ATOM     14  C   UNL     1      -2.987  12.245  19.859  0.00  0.00    +0.000 A 
ATOM     15  C   UNL     1      -3.575  11.773  18.686  0.00  0.00    +0.000 A 
ATOM     16  C   UNL     1      -2.786  11.207  17.675  0.00  0.00    +0.000 A 
ATOM     17  C   UNL     1      -1.397  11.108  17.870  0.00  0.00    +0.000 A 
BRANCH  16  18
ATOM     18  C   UNL     1      -3.404  10.721  16.388  0.00  0.00    +0.000 C 
ATOM     19  F   UNL     1      -4.642  11.238  16.145  0.00  0.00    +0.000 F 
ATOM     20  F   UNL     1      -2.651  11.038  15.297  0.00  0.00    +0.000 F 
ATOM     21  F   UNL     1      -3.554   9.367  16.356  0.00  0.00    +0.000 F 
ENDBRANCH  16  18
ENDBRANCH  11  12
ENDBRANCH   8  11
ENDBRANCH   2   5
BRANCH   3  22
ATOM     22  C   UNL     1       4.689   4.597  18.505  0.00  0.00    +0.000 C 
BRANCH  22  23
ATOM     23  C   UNL     1       4.709   3.982  17.104  0.00  0.00    +0.000 C 
BRANCH  23  24
ATOM     24  C   UNL     1       5.803   4.524  16.229  0.00  0.00    +0.000 A 
ATOM     25  C   UNL     1       6.832   5.357  16.625  0.00  0.00    +0.000 A 
ATOM     26  N   UNL     1       7.612   5.632  15.534  0.00  0.00    +0.000 N 
ATOM     27  C   UNL     1       7.119   4.986  14.424  0.00  0.00    +0.000 A 
ATOM     28  C   UNL     1       7.594   4.974  13.106  0.00  0.00    +0.000 A 
ATOM     29  C   UNL     1       6.887   4.214  12.171  0.00  0.00    +0.000 A 
ATOM     30  C   UNL     1       5.754   3.499  12.548  0.00  0.00    +0.000 A 
ATOM     31 CL   UNL     1       4.905   2.570  11.370  0.00  0.00    +0.000 Cl
ATOM     32  C   UNL     1       5.288   3.521  13.866  0.00  0.00    +0.000 A 
ATOM     33  C   UNL     1       5.985   4.280  14.829  0.00  0.00    +0.000 A 
ATOM     34  H   UNL     1       8.433   6.220  15.539  0.00  0.00    +0.000 HD
ENDBRANCH  23  24
ENDBRANCH  22  23
ENDBRANCH   3  22
TORSDOF 7
ENDMDL
MODEL 2
REMARK VINA RESULT:      -9.1      0.365      1.090
REMARK  Name = 
REMARK  7 active torsions:
REMARK  status: ('A' for Active; 'I' for Inactive)
REMARK    1  A    between atoms: C_2  and  C_16
REMARK    2  A    between atoms: N_3  and  C_4
REMARK    3  A    between atoms: C_4  and  C_5
REMARK    4  A    between atoms: C_5  and  C_6
REMARK    5  A    between atoms: C_19  and  C_20
REMARK    6  A    between atoms: C_20  and  C_21
REMARK    7  A    between atoms: C_25  and  C_26
REMARK                            x       y       z     vdW  Elec       q    Type
REMARK                         _______ _______ _______ _____ _____    ______ ____
ROOT
ATOM      1  O   UNL     1       1.985   5.110  18.186  0.00  0.00    +0.000 OA
ATOM      2  C   UNL     1       2.759   6.034  18.405  0.00  0.00    +0.000 C 
ATOM      3  N   UNL     1       4.128   5.892  18.474  0.00  0.00    +0.000 N 
ATOM      4  H   UNL     1       4.649   6.598  18.980  0.00  0.00    +0.000 HD
ENDROOT
BRANCH   2   5
ATOM      5  C   UNL     1       2.245   7.408  18.657  0.00  0.00    +0.000 A 
ATOM      6  C   UNL     1       2.350   8.372  17.650  0.00  0.00    +0.000 A 
ATOM      7  C   UNL     1       1.890   9.673  17.877  0.00  0.00    +0.000 A 
ATOM      8  C   UNL     1       1.336  10.032  19.115  0.00  0.00    +0.000 A 
ATOM      9  C   UNL     1       1.235   9.057  20.119  0.00  0.00    +0.000 A 
ATOM     10  C   UNL     1       1.693   7.756  19.896  0.00  0.00    +0.000 A 
BRANCH   8  11
ATOM     11  C   UNL     1       0.876  11.449  19.372  0.00  0.00    +0.000 C 
BRANCH  11  12
ATOM     12  C   UNL     1      -0.618  11.650  19.272  0.00  0.00    +0.000 A 
ATOM     13  C   UNL     1      -1.335  12.203  20.342  0.00  0.00    +0.000 A 
ATOM     14  C   UNL     1      -2.716  12.384  20.256  0.00  0.00    +0.000 A 
ATOM     15  C   UNL     1      -3.397  12.029  19.092  0.00  0.00    +0.000 A 
ATOM     16  C   UNL     1      -2.703  11.487  18.001  0.00  0.00    +0.000 A 
ATOM     17  C   UNL     1      -1.314  11.293  18.106  0.00  0.00    +0.000 A 
BRANCH  16  18
ATOM     18  C   UNL     1      -3.421  11.127  16.724  0.00  0.00    +0.000 C 
ATOM     19  F   UNL     1      -4.039   9.913  16.767  0.00  0.00    +0.000 F 
ATOM     20  F   UNL     1      -4.394  12.026  16.405  0.00  0.00    +0.000 F 
ATOM     21  F   UNL     1      -2.587  11.082  15.648  0.00  0.00    +0.000 F 
ENDBRANCH  16  18
ENDBRANCH  11  12
ENDBRANCH   8  11
ENDBRANCH   2   5
BRANCH   3  22
ATOM     22  C   UNL     1       4.736   4.578  18.355  0.00  0.00    +0.000 C 
BRANCH  22  23
ATOM     23  C   UNL     1       4.725   4.042  16.922  0.00  0.00    +0.000 C 
BRANCH  23  24
ATOM     24  C   UNL     1       5.828   4.598  16.067  0.00  0.00    +0.000 A 
ATOM     25  C   UNL     1       6.803   5.493  16.466  0.00  0.00    +0.000 A 
ATOM     26  N   UNL     1       7.613   5.758  15.396  0.00  0.00    +0.000 N 
ATOM     27  C   UNL     1       7.194   5.046  14.296  0.00  0.00    +0.000 A 
ATOM     28  C   UNL     1       7.722   5.002  12.999  0.00  0.00    +0.000 A 
ATOM     29  C   UNL     1       7.088   4.173  12.070  0.00  0.00    +0.000 A 
ATOM     30  C   UNL     1       5.973   3.424  12.433  0.00  0.00    +0.000 A 
ATOM     31 CL   UNL     1       5.214   2.410  11.264  0.00  0.00    +0.000 Cl
ATOM     32  C   UNL     1       5.453   3.478  13.730  0.00  0.00    +0.000 A 
ATOM     33  C   UNL     1       6.077   4.306  14.687  0.00  0.00    +0.000 A 
ATOM     34  H   UNL     1       8.407   6.383  15.407  0.00  0.00    +0.000 HD
ENDBRANCH  23  24
ENDBRANCH  22  23
ENDBRANCH   3  22
TORSDOF 7
ENDMDL
MODEL 3
REMARK VINA RESULT:      -9.0      1.473      1.954
REMARK  Name = 
REMARK  7 active torsions:
REMARK  status: ('A' for Active; 'I' for Inactive)
REMARK    1  A    between atoms: C_2  and  C_16
REMARK    2  A    between atoms: N_3  and  C_4
REMARK    3  A    between atoms: C_4  and  C_5
REMARK    4  A    between atoms: C_5  and  C_6
REMARK    5  A    between atoms: C_19  and  C_20
REMARK    6  A    between atoms: C_20  and  C_21
REMARK    7  A    between atoms: C_25  and  C_26
REMARK                            x       y       z     vdW  Elec       q    Type
REMARK                         _______ _______ _______ _____ _____    ______ ____
ROOT
ATOM      1  O   UNL     1       3.262   5.792  20.335  0.00  0.00    +0.000 OA
ATOM      2  C   UNL     1       2.995   6.289  19.247  0.00  0.00    +0.000 C 
ATOM      3  N   UNL     1       3.387   5.754  18.039  0.00  0.00    +0.000 N 
ATOM      4  H   UNL     1       3.427   6.376  17.241  0.00  0.00    +0.000 HD
ENDROOT
BRANCH   2   5
ATOM      5  C   UNL     1       2.237   7.568  19.165  0.00  0.00    +0.000 A 
ATOM      6  C   UNL     1       1.521   8.010  20.282  0.00  0.00    +0.000 A 
ATOM      7  C   UNL     1       0.788   9.199  20.216  0.00  0.00    +0.000 A 
ATOM      8  C   UNL     1       0.746   9.950  19.031  0.00  0.00    +0.000 A 
ATOM      9  C   UNL     1       1.468   9.498  17.917  0.00  0.00    +0.000 A 
ATOM     10  C   UNL     1       2.202   8.311  17.980  0.00  0.00    +0.000 A 
BRANCH   8  11
ATOM     11  C   UNL     1      -0.080  11.214  18.950  0.00  0.00    +0.000 C 
BRANCH  11  12
ATOM     12  C   UNL     1      -1.499  11.005  18.475  0.00  0.00    +0.000 A 
ATOM     13  C   UNL     1      -1.790  10.034  17.508  0.00  0.00    +0.000 A 
ATOM     14  C   UNL     1      -3.099   9.843  17.062  0.00  0.00    +0.000 A 
ATOM     15  C   UNL     1      -4.137  10.611  17.590  0.00  0.00    +0.000 A 
ATOM     16  C   UNL     1      -3.876  11.580  18.568  0.00  0.00    +0.000 A 
ATOM     17  C   UNL     1      -2.551  11.775  18.997  0.00  0.00    +0.000 A 
BRANCH  16  18
ATOM     18  C   UNL     1      -4.992  12.397  19.170  0.00  0.00    +0.000 C 
ATOM     19  F   UNL     1      -4.581  13.589  19.689  0.00  0.00    +0.000 F 
ATOM     20  F   UNL     1      -5.959  12.704  18.260  0.00  0.00    +0.000 F 
ATOM     21  F   UNL     1      -5.628  11.749  20.185  0.00  0.00    +0.000 F 
ENDBRANCH  16  18
ENDBRANCH  11  12
ENDBRANCH   8  11
ENDBRANCH   2   5
BRANCH   3  22
ATOM     22  C   UNL     1       4.225   4.568  17.999  0.00  0.00    +0.000 C 
BRANCH  22  23
ATOM     23  C   UNL     1       4.354   3.976  16.594  0.00  0.00    +0.000 C 
BRANCH  23  24
ATOM     24  C   UNL     1       5.509   4.537  15.813  0.00  0.00    +0.000 A 
ATOM     25  C   UNL     1       6.424   5.471  16.260  0.00  0.00    +0.000 A 
ATOM     26  N   UNL     1       7.312   5.727  15.250  0.00  0.00    +0.000 N 
ATOM     27  C   UNL     1       7.003   4.970  14.144  0.00  0.00    +0.000 A 
ATOM     28  C   UNL     1       7.636   4.901  12.896  0.00  0.00    +0.000 A 
ATOM     29  C   UNL     1       7.102   4.026  11.947  0.00  0.00    +0.000 A 
ATOM     30  C   UNL     1       5.981   3.256  12.243  0.00  0.00    +0.000 A 
ATOM     31 CL   UNL     1       5.347   2.185  11.051  0.00  0.00    +0.000 Cl
ATOM     32  C   UNL     1       5.356   3.335  13.492  0.00  0.00    +0.000 A 
ATOM     33  C   UNL     1       5.878   4.210  14.467  0.00  0.00    +0.000 A 
ATOM     34  H   UNL     1       8.085   6.374  15.305  0.00  0.00    +0.000 HD
ENDBRANCH  23  24
ENDBRANCH  22  23
ENDBRANCH   3  22
TORSDOF 7
ENDMDL
MODEL 4
REMARK VINA RESULT:      -8.7      6.144     11.631
REMARK  Name = 
REMARK  7 active torsions:
REMARK  status: ('A' for Active; 'I' for Inactive)
REMARK    1  A    between atoms: C_2  and  C_16
REMARK    2  A    between atoms: N_3  and  C_4
REMARK    3  A    between atoms: C_4  and  C_5
REMARK    4  A    between atoms: C_5  and  C_6
REMARK    5  A    between atoms: C_19  and  C_20
REMARK    6  A    between atoms: C_20  and  C_21
REMARK    7  A    between atoms: C_25  and  C_26
REMARK                            x       y       z     vdW  Elec       q    Type
REMARK                         _______ _______ _______ _____ _____    ______ ____
ROOT
ATOM      1  O   UNL     1       0.241   9.666  23.552  0.00  0.00    +0.000 OA
ATOM      2  C   UNL     1       0.006  10.079  22.421  0.00  0.00    +0.000 C 
ATOM      3  N   UNL     1      -0.884  11.093  22.142  0.00  0.00    +0.000 N 
ATOM      4  H   UNL     1      -1.265  11.138  21.205  0.00  0.00    +0.000 HD
ENDROOT
BRANCH   2   5
ATOM      5  C   UNL     1       0.664   9.460  21.238  0.00  0.00    +0.000 A 
ATOM      6  C   UNL     1       0.566  10.090  19.994  0.00  0.00    +0.000 A 
ATOM      7  C   UNL     1       1.161   9.513  18.869  0.00  0.00    +0.000 A 
ATOM      8  C   UNL     1       1.847   8.292  18.968  0.00  0.00    +0.000 A 
ATOM      9  C   UNL     1       1.940   7.668  20.220  0.00  0.00    +0.000 A 
ATOM     10  C   UNL     1       1.347   8.243  21.347  0.00  0.00    +0.000 A 
BRANCH   8  11
ATOM     11  C   UNL     1       2.455   7.649  17.742  0.00  0.00    +0.000 C 
BRANCH  11  12
ATOM     12  C   UNL     1       3.076   6.294  17.989  0.00  0.00    +0.000 A 
ATOM     13  C   UNL     1       4.465   6.159  18.117  0.00  0.00    +0.000 A 
ATOM     14  C   UNL     1       5.042   4.908  18.338  0.00  0.00    +0.000 A 
ATOM     15  C   UNL     1       4.235   3.776  18.450  0.00  0.00    +0.000 A 
ATOM     16  C   UNL     1       2.842   3.883  18.340  0.00  0.00    +0.000 A 
ATOM     17  C   UNL     1       2.273   5.146  18.100  0.00  0.00    +0.000 A 
BRANCH  16  18
ATOM     18  C   UNL     1       1.955   2.672  18.490  0.00  0.00    +0.000 C 
ATOM     19  F   UNL     1       0.634   2.930  18.275  0.00  0.00    +0.000 F 
ATOM     20  F   UNL     1       2.284   1.677  17.619  0.00  0.00    +0.000 F 
ATOM     21  F   UNL     1       2.028   2.118  19.732  0.00  0.00    +0.000 F 
ENDBRANCH  16  18
ENDBRANCH  11  12
ENDBRANCH   8  11
ENDBRANCH   2   5
BRANCH   3  22
ATOM     22  C   UNL     1      -1.667  11.697  23.205  0.00  0.00    +0.000 C 
BRANCH  22  23
ATOM     23  C   UNL     1      -2.177  13.096  22.852  0.00  0.00    +0.000 C 
BRANCH  23  24
ATOM     24  C   UNL     1      -3.269  13.090  21.820  0.00  0.00    +0.000 A 
ATOM     25  C   UNL     1      -3.106  12.944  20.455  0.00  0.00    +0.000 A 
ATOM     26  N   UNL     1      -4.338  13.002  19.862  0.00  0.00    +0.000 N 
ATOM     27  C   UNL     1      -5.316  13.176  20.815  0.00  0.00    +0.000 A 
ATOM     28  C   UNL     1      -6.705  13.281  20.669  0.00  0.00    +0.000 A 
ATOM     29  C   UNL     1      -7.466  13.449  21.829  0.00  0.00    +0.000 A 
ATOM     30  C   UNL     1      -6.854  13.507  23.077  0.00  0.00    +0.000 A 
ATOM     31 CL   UNL     1      -7.821  13.714  24.488  0.00  0.00    +0.000 Cl
ATOM     32  C   UNL     1      -5.466  13.403  23.210  0.00  0.00    +0.000 A 
ATOM     33  C   UNL     1      -4.676  13.232  22.054  0.00  0.00    +0.000 A 
ATOM     34  H   UNL     1      -4.511  12.925  18.870  0.00  0.00    +0.000 HD
ENDBRANCH  23  24
ENDBRANCH  22  23
ENDBRANCH   3  22
TORSDOF 7
ENDMDL
MODEL 5
REMARK VINA RESULT:      -8.6      5.514     11.020
REMARK  Name = 
REMARK  7 active torsions:
REMARK  status: ('A' for Active; 'I' for Inactive)
REMARK    1  A    between atoms: C_2  and  C_16
REMARK    2  A    between atoms: N_3  and  C_4
REMARK    3  A    between atoms: C_4  and  C_5
REMARK    4  A    between atoms: C_5  and  C_6
REMARK    5  A    between atoms: C_19  and  C_20
REMARK    6  A    between atoms: C_20  and  C_21
REMARK    7  A    between atoms: C_25  and  C_26
REMARK                            x       y       z     vdW  Elec       q    Type
REMARK                         _______ _______ _______ _____ _____    ______ ____
ROOT
ATOM      1  O   UNL     1       0.831  10.668  21.668  0.00  0.00    +0.000 OA
ATOM      2  C   UNL     1       0.745  10.324  20.495  0.00  0.00    +0.000 C 
ATOM      3  N   UNL     1       0.131  11.074  19.515  0.00  0.00    +0.000 N 
ATOM      4  H   UNL     1      -0.191  10.590  18.687  0.00  0.00    +0.000 HD
ENDROOT
BRANCH   2   5
ATOM      5  C   UNL     1       1.284   9.009  20.051  0.00  0.00    +0.000 A 
ATOM      6  C   UNL     1       1.686   8.849  18.722  0.00  0.00    +0.000 A 
ATOM      7  C   UNL     1       2.176   7.615  18.283  0.00  0.00    +0.000 A 
ATOM      8  C   UNL     1       2.255   6.523  19.160  0.00  0.00    +0.000 A 
ATOM      9  C   UNL     1       1.849   6.694  20.492  0.00  0.00    +0.000 A 
ATOM     10  C   UNL     1       1.359   7.925  20.934  0.00  0.00    +0.000 A 
BRANCH   8  11
ATOM     11  C   UNL     1       2.748   5.179  18.674  0.00  0.00    +0.000 C 
BRANCH  11  12
ATOM     12  C   UNL     1       4.199   5.157  18.256  0.00  0.00    +0.000 A 
ATOM     13  C   UNL     1       5.215   5.360  19.201  0.00  0.00    +0.000 A 
ATOM     14  C   UNL     1       6.556   5.347  18.817  0.00  0.00    +0.000 A 
ATOM     15  C   UNL     1       6.902   5.116  17.485  0.00  0.00    +0.000 A 
ATOM     16  C   UNL     1       5.907   4.897  16.522  0.00  0.00    +0.000 A 
ATOM     17  C   UNL     1       4.558   4.929  16.918  0.00  0.00    +0.000 A 
BRANCH  16  18
ATOM     18  C   UNL     1       6.266   4.615  15.085  0.00  0.00    +0.000 C 
ATOM     19  F   UNL     1       7.440   5.185  14.692  0.00  0.00    +0.000 F 
ATOM     20  F   UNL     1       6.401   3.282  14.835  0.00  0.00    +0.000 F 
ATOM     21  F   UNL     1       5.323   5.065  14.211  0.00  0.00    +0.000 F 
ENDBRANCH  16  18
ENDBRANCH  11  12
ENDBRANCH   8  11
ENDBRANCH   2   5
BRANCH   3  22
ATOM     22  C   UNL     1      -0.528  12.323  19.853  0.00  0.00    +0.000 C 
BRANCH  22  23
ATOM     23  C   UNL     1      -1.989  12.135  20.269  0.00  0.00    +0.000 C 
BRANCH  23  24
ATOM     24  C   UNL     1      -2.928  11.999  19.105  0.00  0.00    +0.000 A 
ATOM     25  C   UNL     1      -2.578  11.730  17.795  0.00  0.00    +0.000 A 
ATOM     26  N   UNL     1      -3.717  11.694  17.038  0.00  0.00    +0.000 N 
ATOM     27  C   UNL     1      -4.819  11.927  17.829  0.00  0.00    +0.000 A 
ATOM     28  C   UNL     1      -6.177  11.975  17.488  0.00  0.00    +0.000 A 
ATOM     29  C   UNL     1      -7.093  12.228  18.513  0.00  0.00    +0.000 A 
ATOM     30  C   UNL     1      -6.658  12.422  19.821  0.00  0.00    +0.000 A 
ATOM     31 CL   UNL     1      -7.813  12.730  21.062  0.00  0.00    +0.000 Cl
ATOM     32  C   UNL     1      -5.300  12.373  20.149  0.00  0.00    +0.000 A 
ATOM     33  C   UNL     1      -4.356  12.118  19.132  0.00  0.00    +0.000 A 
ATOM     34  H   UNL     1      -3.752  11.520  16.044  0.00  0.00    +0.000 HD
ENDBRANCH  23  24
ENDBRANCH  22  23
ENDBRANCH   3  22
TORSDOF 7
ENDMDL
MODEL 6
REMARK VINA RESULT:      -8.6      5.623     10.225
REMARK  Name = 
REMARK  7 active torsions:
REMARK  status: ('A' for Active; 'I' for Inactive)
REMARK    1  A    between atoms: C_2  and  C_16
REMARK    2  A    between atoms: N_3  and  C_4
REMARK    3  A    between atoms: C_4  and  C_5
REMARK    4  A    between atoms: C_5  and  C_6
REMARK    5  A    between atoms: C_19  and  C_20
REMARK    6  A    between atoms: C_20  and  C_21
REMARK    7  A    between atoms: C_25  and  C_26
REMARK                            x       y       z     vdW  Elec       q    Type
REMARK                         _______ _______ _______ _____ _____    ______ ____
ROOT
ATOM      1  O   UNL     1       0.301   9.764  23.538  0.00  0.00    +0.000 OA
ATOM      2  C   UNL     1      -0.005  10.093  22.397  0.00  0.00    +0.000 C 
ATOM      3  N   UNL     1      -0.988  11.012  22.099  0.00  0.00    +0.000 N 
ATOM      4  H   UNL     1      -1.403  10.973  21.176  0.00  0.00    +0.000 HD
ENDROOT
BRANCH   2   5
ATOM      5  C   UNL     1       0.665   9.468  21.224  0.00  0.00    +0.000 A 
ATOM      6  C   UNL     1       0.648  10.133  19.994  0.00  0.00    +0.000 A 
ATOM      7  C   UNL     1       1.255   9.551  18.877  0.00  0.00    +0.000 A 
ATOM      8  C   UNL     1       1.870   8.293  18.969  0.00  0.00    +0.000 A 
ATOM      9  C   UNL     1       1.881   7.635  20.208  0.00  0.00    +0.000 A 
ATOM     10  C   UNL     1       1.276   8.213  21.326  0.00  0.00    +0.000 A 
BRANCH   8  11
ATOM     11  C   UNL     1       2.491   7.647  17.751  0.00  0.00    +0.000 C 
BRANCH  11  12
ATOM     12  C   UNL     1       3.123   6.300  18.010  0.00  0.00    +0.000 A 
ATOM     13  C   UNL     1       4.501   6.192  18.240  0.00  0.00    +0.000 A 
ATOM     14  C   UNL     1       5.089   4.948  18.473  0.00  0.00    +0.000 A 
ATOM     15  C   UNL     1       4.303   3.796  18.494  0.00  0.00    +0.000 A 
ATOM     16  C   UNL     1       2.920   3.876  18.280  0.00  0.00    +0.000 A 
ATOM     17  C   UNL     1       2.342   5.133  18.030  0.00  0.00    +0.000 A 
BRANCH  16  18
ATOM     18  C   UNL     1       2.053   2.642  18.331  0.00  0.00    +0.000 C 
ATOM     19  F   UNL     1       2.302   1.757  17.325  0.00  0.00    +0.000 F 
ATOM     20  F   UNL     1       2.215   1.941  19.488  0.00  0.00    +0.000 F 
ATOM     21  F   UNL     1       0.725   2.931  18.252  0.00  0.00    +0.000 F 
ENDBRANCH  16  18
ENDBRANCH  11  12
ENDBRANCH   8  11
ENDBRANCH   2   5
BRANCH   3  22
ATOM     22  C   UNL     1      -1.785  11.604  23.159  0.00  0.00    +0.000 C 
BRANCH  22  23
ATOM     23  C   UNL     1      -1.593  13.119  23.275  0.00  0.00    +0.000 C 
BRANCH  23  24
ATOM     24  C   UNL     1      -1.584  13.823  21.948  0.00  0.00    +0.000 A 
ATOM     25  C   UNL     1      -2.686  14.295  21.262  0.00  0.00    +0.000 A 
ATOM     26  N   UNL     1      -2.260  14.864  20.093  0.00  0.00    +0.000 N 
ATOM     27  C   UNL     1      -0.890  14.784  19.998  0.00  0.00    +0.000 A 
ATOM     28  C   UNL     1      -0.031  15.236  18.989  0.00  0.00    +0.000 A 
ATOM     29  C   UNL     1       1.340  15.022  19.162  0.00  0.00    +0.000 A 
ATOM     30  C   UNL     1       1.819  14.381  20.301  0.00  0.00    +0.000 A 
ATOM     31 CL   UNL     1       3.515  14.133  20.485  0.00  0.00    +0.000 Cl
ATOM     32  C   UNL     1       0.951  13.932  21.301  0.00  0.00    +0.000 A 
ATOM     33  C   UNL     1      -0.436  14.138  21.150  0.00  0.00    +0.000 A 
ATOM     34  H   UNL     1      -2.860  15.286  19.398  0.00  0.00    +0.000 HD
ENDBRANCH  23  24
ENDBRANCH  22  23
ENDBRANCH   3  22
TORSDOF 7
ENDMDL
MODEL 7
REMARK VINA RESULT:      -8.6      5.957     10.545
REMARK  Name = 
REMARK  7 active torsions:
REMARK  status: ('A' for Active; 'I' for Inactive)
REMARK    1  A    between atoms: C_2  and  C_16
REMARK    2  A    between atoms: N_3  and  C_4
REMARK    3  A    between atoms: C_4  and  C_5
REMARK    4  A    between atoms: C_5  and  C_6
REMARK    5  A    between atoms: C_19  and  C_20
REMARK    6  A    between atoms: C_20  and  C_21
REMARK    7  A    between atoms: C_25  and  C_26
REMARK                            x       y       z     vdW  Elec       q    Type
REMARK                         _______ _______ _______ _____ _____    ______ ____
ROOT
ATOM      1  O   UNL     1       1.382  11.086  21.553  0.00  0.00    +0.000 OA
ATOM      2  C   UNL     1       0.666  10.415  20.819  0.00  0.00    +0.000 C 
ATOM      3  N   UNL     1      -0.697  10.584  20.709  0.00  0.00    +0.000 N 
ATOM      4  H   UNL     1      -1.240   9.802  20.365  0.00  0.00    +0.000 HD
ENDROOT
BRANCH   2   5
ATOM      5  C   UNL     1       1.243   9.312  20.002  0.00  0.00    +0.000 A 
ATOM      6  C   UNL     1       1.633   8.127  20.632  0.00  0.00    +0.000 A 
ATOM      7  C   UNL     1       2.195   7.089  19.883  0.00  0.00    +0.000 A 
ATOM      8  C   UNL     1       2.390   7.227  18.500  0.00  0.00    +0.000 A 
ATOM      9  C   UNL     1       1.994   8.420  17.877  0.00  0.00    +0.000 A 
ATOM     10  C   UNL     1       1.432   9.459  18.623  0.00  0.00    +0.000 A 
BRANCH   8  11
ATOM     11  C   UNL     1       3.034   6.119  17.698  0.00  0.00    +0.000 C 
BRANCH  11  12
ATOM     12  C   UNL     1       2.724   4.726  18.194  0.00  0.00    +0.000 A 
ATOM     13  C   UNL     1       2.603   3.660  17.292  0.00  0.00    +0.000 A 
ATOM     14  C   UNL     1       2.311   2.373  17.746  0.00  0.00    +0.000 A 
ATOM     15  C   UNL     1       2.150   2.132  19.110  0.00  0.00    +0.000 A 
ATOM     16  C   UNL     1       2.280   3.177  20.035  0.00  0.00    +0.000 A 
ATOM     17  C   UNL     1       2.558   4.472  19.565  0.00  0.00    +0.000 A 
BRANCH  16  18
ATOM     18  C   UNL     1       2.140   2.925  21.516  0.00  0.00    +0.000 C 
ATOM     19  F   UNL     1       3.005   1.988  21.997  0.00  0.00    +0.000 F 
ATOM     20  F   UNL     1       2.362   4.047  22.257  0.00  0.00    +0.000 F 
ATOM     21  F   UNL     1       0.895   2.492  21.859  0.00  0.00    +0.000 F 
ENDBRANCH  16  18
ENDBRANCH  11  12
ENDBRANCH   8  11
ENDBRANCH   2   5
BRANCH   3  22
ATOM     22  C   UNL     1      -1.386  11.555  21.540  0.00  0.00    +0.000 C 
BRANCH  22  23
ATOM     23  C   UNL     1      -1.952  12.731  20.742  0.00  0.00    +0.000 C 
BRANCH  23  24
ATOM     24  C   UNL     1      -2.551  12.326  19.425  0.00  0.00    +0.000 A 
ATOM     25  C   UNL     1      -1.871  12.143  18.236  0.00  0.00    +0.000 A 
ATOM     26  N   UNL     1      -2.772  11.786  17.270  0.00  0.00    +0.000 N 
ATOM     27  C   UNL     1      -4.038  11.722  17.804  0.00  0.00    +0.000 A 
ATOM     28  C   UNL     1      -5.255  11.394  17.193  0.00  0.00    +0.000 A 
ATOM     29  C   UNL     1      -6.403  11.403  17.991  0.00  0.00    +0.000 A 
ATOM     30  C   UNL     1      -6.324  11.728  19.342  0.00  0.00    +0.000 A 
ATOM     31 CL   UNL     1      -7.757  11.729  20.299  0.00  0.00    +0.000 Cl
ATOM     32  C   UNL     1      -5.104  12.056  19.940  0.00  0.00    +0.000 A 
ATOM     33  C   UNL     1      -3.931  12.053  19.156  0.00  0.00    +0.000 A 
ATOM     34  H   UNL     1      -2.545  11.594  16.305  0.00  0.00    +0.000 HD
ENDBRANCH  23  24
ENDBRANCH  22  23
ENDBRANCH   3  22
TORSDOF 7
ENDMDL
MODEL 8
REMARK VINA RESULT:      -8.6      3.270      4.957
REMARK  Name = 
REMARK  7 active torsions:
REMARK  status: ('A' for Active; 'I' for Inactive)
REMARK    1  A    between atoms: C_2  and  C_16
REMARK    2  A    between atoms: N_3  and  C_4
REMARK    3  A    between atoms: C_4  and  C_5
REMARK    4  A    between atoms: C_5  and  C_6
REMARK    5  A    between atoms: C_19  and  C_20
REMARK    6  A    between atoms: C_20  and  C_21
REMARK    7  A    between atoms: C_25  and  C_26
REMARK                            x       y       z     vdW  Elec       q    Type
REMARK                         _______ _______ _______ _____ _____    ______ ____
ROOT
ATOM      1  O   UNL     1       1.560   9.019  22.193  0.00  0.00    +0.000 OA
ATOM      2  C   UNL     1       0.843   9.317  21.245  0.00  0.00    +0.000 C 
ATOM      3  N   UNL     1       0.986   8.794  19.977  0.00  0.00    +0.000 N 
ATOM      4  H   UNL     1       0.600   9.324  19.206  0.00  0.00    +0.000 HD
ENDROOT
BRANCH   2   5
ATOM      5  C   UNL     1      -0.240  10.326  21.403  0.00  0.00    +0.000 A 
ATOM      6  C   UNL     1      -0.688  11.028  20.281  0.00  0.00    +0.000 A 
ATOM      7  C   UNL     1      -1.691  11.994  20.415  0.00  0.00    +0.000 A 
ATOM      8  C   UNL     1      -2.245  12.281  21.671  0.00  0.00    +0.000 A 
ATOM      9  C   UNL     1      -1.788  11.571  22.791  0.00  0.00    +0.000 A 
ATOM     10  C   UNL     1      -0.787  10.605  22.661  0.00  0.00    +0.000 A 
BRANCH   8  11
ATOM     11  C   UNL     1      -3.300  13.354  21.821  0.00  0.00    +0.000 C 
BRANCH  11  12
ATOM     12  C   UNL     1      -4.704  12.902  21.490  0.00  0.00    +0.000 A 
ATOM     13  C   UNL     1      -5.720  12.972  22.453  0.00  0.00    +0.000 A 
ATOM     14  C   UNL     1      -7.015  12.550  22.153  0.00  0.00    +0.000 A 
ATOM     15  C   UNL     1      -7.316  12.065  20.880  0.00  0.00    +0.000 A 
ATOM     16  C   UNL     1      -6.322  11.996  19.894  0.00  0.00    +0.000 A 
ATOM     17  C   UNL     1      -5.017  12.409  20.213  0.00  0.00    +0.000 A 
BRANCH  16  18
ATOM     18  C   UNL     1      -6.640  11.503  18.504  0.00  0.00    +0.000 C 
ATOM     19  F   UNL     1      -7.147  10.238  18.474  0.00  0.00    +0.000 F 
ATOM     20  F   UNL     1      -7.560  12.285  17.873  0.00  0.00    +0.000 F 
ATOM     21  F   UNL     1      -5.547  11.484  17.691  0.00  0.00    +0.000 F 
ENDBRANCH  16  18
ENDBRANCH  11  12
ENDBRANCH   8  11
ENDBRANCH   2   5
BRANCH   3  22
ATOM     22  C   UNL     1       2.078   7.885  19.677  0.00  0.00    +0.000 C 
BRANCH  22  23
ATOM     23  C   UNL     1       2.483   7.904  18.201  0.00  0.00    +0.000 C 
BRANCH  23  24
ATOM     24  C   UNL     1       3.362   6.751  17.809  0.00  0.00    +0.000 A 
ATOM     25  C   UNL     1       4.647   6.834  17.306  0.00  0.00    +0.000 A 
ATOM     26  N   UNL     1       5.103   5.566  17.066  0.00  0.00    +0.000 N 
ATOM     27  C   UNL     1       4.141   4.644  17.410  0.00  0.00    +0.000 A 
ATOM     28  C   UNL     1       4.172   3.245  17.342  0.00  0.00    +0.000 A 
ATOM     29  C   UNL     1       3.038   2.551  17.772  0.00  0.00    +0.000 A 
ATOM     30  C   UNL     1       1.925   3.237  18.248  0.00  0.00    +0.000 A 
ATOM     31 CL   UNL     1       0.542   2.352  18.771  0.00  0.00    +0.000 Cl
ATOM     32  C   UNL     1       1.905   4.634  18.309  0.00  0.00    +0.000 A 
ATOM     33  C   UNL     1       3.038   5.357  17.883  0.00  0.00    +0.000 A 
ATOM     34  H   UNL     1       6.013   5.335  16.693  0.00  0.00    +0.000 HD
ENDBRANCH  23  24
ENDBRANCH  22  23
ENDBRANCH   3  22
TORSDOF 7
ENDMDL
MODEL 9
REMARK VINA RESULT:      -8.6      2.648      3.506
REMARK  Name = 
REMARK  7 active torsions:
REMARK  status: ('A' for Active; 'I' for Inactive)
REMARK    1  A    between atoms: C_2  and  C_16
REMARK    2  A    between atoms: N_3  and  C_4
REMARK    3  A    between atoms: C_4  and  C_5
REMARK    4  A    between atoms: C_5  and  C_6
REMARK    5  A    between atoms: C_19  and  C_20
REMARK    6  A    between atoms: C_20  and  C_21
REMARK    7  A    between atoms: C_25  and  C_26
REMARK                            x       y       z     vdW  Elec       q    Type
REMARK                         _______ _______ _______ _____ _____    ______ ____
ROOT
ATOM      1  O   UNL     1       2.683   4.849  21.704  0.00  0.00    +0.000 OA
ATOM      2  C   UNL     1       2.140   5.056  20.624  0.00  0.00    +0.000 C 
ATOM      3  N   UNL     1       1.731   4.058  19.765  0.00  0.00    +0.000 N 
ATOM      4  H   UNL     1       1.615   4.299  18.789  0.00  0.00    +0.000 HD
ENDROOT
BRANCH   2   5
ATOM      5  C   UNL     1       1.916   6.447  20.144  0.00  0.00    +0.000 A 
ATOM      6  C   UNL     1       2.383   6.816  18.879  0.00  0.00    +0.000 A 
ATOM      7  C   UNL     1       2.200   8.123  18.419  0.00  0.00    +0.000 A 
ATOM      8  C   UNL     1       1.563   9.082  19.223  0.00  0.00    +0.000 A 
ATOM      9  C   UNL     1       1.098   8.702  20.490  0.00  0.00    +0.000 A 
ATOM     10  C   UNL     1       1.280   7.396  20.952  0.00  0.00    +0.000 A 
BRANCH   8  11
ATOM     11  C   UNL     1       1.401  10.506  18.741  0.00  0.00    +0.000 C 
BRANCH  11  12
ATOM     12  C   UNL     1      -0.026  11.003  18.724  0.00  0.00    +0.000 A 
ATOM     13  C   UNL     1      -0.366  12.213  19.344  0.00  0.00    +0.000 A 
ATOM     14  C   UNL     1      -1.684  12.671  19.335  0.00  0.00    +0.000 A 
ATOM     15  C   UNL     1      -2.677  11.933  18.693  0.00  0.00    +0.000 A 
ATOM     16  C   UNL     1      -2.363  10.726  18.053  0.00  0.00    +0.000 A 
ATOM     17  C   UNL     1      -1.034  10.266  18.083  0.00  0.00    +0.000 A 
BRANCH  16  18
ATOM     18  C   UNL     1      -3.421   9.932  17.328  0.00  0.00    +0.000 C 
ATOM     19  F   UNL     1      -3.010   9.444  16.123  0.00  0.00    +0.000 F 
ATOM     20  F   UNL     1      -3.838   8.849  18.042  0.00  0.00    +0.000 F 
ATOM     21  F   UNL     1      -4.541  10.663  17.071  0.00  0.00    +0.000 F 
ENDBRANCH  16  18
ENDBRANCH  11  12
ENDBRANCH   8  11
ENDBRANCH   2   5
BRANCH   3  22
ATOM     22  C   UNL     1       1.997   2.666  20.078  0.00  0.00    +0.000 C 
BRANCH  22  23
ATOM     23  C   UNL     1       3.175   2.090  19.288  0.00  0.00    +0.000 C 
BRANCH  23  24
ATOM     24  C   UNL     1       3.599   2.954  18.134  0.00  0.00    +0.000 A 
ATOM     25  C   UNL     1       3.008   3.003  16.886  0.00  0.00    +0.000 A 
ATOM     26  N   UNL     1       3.692   3.905  16.116  0.00  0.00    +0.000 N 
ATOM     27  C   UNL     1       4.723   4.459  16.839  0.00  0.00    +0.000 A 
ATOM     28  C   UNL     1       5.669   5.421  16.463  0.00  0.00    +0.000 A 
ATOM     29  C   UNL     1       6.612   5.809  17.419  0.00  0.00    +0.000 A 
ATOM     30  C   UNL     1       6.600   5.253  18.694  0.00  0.00    +0.000 A 
ATOM     31 CL   UNL     1       7.776   5.753  19.850  0.00  0.00    +0.000 Cl
ATOM     32  C   UNL     1       5.652   4.291  19.057  0.00  0.00    +0.000 A 
ATOM     33  C   UNL     1       4.689   3.884  18.111  0.00  0.00    +0.000 A 
ATOM     34  H   UNL     1       3.474   4.136  15.158  0.00  0.00    +0.000 HD
ENDBRANCH  23  24
ENDBRANCH  22  23
ENDBRANCH   3  22
TORSDOF 7
ENDMDL
