MODEL 1
REMARK VINA RESULT:      -7.3      0.000      0.000
REMARK  Name = 
REMARK  15 active torsions:
REMARK  status: ('A' for Active; 'I' for Inactive)
REMARK    1  A    between atoms: C_1  and  O_2
REMARK    2  A    between atoms: O_2  and  C_3
REMARK    3  A    between atoms: C_6  and  C_7
REMARK    4  A    between atoms: C_7  and  C_8
REMARK    5  A    between atoms: C_8  and  C_9
REMARK    6  A    between atoms: C_8  and  C_10
REMARK    7  A    between atoms: C_10  and  C_11
REMARK    8  A    between atoms: C_10  and  C_12
REMARK    9  A    between atoms: C_12  and  C_13
REMARK   10  A    between atoms: C_16  and  O_17
REMARK   11  A    between atoms: O_17  and  C_18
REMARK   12  A    between atoms: C_19  and  O_20
REMARK   13  A    between atoms: O_20  and  C_21
REMARK   14  A    between atoms: C_24  and  O_25
REMARK   15  A    between atoms: O_25  and  C_26
REMARK                            x       y       z     vdW  Elec       q    Type
REMARK                         _______ _______ _______ _____ _____    ______ ____
ROOT
ATOM      1  C   UNL     1       2.680   4.630  18.259  0.00  0.00    +0.000 C 
ATOM      2  C   UNL     1       1.650   3.625  17.710  0.00  0.00    +0.000 C 
ENDROOT
BRANCH   1   3
ATOM      3  C   UNL     1       2.094   5.436  19.459  0.00  0.00    +0.000 C 
ATOM      4  C   UNL     1       2.129   4.655  20.781  0.00  0.00    +0.000 C 
BRANCH   3   5
ATOM      5  C   UNL     1       2.812   6.803  19.571  0.00  0.00    +0.000 C 
BRANCH   5   6
ATOM      6  C   UNL     1       1.930   8.017  19.418  0.00  0.00    +0.000 A 
ATOM      7  C   UNL     1       1.741   8.631  18.188  0.00  0.00    +0.000 A 
ATOM      8  C   UNL     1       0.910   9.748  18.089  0.00  0.00    +0.000 A 
ATOM      9  C   UNL     1       0.261  10.272  19.220  0.00  0.00    +0.000 A 
ATOM     10  C   UNL     1       0.453   9.667  20.472  0.00  0.00    +0.000 A 
ATOM     11  C   UNL     1       1.293   8.545  20.553  0.00  0.00    +0.000 A 
BRANCH   9  12
ATOM     12  O   UNL     1      -0.514  11.360  18.902  0.00  0.00    +0.000 OA
ATOM     13  C   UNL     1       0.058  12.656  18.994  0.00  0.00    +0.000 C 
ENDBRANCH   9  12
BRANCH  10  14
ATOM     14  O   UNL     1      -0.181  10.191  21.567  0.00  0.00    +0.000 OA
ATOM     15  C   UNL     1      -0.318   9.372  22.721  0.00  0.00    +0.000 C 
ENDBRANCH  10  14
ENDBRANCH   5   6
ENDBRANCH   3   5
ENDBRANCH   1   3
BRANCH   1  16
ATOM     16  C   UNL     1       4.034   3.945  18.592  0.00  0.00    +0.000 C 
BRANCH  16  20
ATOM     17  C   UNL     1       6.943   5.042  15.610  0.00  0.00    +0.000 A 
ATOM     18  C   UNL     1       6.017   4.013  15.362  0.00  0.00    +0.000 A 
ATOM     19  C   UNL     1       5.095   3.629  16.332  0.00  0.00    +0.000 A 
ATOM     20  C   UNL     1       5.121   4.228  17.587  0.00  0.00    +0.000 A 
ATOM     21  C   UNL     1       6.158   5.119  17.887  0.00  0.00    +0.000 A 
ATOM     22  C   UNL     1       7.062   5.553  16.910  0.00  0.00    +0.000 A 
BRANCH  17  24
ATOM     23  C   UNL     1       7.426   4.995  13.305  0.00  0.00    +0.000 C 
ATOM     24  O   UNL     1       7.720   5.537  14.596  0.00  0.00    +0.000 OA
ENDBRANCH  17  24
BRANCH  22  25
ATOM     25  O   UNL     1       7.931   6.480  17.412  0.00  0.00    +0.000 OA
ATOM     26  C   UNL     1       7.542   7.839  17.474  0.00  0.00    +0.000 C 
ENDBRANCH  22  25
ENDBRANCH  16  20
ENDBRANCH   1  16
TORSDOF 9
ENDMDL
MODEL 2
REMARK VINA RESULT:      -7.2      0.989      1.160
REMARK  Name = 
REMARK  15 active torsions:
REMARK  status: ('A' for Active; 'I' for Inactive)
REMARK    1  A    between atoms: C_1  and  O_2
REMARK    2  A    between atoms: O_2  and  C_3
REMARK    3  A    between atoms: C_6  and  C_7
REMARK    4  A    between atoms: C_7  and  C_8
REMARK    5  A    between atoms: C_8  and  C_9
REMARK    6  A    between atoms: C_8  and  C_10
REMARK    7  A    between atoms: C_10  and  C_11
REMARK    8  A    between atoms: C_10  and  C_12
REMARK    9  A    between atoms: C_12  and  C_13
REMARK   10  A    between atoms: C_16  and  O_17
REMARK   11  A    between atoms: O_17  and  C_18
REMARK   12  A    between atoms: C_19  and  O_20
REMARK   13  A    between atoms: O_20  and  C_21
REMARK   14  A    between atoms: C_24  and  O_25
REMARK   15  A    between atoms: O_25  and  C_26
REMARK                            x       y       z     vdW  Elec       q    Type
REMARK                         _______ _______ _______ _____ _____    ______ ____
ROOT
ATOM      1  C   UNL     1       2.365   3.759  18.888  0.00  0.00    +0.000 C 
ATOM      2  C   UNL     1       1.619   2.584  18.229  0.00  0.00    +0.000 C 
ENDROOT
BRANCH   1   3
ATOM      3  C   UNL     1       1.563   4.326  20.099  0.00  0.00    +0.000 C 
ATOM      4  C   UNL     1       1.199   3.250  21.134  0.00  0.00    +0.000 C 
BRANCH   3   5
ATOM      5  C   UNL     1       2.339   5.505  20.734  0.00  0.00    +0.000 C 
BRANCH   5   6
ATOM      6  C   UNL     1       1.912   6.881  20.289  0.00  0.00    +0.000 A 
ATOM      7  C   UNL     1       2.253   7.383  19.040  0.00  0.00    +0.000 A 
ATOM      8  C   UNL     1       1.831   8.659  18.664  0.00  0.00    +0.000 A 
ATOM      9  C   UNL     1       1.066   9.455  19.533  0.00  0.00    +0.000 A 
ATOM     10  C   UNL     1       0.724   8.965  20.803  0.00  0.00    +0.000 A 
ATOM     11  C   UNL     1       1.159   7.680  21.165  0.00  0.00    +0.000 A 
BRANCH   9  12
ATOM     12  O   UNL     1       0.748  10.664  18.967  0.00  0.00    +0.000 OA
ATOM     13  C   UNL     1       1.793  11.471  18.446  0.00  0.00    +0.000 C 
ENDBRANCH   9  12
BRANCH  10  14
ATOM     14  O   UNL     1      -0.017   9.754  21.643  0.00  0.00    +0.000 OA
ATOM     15  C   UNL     1       0.085   9.528  23.043  0.00  0.00    +0.000 C 
ENDBRANCH  10  14
ENDBRANCH   5   6
ENDBRANCH   3   5
ENDBRANCH   1   3
BRANCH   1  16
ATOM     16  C   UNL     1       3.828   3.382  19.252  0.00  0.00    +0.000 C 
BRANCH  16  20
ATOM     17  C   UNL     1       6.514   4.929  16.260  0.00  0.00    +0.000 A 
ATOM     18  C   UNL     1       5.594   3.915  15.940  0.00  0.00    +0.000 A 
ATOM     19  C   UNL     1       4.745   3.385  16.908  0.00  0.00    +0.000 A 
ATOM     20  C   UNL     1       4.842   3.821  18.226  0.00  0.00    +0.000 A 
ATOM     21  C   UNL     1       5.878   4.695  18.573  0.00  0.00    +0.000 A 
ATOM     22  C   UNL     1       6.708   5.275  17.604  0.00  0.00    +0.000 A 
BRANCH  17  24
ATOM     23  C   UNL     1       7.188   4.909  14.003  0.00  0.00    +0.000 C 
ATOM     24  O   UNL     1       7.213   5.570  15.271  0.00  0.00    +0.000 OA
ENDBRANCH  17  24
BRANCH  22  25
ATOM     25  O   UNL     1       7.590   6.154  18.166  0.00  0.00    +0.000 OA
ATOM     26  C   UNL     1       7.607   7.499  17.728  0.00  0.00    +0.000 C 
ENDBRANCH  22  25
ENDBRANCH  16  20
ENDBRANCH   1  16
TORSDOF 9
ENDMDL
MODEL 3
REMARK VINA RESULT:      -7.2      1.236      7.250
REMARK  Name = 
REMARK  15 active torsions:
REMARK  status: ('A' for Active; 'I' for Inactive)
REMARK    1  A    between atoms: C_1  and  O_2
REMARK    2  A    between atoms: O_2  and  C_3
REMARK    3  A    between atoms: C_6  and  C_7
REMARK    4  A    between atoms: C_7  and  C_8
REMARK    5  A    between atoms: C_8  and  C_9
REMARK    6  A    between atoms: C_8  and  C_10
REMARK    7  A    between atoms: C_10  and  C_11
REMARK    8  A    between atoms: C_10  and  C_12
REMARK    9  A    between atoms: C_12  and  C_13
REMARK   10  A    between atoms: C_16  and  O_17
REMARK   11  A    between atoms: O_17  and  C_18
REMARK   12  A    between atoms: C_19  and  O_20
REMARK   13  A    between atoms: O_20  and  C_21
REMARK   14  A    between atoms: C_24  and  O_25
REMARK   15  A    between atoms: O_25  and  C_26
REMARK                            x       y       z     vdW  Elec       q    Type
REMARK                         _______ _______ _______ _____ _____    ______ ____
ROOT
ATOM      1  C   UNL     1       1.946   4.196  19.270  0.00  0.00    +0.000 C 
ATOM      2  C   UNL     1       1.146   2.973  18.782  0.00  0.00    +0.000 C 
ENDROOT
BRANCH   1   3
ATOM      3  C   UNL     1       3.264   3.758  19.980  0.00  0.00    +0.000 C 
ATOM      4  C   UNL     1       3.025   2.767  21.130  0.00  0.00    +0.000 C 
BRANCH   3   5
ATOM      5  C   UNL     1       4.263   3.206  18.935  0.00  0.00    +0.000 C 
BRANCH   5   6
ATOM      6  C   UNL     1       5.213   4.218  18.345  0.00  0.00    +0.000 A 
ATOM      7  C   UNL     1       5.516   5.403  19.000  0.00  0.00    +0.000 A 
ATOM      8  C   UNL     1       6.407   6.310  18.423  0.00  0.00    +0.000 A 
ATOM      9  C   UNL     1       7.004   6.047  17.178  0.00  0.00    +0.000 A 
ATOM     10  C   UNL     1       6.697   4.857  16.499  0.00  0.00    +0.000 A 
ATOM     11  C   UNL     1       5.798   3.958  17.094  0.00  0.00    +0.000 A 
BRANCH   9  12
ATOM     12  O   UNL     1       7.852   7.057  16.798  0.00  0.00    +0.000 OA
ATOM     13  C   UNL     1       7.944   8.215  17.613  0.00  0.00    +0.000 C 
ENDBRANCH   9  12
BRANCH  10  14
ATOM     14  O   UNL     1       7.282   4.616  15.284  0.00  0.00    +0.000 OA
ATOM     15  C   UNL     1       6.438   4.324  14.178  0.00  0.00    +0.000 C 
ENDBRANCH  10  14
ENDBRANCH   5   6
ENDBRANCH   3   5
ENDBRANCH   1   3
BRANCH   1  16
ATOM     16  C   UNL     1       2.184   5.222  18.128  0.00  0.00    +0.000 C 
BRANCH  16  20
ATOM     17  C   UNL     1       1.597   9.317  19.328  0.00  0.00    +0.000 A 
ATOM     18  C   UNL     1       2.132   9.012  18.064  0.00  0.00    +0.000 A 
ATOM     19  C   UNL     1       2.357   7.693  17.680  0.00  0.00    +0.000 A 
ATOM     20  C   UNL     1       2.104   6.659  18.576  0.00  0.00    +0.000 A 
ATOM     21  C   UNL     1       1.745   6.979  19.891  0.00  0.00    +0.000 A 
ATOM     22  C   UNL     1       1.467   8.296  20.279  0.00  0.00    +0.000 A 
BRANCH  17  24
ATOM     23  C   UNL     1      -0.006  11.011  18.998  0.00  0.00    +0.000 C 
ATOM     24  O   UNL     1       1.210  10.597  19.628  0.00  0.00    +0.000 OA
ENDBRANCH  17  24
BRANCH  22  25
ATOM     25  O   UNL     1       1.060   8.356  21.582  0.00  0.00    +0.000 OA
ATOM     26  C   UNL     1      -0.308   8.569  21.875  0.00  0.00    +0.000 C 
ENDBRANCH  22  25
ENDBRANCH  16  20
ENDBRANCH   1  16
TORSDOF 9
ENDMDL
MODEL 4
REMARK VINA RESULT:      -7.1      0.961      7.802
REMARK  Name = 
REMARK  15 active torsions:
REMARK  status: ('A' for Active; 'I' for Inactive)
REMARK    1  A    between atoms: C_1  and  O_2
REMARK    2  A    between atoms: O_2  and  C_3
REMARK    3  A    between atoms: C_6  and  C_7
REMARK    4  A    between atoms: C_7  and  C_8
REMARK    5  A    between atoms: C_8  and  C_9
REMARK    6  A    between atoms: C_8  and  C_10
REMARK    7  A    between atoms: C_10  and  C_11
REMARK    8  A    between atoms: C_10  and  C_12
REMARK    9  A    between atoms: C_12  and  C_13
REMARK   10  A    between atoms: C_16  and  O_17
REMARK   11  A    between atoms: O_17  and  C_18
REMARK   12  A    between atoms: C_19  and  O_20
REMARK   13  A    between atoms: O_20  and  C_21
REMARK   14  A    between atoms: C_24  and  O_25
REMARK   15  A    between atoms: O_25  and  C_26
REMARK                            x       y       z     vdW  Elec       q    Type
REMARK                         _______ _______ _______ _____ _____    ______ ____
ROOT
ATOM      1  C   UNL     1       2.057   5.188  19.447  0.00  0.00    +0.000 C 
ATOM      2  C   UNL     1       1.446   4.577  18.172  0.00  0.00    +0.000 C 
ENDROOT
BRANCH   1   3
ATOM      3  C   UNL     1       2.955   4.152  20.192  0.00  0.00    +0.000 C 
ATOM      4  C   UNL     1       2.234   3.465  21.362  0.00  0.00    +0.000 C 
BRANCH   3   5
ATOM      5  C   UNL     1       3.524   3.130  19.178  0.00  0.00    +0.000 C 
BRANCH   5   6
ATOM      6  C   UNL     1       4.589   3.658  18.249  0.00  0.00    +0.000 A 
ATOM      7  C   UNL     1       4.530   3.447  16.878  0.00  0.00    +0.000 A 
ATOM      8  C   UNL     1       5.533   3.960  16.052  0.00  0.00    +0.000 A 
ATOM      9  C   UNL     1       6.611   4.685  16.586  0.00  0.00    +0.000 A 
ATOM     10  C   UNL     1       6.688   4.895  17.972  0.00  0.00    +0.000 A 
ATOM     11  C   UNL     1       5.673   4.371  18.787  0.00  0.00    +0.000 A 
BRANCH   9  12
ATOM     12  O   UNL     1       7.474   5.107  15.605  0.00  0.00    +0.000 OA
ATOM     13  C   UNL     1       7.164   4.818  14.251  0.00  0.00    +0.000 C 
ENDBRANCH   9  12
BRANCH  10  14
ATOM     14  O   UNL     1       7.749   5.598  18.479  0.00  0.00    +0.000 OA
ATOM     15  C   UNL     1       7.827   6.991  18.200  0.00  0.00    +0.000 C 
ENDBRANCH  10  14
ENDBRANCH   5   6
ENDBRANCH   3   5
ENDBRANCH   1   3
BRANCH   1  16
ATOM     16  C   UNL     1       2.790   6.526  19.153  0.00  0.00    +0.000 C 
BRANCH  16  20
ATOM     17  C   UNL     1       0.155   9.848  19.908  0.00  0.00    +0.000 A 
ATOM     18  C   UNL     1       1.002   9.847  18.785  0.00  0.00    +0.000 A 
ATOM     19  C   UNL     1       1.881   8.794  18.551  0.00  0.00    +0.000 A 
ATOM     20  C   UNL     1       1.969   7.750  19.467  0.00  0.00    +0.000 A 
ATOM     21  C   UNL     1       1.258   7.846  20.669  0.00  0.00    +0.000 A 
ATOM     22  C   UNL     1       0.333   8.872  20.898  0.00  0.00    +0.000 A 
BRANCH  17  24
ATOM     23  C   UNL     1      -0.411  12.129  19.749  0.00  0.00    +0.000 C 
ATOM     24  O   UNL     1      -0.831  10.792  20.034  0.00  0.00    +0.000 OA
ENDBRANCH  17  24
BRANCH  22  25
ATOM     25  O   UNL     1      -0.296   8.716  22.100  0.00  0.00    +0.000 OA
ATOM     26  C   UNL     1      -0.004   9.605  23.161  0.00  0.00    +0.000 C 
ENDBRANCH  22  25
ENDBRANCH  16  20
ENDBRANCH   1  16
TORSDOF 9
ENDMDL
MODEL 5
REMARK VINA RESULT:      -7.1      1.093      7.970
REMARK  Name = 
REMARK  15 active torsions:
REMARK  status: ('A' for Active; 'I' for Inactive)
REMARK    1  A    between atoms: C_1  and  O_2
REMARK    2  A    between atoms: O_2  and  C_3
REMARK    3  A    between atoms: C_6  and  C_7
REMARK    4  A    between atoms: C_7  and  C_8
REMARK    5  A    between atoms: C_8  and  C_9
REMARK    6  A    between atoms: C_8  and  C_10
REMARK    7  A    between atoms: C_10  and  C_11
REMARK    8  A    between atoms: C_10  and  C_12
REMARK    9  A    between atoms: C_12  and  C_13
REMARK   10  A    between atoms: C_16  and  O_17
REMARK   11  A    between atoms: O_17  and  C_18
REMARK   12  A    between atoms: C_19  and  O_20
REMARK   13  A    between atoms: O_20  and  C_21
REMARK   14  A    between atoms: C_24  and  O_25
REMARK   15  A    between atoms: O_25  and  C_26
REMARK                            x       y       z     vdW  Elec       q    Type
REMARK                         _______ _______ _______ _____ _____    ______ ____
ROOT
ATOM      1  C   UNL     1       1.910   5.397  19.113  0.00  0.00    +0.000 C 
ATOM      2  C   UNL     1       1.483   4.680  17.818  0.00  0.00    +0.000 C 
ENDROOT
BRANCH   1   3
ATOM      3  C   UNL     1       2.918   4.530  19.928  0.00  0.00    +0.000 C 
ATOM      4  C   UNL     1       2.327   4.000  21.244  0.00  0.00    +0.000 C 
BRANCH   3   5
ATOM      5  C   UNL     1       3.468   3.390  19.036  0.00  0.00    +0.000 C 
BRANCH   5   6
ATOM      6  C   UNL     1       4.592   3.775  18.107  0.00  0.00    +0.000 A 
ATOM      7  C   UNL     1       4.520   3.542  16.740  0.00  0.00    +0.000 A 
ATOM      8  C   UNL     1       5.580   3.921  15.914  0.00  0.00    +0.000 A 
ATOM      9  C   UNL     1       6.729   4.532  16.442  0.00  0.00    +0.000 A 
ATOM     10  C   UNL     1       6.819   4.763  17.824  0.00  0.00    +0.000 A 
ATOM     11  C   UNL     1       5.745   4.374  18.640  0.00  0.00    +0.000 A 
BRANCH   9  12
ATOM     12  O   UNL     1       7.641   4.833  15.462  0.00  0.00    +0.000 OA
ATOM     13  C   UNL     1       7.201   4.891  14.114  0.00  0.00    +0.000 C 
ENDBRANCH   9  12
BRANCH  10  14
ATOM     14  O   UNL     1       7.948   5.354  18.327  0.00  0.00    +0.000 OA
ATOM     15  C   UNL     1       7.916   6.752  18.588  0.00  0.00    +0.000 C 
ENDBRANCH  10  14
ENDBRANCH   5   6
ENDBRANCH   3   5
ENDBRANCH   1   3
BRANCH   1  16
ATOM     16  C   UNL     1       2.432   6.833  18.833  0.00  0.00    +0.000 C 
BRANCH  16  20
ATOM     17  C   UNL     1       0.873  10.018  21.278  0.00  0.00    +0.000 A 
ATOM     18  C   UNL     1       1.125   8.750  21.831  0.00  0.00    +0.000 A 
ATOM     19  C   UNL     1       1.597   7.705  21.041  0.00  0.00    +0.000 A 
ATOM     20  C   UNL     1       1.770   7.895  19.674  0.00  0.00    +0.000 A 
ATOM     21  C   UNL     1       1.346   9.099  19.101  0.00  0.00    +0.000 A 
ATOM     22  C   UNL     1       0.917  10.177  19.886  0.00  0.00    +0.000 A 
BRANCH  17  24
ATOM     23  C   UNL     1      -0.807  11.265  22.360  0.00  0.00    +0.000 C 
ATOM     24  O   UNL     1       0.586  11.086  22.088  0.00  0.00    +0.000 OA
ENDBRANCH  17  24
BRANCH  22  25
ATOM     25  O   UNL     1       0.632  11.270  19.117  0.00  0.00    +0.000 OA
ATOM     26  C   UNL     1      -0.642  11.384  18.513  0.00  0.00    +0.000 C 
ENDBRANCH  22  25
ENDBRANCH  16  20
ENDBRANCH   1  16
TORSDOF 9
ENDMDL
MODEL 6
REMARK VINA RESULT:      -7.0      1.534      3.102
REMARK  Name = 
REMARK  15 active torsions:
REMARK  status: ('A' for Active; 'I' for Inactive)
REMARK    1  A    between atoms: C_1  and  O_2
REMARK    2  A    between atoms: O_2  and  C_3
REMARK    3  A    between atoms: C_6  and  C_7
REMARK    4  A    between atoms: C_7  and  C_8
REMARK    5  A    between atoms: C_8  and  C_9
REMARK    6  A    between atoms: C_8  and  C_10
REMARK    7  A    between atoms: C_10  and  C_11
REMARK    8  A    between atoms: C_10  and  C_12
REMARK    9  A    between atoms: C_12  and  C_13
REMARK   10  A    between atoms: C_16  and  O_17
REMARK   11  A    between atoms: O_17  and  C_18
REMARK   12  A    between atoms: C_19  and  O_20
REMARK   13  A    between atoms: O_20  and  C_21
REMARK   14  A    between atoms: C_24  and  O_25
REMARK   15  A    between atoms: O_25  and  C_26
REMARK                            x       y       z     vdW  Elec       q    Type
REMARK                         _______ _______ _______ _____ _____    ______ ____
ROOT
ATOM      1  C   UNL     1       1.863   3.515  19.126  0.00  0.00    +0.000 C 
ATOM      2  C   UNL     1       0.875   2.543  18.454  0.00  0.00    +0.000 C 
ENDROOT
BRANCH   1   3
ATOM      3  C   UNL     1       1.383   3.902  20.559  0.00  0.00    +0.000 C 
ATOM      4  C   UNL     1       1.354   2.707  21.525  0.00  0.00    +0.000 C 
BRANCH   3   5
ATOM      5  C   UNL     1       2.245   5.068  21.101  0.00  0.00    +0.000 C 
BRANCH   5   6
ATOM      6  C   UNL     1       1.868   6.441  20.605  0.00  0.00    +0.000 A 
ATOM      7  C   UNL     1       1.021   7.271  21.327  0.00  0.00    +0.000 A 
ATOM      8  C   UNL     1       0.704   8.538  20.835  0.00  0.00    +0.000 A 
ATOM      9  C   UNL     1       1.224   8.993  19.612  0.00  0.00    +0.000 A 
ATOM     10  C   UNL     1       2.073   8.159  18.866  0.00  0.00    +0.000 A 
ATOM     11  C   UNL     1       2.379   6.887  19.375  0.00  0.00    +0.000 A 
BRANCH   9  12
ATOM     12  O   UNL     1       0.798  10.264  19.320  0.00  0.00    +0.000 OA
ATOM     13  C   UNL     1      -0.265  10.821  20.079  0.00  0.00    +0.000 C 
ENDBRANCH   9  12
BRANCH  10  14
ATOM     14  O   UNL     1       2.568   8.613  17.673  0.00  0.00    +0.000 OA
ATOM     15  C   UNL     1       3.765   8.028  17.175  0.00  0.00    +0.000 C 
ENDBRANCH  10  14
ENDBRANCH   5   6
ENDBRANCH   3   5
ENDBRANCH   1   3
BRANCH   1  16
ATOM     16  C   UNL     1       3.317   2.970  19.099  0.00  0.00    +0.000 C 
BRANCH  16  20
ATOM     17  C   UNL     1       6.424   5.502  17.521  0.00  0.00    +0.000 A 
ATOM     18  C   UNL     1       6.227   5.392  18.909  0.00  0.00    +0.000 A 
ATOM     19  C   UNL     1       5.204   4.603  19.427  0.00  0.00    +0.000 A 
ATOM     20  C   UNL     1       4.326   3.956  18.565  0.00  0.00    +0.000 A 
ATOM     21  C   UNL     1       4.415   4.214  17.192  0.00  0.00    +0.000 A 
ATOM     22  C   UNL     1       5.466   4.964  16.651  0.00  0.00    +0.000 A 
BRANCH  17  24
ATOM     23  C   UNL     1       7.651   7.508  17.385  0.00  0.00    +0.000 C 
ATOM     24  O   UNL     1       7.537   6.129  17.024  0.00  0.00    +0.000 OA
ENDBRANCH  17  24
BRANCH  22  25
ATOM     25  O   UNL     1       5.391   5.015  15.288  0.00  0.00    +0.000 OA
ATOM     26  C   UNL     1       6.064   4.038  14.516  0.00  0.00    +0.000 C 
ENDBRANCH  22  25
ENDBRANCH  16  20
ENDBRANCH   1  16
TORSDOF 9
ENDMDL
MODEL 7
REMARK VINA RESULT:      -7.0      0.911      1.985
REMARK  Name = 
REMARK  15 active torsions:
REMARK  status: ('A' for Active; 'I' for Inactive)
REMARK    1  A    between atoms: C_1  and  O_2
REMARK    2  A    between atoms: O_2  and  C_3
REMARK    3  A    between atoms: C_6  and  C_7
REMARK    4  A    between atoms: C_7  and  C_8
REMARK    5  A    between atoms: C_8  and  C_9
REMARK    6  A    between atoms: C_8  and  C_10
REMARK    7  A    between atoms: C_10  and  C_11
REMARK    8  A    between atoms: C_10  and  C_12
REMARK    9  A    between atoms: C_12  and  C_13
REMARK   10  A    between atoms: C_16  and  O_17
REMARK   11  A    between atoms: O_17  and  C_18
REMARK   12  A    between atoms: C_19  and  O_20
REMARK   13  A    between atoms: O_20  and  C_21
REMARK   14  A    between atoms: C_24  and  O_25
REMARK   15  A    between atoms: O_25  and  C_26
REMARK                            x       y       z     vdW  Elec       q    Type
REMARK                         _______ _______ _______ _____ _____    ______ ____
ROOT
ATOM      1  C   UNL     1       2.597   5.185  18.373  0.00  0.00    +0.000 C 
ATOM      2  C   UNL     1       1.625   4.206  17.689  0.00  0.00    +0.000 C 
ENDROOT
BRANCH   1   3
ATOM      3  C   UNL     1       1.942   5.846  19.625  0.00  0.00    +0.000 C 
ATOM      4  C   UNL     1       2.052   4.978  20.888  0.00  0.00    +0.000 C 
BRANCH   3   5
ATOM      5  C   UNL     1       2.531   7.261  19.837  0.00  0.00    +0.000 C 
BRANCH   5   6
ATOM      6  C   UNL     1       1.547   8.316  20.279  0.00  0.00    +0.000 A 
ATOM      7  C   UNL     1       1.183   8.462  21.611  0.00  0.00    +0.000 A 
ATOM      8  C   UNL     1       0.275   9.457  21.978  0.00  0.00    +0.000 A 
ATOM      9  C   UNL     1      -0.287  10.316  21.019  0.00  0.00    +0.000 A 
ATOM     10  C   UNL     1       0.064  10.171  19.667  0.00  0.00    +0.000 A 
ATOM     11  C   UNL     1       0.977   9.165  19.316  0.00  0.00    +0.000 A 
BRANCH   9  12
ATOM     12  O   UNL     1      -1.143  11.224  21.590  0.00  0.00    +0.000 OA
ATOM     13  C   UNL     1      -1.304  11.218  23.000  0.00  0.00    +0.000 C 
ENDBRANCH   9  12
BRANCH  10  14
ATOM     14  O   UNL     1      -0.497  11.011  18.742  0.00  0.00    +0.000 OA
ATOM     15  C   UNL     1      -1.464  10.477  17.847  0.00  0.00    +0.000 C 
ENDBRANCH  10  14
ENDBRANCH   5   6
ENDBRANCH   3   5
ENDBRANCH   1   3
BRANCH   1  16
ATOM     16  C   UNL     1       3.964   4.516  18.686  0.00  0.00    +0.000 C 
BRANCH  16  20
ATOM     17  C   UNL     1       6.587   5.024  15.307  0.00  0.00    +0.000 A 
ATOM     18  C   UNL     1       5.655   3.972  15.337  0.00  0.00    +0.000 A 
ATOM     19  C   UNL     1       4.826   3.780  16.439  0.00  0.00    +0.000 A 
ATOM     20  C   UNL     1       4.956   4.601  17.554  0.00  0.00    +0.000 A 
ATOM     21  C   UNL     1       6.005   5.527  17.591  0.00  0.00    +0.000 A 
ATOM     22  C   UNL     1       6.815   5.767  16.474  0.00  0.00    +0.000 A 
BRANCH  17  24
ATOM     23  C   UNL     1       7.032   4.404  13.079  0.00  0.00    +0.000 C 
ATOM     24  O   UNL     1       7.267   5.318  14.154  0.00  0.00    +0.000 OA
ENDBRANCH  17  24
BRANCH  22  25
ATOM     25  O   UNL     1       7.715   6.766  16.717  0.00  0.00    +0.000 OA
ATOM     26  C   UNL     1       7.341   7.856  17.538  0.00  0.00    +0.000 C 
ENDBRANCH  22  25
ENDBRANCH  16  20
ENDBRANCH   1  16
TORSDOF 9
ENDMDL
MODEL 8
REMARK VINA RESULT:      -7.0      1.099      7.897
REMARK  Name = 
REMARK  15 active torsions:
REMARK  status: ('A' for Active; 'I' for Inactive)
REMARK    1  A    between atoms: C_1  and  O_2
REMARK    2  A    between atoms: O_2  and  C_3
REMARK    3  A    between atoms: C_6  and  C_7
REMARK    4  A    between atoms: C_7  and  C_8
REMARK    5  A    between atoms: C_8  and  C_9
REMARK    6  A    between atoms: C_8  and  C_10
REMARK    7  A    between atoms: C_10  and  C_11
REMARK    8  A    between atoms: C_10  and  C_12
REMARK    9  A    between atoms: C_12  and  C_13
REMARK   10  A    between atoms: C_16  and  O_17
REMARK   11  A    between atoms: O_17  and  C_18
REMARK   12  A    between atoms: C_19  and  O_20
REMARK   13  A    between atoms: O_20  and  C_21
REMARK   14  A    between atoms: C_24  and  O_25
REMARK   15  A    between atoms: O_25  and  C_26
REMARK                            x       y       z     vdW  Elec       q    Type
REMARK                         _______ _______ _______ _____ _____    ______ ____
ROOT
ATOM      1  C   UNL     1       2.841   4.873  19.152  0.00  0.00    +0.000 C 
ATOM      2  C   UNL     1       1.708   4.625  18.139  0.00  0.00    +0.000 C 
ENDROOT
BRANCH   1   3
ATOM      3  C   UNL     1       4.040   3.907  18.901  0.00  0.00    +0.000 C 
ATOM      4  C   UNL     1       4.097   2.747  19.907  0.00  0.00    +0.000 C 
BRANCH   3   5
ATOM      5  C   UNL     1       4.011   3.407  17.437  0.00  0.00    +0.000 C 
BRANCH   5   6
ATOM      6  C   UNL     1       5.054   4.001  16.524  0.00  0.00    +0.000 A 
ATOM      7  C   UNL     1       5.221   3.557  15.219  0.00  0.00    +0.000 A 
ATOM      8  C   UNL     1       6.194   4.140  14.405  0.00  0.00    +0.000 A 
ATOM      9  C   UNL     1       7.019   5.171  14.886  0.00  0.00    +0.000 A 
ATOM     10  C   UNL     1       6.869   5.621  16.207  0.00  0.00    +0.000 A 
ATOM     11  C   UNL     1       5.887   5.022  17.012  0.00  0.00    +0.000 A 
BRANCH   9  12
ATOM     12  O   UNL     1       7.896   5.609  13.925  0.00  0.00    +0.000 OA
ATOM     13  C   UNL     1       7.750   5.130  12.597  0.00  0.00    +0.000 C 
ENDBRANCH   9  12
BRANCH  10  14
ATOM     14  O   UNL     1       7.684   6.622  16.664  0.00  0.00    +0.000 OA
ATOM     15  C   UNL     1       7.590   6.994  18.034  0.00  0.00    +0.000 C 
ENDBRANCH  10  14
ENDBRANCH   5   6
ENDBRANCH   3   5
ENDBRANCH   1   3
BRANCH   1  16
ATOM     16  C   UNL     1       3.264   6.368  19.191  0.00  0.00    +0.000 C 
BRANCH  16  20
ATOM     17  C   UNL     1       0.440   9.191  20.806  0.00  0.00    +0.000 A 
ATOM     18  C   UNL     1       0.605   7.927  21.398  0.00  0.00    +0.000 A 
ATOM     19  C   UNL     1       1.491   6.995  20.864  0.00  0.00    +0.000 A 
ATOM     20  C   UNL     1       2.184   7.291  19.695  0.00  0.00    +0.000 A 
ATOM     21  C   UNL     1       1.880   8.475  19.012  0.00  0.00    +0.000 A 
ATOM     22  C   UNL     1       1.031   9.444  19.561  0.00  0.00    +0.000 A 
BRANCH  17  24
ATOM     23  C   UNL     1      -0.256  10.098  22.866  0.00  0.00    +0.000 C 
ATOM     24  O   UNL     1      -0.290  10.164  21.437  0.00  0.00    +0.000 OA
ENDBRANCH  17  24
BRANCH  22  25
ATOM     25  O   UNL     1       0.948  10.546  18.757  0.00  0.00    +0.000 OA
ATOM     26  C   UNL     1       2.091  10.973  18.041  0.00  0.00    +0.000 C 
ENDBRANCH  22  25
ENDBRANCH  16  20
ENDBRANCH   1  16
TORSDOF 9
ENDMDL
MODEL 9
REMARK VINA RESULT:      -6.9      1.523      7.043
REMARK  Name = 
REMARK  15 active torsions:
REMARK  status: ('A' for Active; 'I' for Inactive)
REMARK    1  A    between atoms: C_1  and  O_2
REMARK    2  A    between atoms: O_2  and  C_3
REMARK    3  A    between atoms: C_6  and  C_7
REMARK    4  A    between atoms: C_7  and  C_8
REMARK    5  A    between atoms: C_8  and  C_9
REMARK    6  A    between atoms: C_8  and  C_10
REMARK    7  A    between atoms: C_10  and  C_11
REMARK    8  A    between atoms: C_10  and  C_12
REMARK    9  A    between atoms: C_12  and  C_13
REMARK   10  A    between atoms: C_16  and  O_17
REMARK   11  A    between atoms: O_17  and  C_18
REMARK   12  A    between atoms: C_19  and  O_20
REMARK   13  A    between atoms: O_20  and  C_21
REMARK   14  A    between atoms: C_24  and  O_25
REMARK   15  A    between atoms: O_25  and  C_26
REMARK                            x       y       z     vdW  Elec       q    Type
REMARK                         _______ _______ _______ _____ _____    ______ ____
ROOT
ATOM      1  C   UNL     1       2.158   2.860  19.631  0.00  0.00    +0.000 C 
ATOM      2  C   UNL     1       1.561   2.835  18.212  0.00  0.00    +0.000 C 
ENDROOT
BRANCH   1   3
ATOM      3  C   UNL     1       3.705   3.059  19.587  0.00  0.00    +0.000 C 
ATOM      4  C   UNL     1       4.463   2.062  20.478  0.00  0.00    +0.000 C 
BRANCH   3   5
ATOM      5  C   UNL     1       4.195   3.018  18.119  0.00  0.00    +0.000 C 
BRANCH   5   6
ATOM      6  C   UNL     1       5.152   4.113  17.722  0.00  0.00    +0.000 A 
ATOM      7  C   UNL     1       5.614   5.047  18.640  0.00  0.00    +0.000 A 
ATOM      8  C   UNL     1       6.506   6.041  18.232  0.00  0.00    +0.000 A 
ATOM      9  C   UNL     1       6.942   6.121  16.899  0.00  0.00    +0.000 A 
ATOM     10  C   UNL     1       6.473   5.190  15.958  0.00  0.00    +0.000 A 
ATOM     11  C   UNL     1       5.576   4.199  16.386  0.00  0.00    +0.000 A 
BRANCH   9  12
ATOM     12  O   UNL     1       7.820   7.159  16.713  0.00  0.00    +0.000 OA
ATOM     13  C   UNL     1       7.823   8.227  17.648  0.00  0.00    +0.000 C 
ENDBRANCH   9  12
BRANCH  10  14
ATOM     14  O   UNL     1       6.903   5.283  14.661  0.00  0.00    +0.000 OA
ATOM     15  C   UNL     1       6.548   4.243  13.758  0.00  0.00    +0.000 C 
ENDBRANCH  10  14
ENDBRANCH   5   6
ENDBRANCH   3   5
ENDBRANCH   1   3
BRANCH   1  16
ATOM     16  C   UNL     1       1.440   3.894  20.541  0.00  0.00    +0.000 C 
BRANCH  16  20
ATOM     17  C   UNL     1       1.790   8.018  19.346  0.00  0.00    +0.000 A 
ATOM     18  C   UNL     1       2.116   6.983  18.451  0.00  0.00    +0.000 A 
ATOM     19  C   UNL     1       2.038   5.649  18.839  0.00  0.00    +0.000 A 
ATOM     20  C   UNL     1       1.688   5.328  20.146  0.00  0.00    +0.000 A 
ATOM     21  C   UNL     1       1.542   6.362  21.079  0.00  0.00    +0.000 A 
ATOM     22  C   UNL     1       1.568   7.708  20.695  0.00  0.00    +0.000 A 
BRANCH  17  24
ATOM     23  C   UNL     1       2.328   9.560  17.649  0.00  0.00    +0.000 C 
ATOM     24  O   UNL     1       1.693   9.312  18.906  0.00  0.00    +0.000 OA
ENDBRANCH  17  24
BRANCH  22  25
ATOM     25  O   UNL     1       1.323   8.533  21.756  0.00  0.00    +0.000 OA
ATOM     26  C   UNL     1      -0.001   8.960  22.016  0.00  0.00    +0.000 C 
ENDBRANCH  22  25
ENDBRANCH  16  20
ENDBRANCH   1  16
TORSDOF 9
ENDMDL
