MODEL 1
REMARK VINA RESULT:      -7.6      0.000      0.000
REMARK  Name = 
REMARK  8 active torsions:
REMARK  status: ('A' for Active; 'I' for Inactive)
REMARK    1  A    between atoms: C_1  and  O_2
REMARK    2  A    between atoms: O_2  and  C_3
REMARK    3  A    between atoms: C_8  and  C_9
REMARK    4  A    between atoms: N_11  and  C_12
REMARK    5  A    between atoms: C_12  and  C_13
REMARK    6  A    between atoms: C_12  and  C_14
REMARK    7  A    between atoms: C_14  and  O_15
REMARK    8  A    between atoms: O_15  and  C_16
REMARK                            x       y       z     vdW  Elec       q    Type
REMARK                         _______ _______ _______ _____ _____    ______ ____
ROOT
ATOM      1  C   UNL     1       4.374   5.590  18.653  0.00  0.00    +0.000 C 
ATOM      2  O   UNL     1       4.043   6.607  18.050  0.00  0.00    +0.000 OA
ATOM      3  N   UNL     1       5.660   5.098  18.687  0.00  0.00    +0.000 N 
ATOM      4  H   UNL     1       5.805   4.187  19.109  0.00  0.00    +0.000 HD
ENDROOT
BRANCH   1  10
ATOM      5  C   UNL     1       3.188   3.488  19.472  0.00  0.00    +0.000 A 
ATOM      6  N   UNL     1       2.144   2.870  20.088  0.00  0.00    +0.000 NA
ATOM      7  C   UNL     1       1.205   3.653  20.661  0.00  0.00    +0.000 A 
ATOM      8  C   UNL     1       1.268   5.033  20.683  0.00  0.00    +0.000 A 
ATOM      9  C   UNL     1       2.347   5.646  20.054  0.00  0.00    +0.000 A 
ATOM     10  C   UNL     1       3.325   4.870  19.416  0.00  0.00    +0.000 A 
BRANCH   5  12
ATOM     11  C   UNL     1       3.578   1.635  18.099  0.00  0.00    +0.000 C 
ATOM     12  O   UNL     1       4.145   2.694  18.870  0.00  0.00    +0.000 OA
ENDBRANCH   5  12
ENDBRANCH   1  10
BRANCH   3  13
ATOM     13  C   UNL     1       6.810   5.715  18.004  0.00  0.00    +0.000 C 
ATOM     14  C   UNL     1       7.926   6.026  18.998  0.00  0.00    +0.000 C 
BRANCH  13  15
ATOM     15  C   UNL     1       7.368   4.914  16.807  0.00  0.00    +0.000 C 
BRANCH  15  16
ATOM     16  O   UNL     1       7.178   5.668  15.610  0.00  0.00    +0.000 OA
BRANCH  16  17
ATOM     17  C   UNL     1       6.808   4.980  14.493  0.00  0.00    +0.000 A 
ATOM     18  C   UNL     1       7.595   4.824  13.341  0.00  0.00    +0.000 A 
ATOM     19  C   UNL     1       7.120   4.063  12.265  0.00  0.00    +0.000 A 
ATOM     20  C   UNL     1       5.876   3.447  12.345  0.00  0.00    +0.000 A 
ATOM     21  F   UNL     1       5.433   2.718  11.313  0.00  0.00    +0.000 F 
ATOM     22  C   UNL     1       5.091   3.575  13.480  0.00  0.00    +0.000 A 
ATOM     23  C   UNL     1       5.568   4.331  14.545  0.00  0.00    +0.000 A 
ATOM     24  F   UNL     1       4.802   4.448  15.642  0.00  0.00    +0.000 F 
ENDBRANCH  16  17
ENDBRANCH  15  16
ENDBRANCH  13  15
ENDBRANCH   3  13
TORSDOF 6
ENDMDL
MODEL 2
REMARK VINA RESULT:      -7.5      0.990      1.410
REMARK  Name = 
REMARK  8 active torsions:
REMARK  status: ('A' for Active; 'I' for Inactive)
REMARK    1  A    between atoms: C_1  and  O_2
REMARK    2  A    between atoms: O_2  and  C_3
REMARK    3  A    between atoms: C_8  and  C_9
REMARK    4  A    between atoms: N_11  and  C_12
REMARK    5  A    between atoms: C_12  and  C_13
REMARK    6  A    between atoms: C_12  and  C_14
REMARK    7  A    between atoms: C_14  and  O_15
REMARK    8  A    between atoms: O_15  and  C_16
REMARK                            x       y       z     vdW  Elec       q    Type
REMARK                         _______ _______ _______ _____ _____    ______ ____
ROOT
ATOM      1  C   UNL     1       4.438   5.753  18.490  0.00  0.00    +0.000 C 
ATOM      2  O   UNL     1       4.057   6.638  17.728  0.00  0.00    +0.000 OA
ATOM      3  N   UNL     1       5.757   5.381  18.640  0.00  0.00    +0.000 N 
ATOM      4  H   UNL     1       5.953   4.558  19.200  0.00  0.00    +0.000 HD
ENDROOT
BRANCH   1  10
ATOM      5  C   UNL     1       3.284   3.691  19.444  0.00  0.00    +0.000 A 
ATOM      6  N   UNL     1       2.262   3.102  20.120  0.00  0.00    +0.000 NA
ATOM      7  C   UNL     1       1.339   3.911  20.684  0.00  0.00    +0.000 A 
ATOM      8  C   UNL     1       1.399   5.290  20.639  0.00  0.00    +0.000 A 
ATOM      9  C   UNL     1       2.456   5.874  19.948  0.00  0.00    +0.000 A 
ATOM     10  C   UNL     1       3.416   5.070  19.318  0.00  0.00    +0.000 A 
BRANCH   5  12
ATOM     11  C   UNL     1       3.635   1.851  18.043  0.00  0.00    +0.000 C 
ATOM     12  O   UNL     1       4.224   2.870  18.850  0.00  0.00    +0.000 OA
ENDBRANCH   5  12
ENDBRANCH   1  10
BRANCH   3  13
ATOM     13  C   UNL     1       6.885   5.985  17.910  0.00  0.00    +0.000 C 
ATOM     14  C   UNL     1       7.996   6.392  18.873  0.00  0.00    +0.000 C 
BRANCH  13  15
ATOM     15  C   UNL     1       7.458   5.123  16.763  0.00  0.00    +0.000 C 
BRANCH  15  16
ATOM     16  O   UNL     1       7.163   5.749  15.514  0.00  0.00    +0.000 OA
BRANCH  16  17
ATOM     17  C   UNL     1       6.685   4.953  14.516  0.00  0.00    +0.000 A 
ATOM     18  C   UNL     1       5.480   4.235  14.562  0.00  0.00    +0.000 A 
ATOM     19  C   UNL     1       5.074   3.475  13.458  0.00  0.00    +0.000 A 
ATOM     20  C   UNL     1       5.857   3.446  12.308  0.00  0.00    +0.000 A 
ATOM     21  F   UNL     1       5.458   2.721  11.255  0.00  0.00    +0.000 F 
ATOM     22  C   UNL     1       7.042   4.162  12.237  0.00  0.00    +0.000 A 
ATOM     23  C   UNL     1       7.439   4.914  13.336  0.00  0.00    +0.000 A 
ATOM     24  F   UNL     1       8.587   5.607  13.259  0.00  0.00    +0.000 F 
ENDBRANCH  16  17
ENDBRANCH  15  16
ENDBRANCH  13  15
ENDBRANCH   3  13
TORSDOF 6
ENDMDL
MODEL 3
REMARK VINA RESULT:      -7.4      2.990      6.383
REMARK  Name = 
REMARK  8 active torsions:
REMARK  status: ('A' for Active; 'I' for Inactive)
REMARK    1  A    between atoms: C_1  and  O_2
REMARK    2  A    between atoms: O_2  and  C_3
REMARK    3  A    between atoms: C_8  and  C_9
REMARK    4  A    between atoms: N_11  and  C_12
REMARK    5  A    between atoms: C_12  and  C_13
REMARK    6  A    between atoms: C_12  and  C_14
REMARK    7  A    between atoms: C_14  and  O_15
REMARK    8  A    between atoms: O_15  and  C_16
REMARK                            x       y       z     vdW  Elec       q    Type
REMARK                         _______ _______ _______ _____ _____    ______ ____
ROOT
ATOM      1  C   UNL     1       6.437   5.466  15.780  0.00  0.00    +0.000 C 
ATOM      2  O   UNL     1       5.669   6.415  15.919  0.00  0.00    +0.000 OA
ATOM      3  N   UNL     1       7.288   5.013  16.765  0.00  0.00    +0.000 N 
ATOM      4  H   UNL     1       7.968   4.305  16.510  0.00  0.00    +0.000 HD
ENDROOT
BRANCH   1  10
ATOM      5  C   UNL     1       7.370   4.899  13.477  0.00  0.00    +0.000 A 
ATOM      6  N   UNL     1       7.255   4.313  12.255  0.00  0.00    +0.000 NA
ATOM      7  C   UNL     1       6.158   3.560  12.024  0.00  0.00    +0.000 A 
ATOM      8  C   UNL     1       5.175   3.329  12.967  0.00  0.00    +0.000 A 
ATOM      9  C   UNL     1       5.313   3.932  14.213  0.00  0.00    +0.000 A 
ATOM     10  C   UNL     1       6.420   4.751  14.481  0.00  0.00    +0.000 A 
BRANCH   5  12
ATOM     11  C   UNL     1       9.049   6.216  12.519  0.00  0.00    +0.000 C 
ATOM     12  O   UNL     1       8.482   5.684  13.716  0.00  0.00    +0.000 OA
ENDBRANCH   5  12
ENDBRANCH   1  10
BRANCH   3  13
ATOM     13  C   UNL     1       7.399   5.601  18.111  0.00  0.00    +0.000 C 
ATOM     14  C   UNL     1       7.781   7.076  18.027  0.00  0.00    +0.000 C 
BRANCH  13  15
ATOM     15  C   UNL     1       6.153   5.420  19.007  0.00  0.00    +0.000 C 
BRANCH  15  16
ATOM     16  O   UNL     1       5.790   4.040  19.029  0.00  0.00    +0.000 OA
BRANCH  16  17
ATOM     17  C   UNL     1       4.475   3.739  18.827  0.00  0.00    +0.000 A 
ATOM     18  C   UNL     1       3.651   4.331  17.858  0.00  0.00    +0.000 A 
ATOM     19  C   UNL     1       2.321   3.915  17.720  0.00  0.00    +0.000 A 
ATOM     20  C   UNL     1       1.822   2.901  18.531  0.00  0.00    +0.000 A 
ATOM     21  F   UNL     1       0.550   2.506  18.389  0.00  0.00    +0.000 F 
ATOM     22  C   UNL     1       2.625   2.292  19.482  0.00  0.00    +0.000 A 
ATOM     23  C   UNL     1       3.944   2.710  19.614  0.00  0.00    +0.000 A 
ATOM     24  F   UNL     1       4.717   2.112  20.536  0.00  0.00    +0.000 F 
ENDBRANCH  16  17
ENDBRANCH  15  16
ENDBRANCH  13  15
ENDBRANCH   3  13
TORSDOF 6
ENDMDL
MODEL 4
REMARK VINA RESULT:      -7.4      3.458      6.795
REMARK  Name = 
REMARK  8 active torsions:
REMARK  status: ('A' for Active; 'I' for Inactive)
REMARK    1  A    between atoms: C_1  and  O_2
REMARK    2  A    between atoms: O_2  and  C_3
REMARK    3  A    between atoms: C_8  and  C_9
REMARK    4  A    between atoms: N_11  and  C_12
REMARK    5  A    between atoms: C_12  and  C_13
REMARK    6  A    between atoms: C_12  and  C_14
REMARK    7  A    between atoms: C_14  and  O_15
REMARK    8  A    between atoms: O_15  and  C_16
REMARK                            x       y       z     vdW  Elec       q    Type
REMARK                         _______ _______ _______ _____ _____    ______ ____
ROOT
ATOM      1  C   UNL     1       3.758   3.996  17.732  0.00  0.00    +0.000 C 
ATOM      2  O   UNL     1       2.752   3.950  17.029  0.00  0.00    +0.000 OA
ATOM      3  N   UNL     1       3.747   3.858  19.103  0.00  0.00    +0.000 N 
ATOM      4  H   UNL     1       4.613   4.034  19.601  0.00  0.00    +0.000 HD
ENDROOT
BRANCH   1  10
ATOM      5  C   UNL     1       6.231   4.606  17.678  0.00  0.00    +0.000 A 
ATOM      6  N   UNL     1       7.379   4.876  16.999  0.00  0.00    +0.000 NA
ATOM      7  C   UNL     1       7.362   4.722  15.657  0.00  0.00    +0.000 A 
ATOM      8  C   UNL     1       6.261   4.276  14.952  0.00  0.00    +0.000 A 
ATOM      9  C   UNL     1       5.099   4.000  15.664  0.00  0.00    +0.000 A 
ATOM     10  C   UNL     1       5.064   4.181  17.054  0.00  0.00    +0.000 A 
BRANCH   5  12
ATOM     11  C   UNL     1       7.323   5.584  19.501  0.00  0.00    +0.000 C 
ATOM     12  O   UNL     1       6.236   4.777  19.049  0.00  0.00    +0.000 OA
ENDBRANCH   5  12
ENDBRANCH   1  10
BRANCH   3  13
ATOM     13  C   UNL     1       2.535   3.641  19.912  0.00  0.00    +0.000 C 
ATOM     14  C   UNL     1       2.848   2.785  21.136  0.00  0.00    +0.000 C 
BRANCH  13  15
ATOM     15  C   UNL     1       1.792   4.928  20.334  0.00  0.00    +0.000 C 
BRANCH  15  16
ATOM     16  O   UNL     1       2.701   6.027  20.296  0.00  0.00    +0.000 OA
BRANCH  16  17
ATOM     17  C   UNL     1       2.275   7.166  19.679  0.00  0.00    +0.000 A 
ATOM     18  C   UNL     1       2.437   7.456  18.315  0.00  0.00    +0.000 A 
ATOM     19  C   UNL     1       1.925   8.648  17.787  0.00  0.00    +0.000 A 
ATOM     20  C   UNL     1       1.240   9.535  18.609  0.00  0.00    +0.000 A 
ATOM     21  F   UNL     1       0.750  10.670  18.094  0.00  0.00    +0.000 F 
ATOM     22  C   UNL     1       1.054   9.260  19.955  0.00  0.00    +0.000 A 
ATOM     23  C   UNL     1       1.565   8.075  20.474  0.00  0.00    +0.000 A 
ATOM     24  F   UNL     1       1.379   7.813  21.778  0.00  0.00    +0.000 F 
ENDBRANCH  16  17
ENDBRANCH  15  16
ENDBRANCH  13  15
ENDBRANCH   3  13
TORSDOF 6
ENDMDL
MODEL 5
REMARK VINA RESULT:      -7.4      1.539      1.891
REMARK  Name = 
REMARK  8 active torsions:
REMARK  status: ('A' for Active; 'I' for Inactive)
REMARK    1  A    between atoms: C_1  and  O_2
REMARK    2  A    between atoms: O_2  and  C_3
REMARK    3  A    between atoms: C_8  and  C_9
REMARK    4  A    between atoms: N_11  and  C_12
REMARK    5  A    between atoms: C_12  and  C_13
REMARK    6  A    between atoms: C_12  and  C_14
REMARK    7  A    between atoms: C_14  and  O_15
REMARK    8  A    between atoms: O_15  and  C_16
REMARK                            x       y       z     vdW  Elec       q    Type
REMARK                         _______ _______ _______ _____ _____    ______ ____
ROOT
ATOM      1  C   UNL     1       4.086   5.402  18.405  0.00  0.00    +0.000 C 
ATOM      2  O   UNL     1       3.664   6.549  18.526  0.00  0.00    +0.000 OA
ATOM      3  N   UNL     1       5.388   5.091  18.075  0.00  0.00    +0.000 N 
ATOM      4  H   UNL     1       5.604   4.119  17.879  0.00  0.00    +0.000 HD
ENDROOT
BRANCH   1  10
ATOM      5  C   UNL     1       3.476   3.081  19.260  0.00  0.00    +0.000 A 
ATOM      6  N   UNL     1       2.606   2.041  19.371  0.00  0.00    +0.000 NA
ATOM      7  C   UNL     1       1.365   2.208  18.865  0.00  0.00    +0.000 A 
ATOM      8  C   UNL     1       0.929   3.380  18.278  0.00  0.00    +0.000 A 
ATOM      9  C   UNL     1       1.831   4.434  18.179  0.00  0.00    +0.000 A 
ATOM     10  C   UNL     1       3.140   4.289  18.661  0.00  0.00    +0.000 A 
BRANCH   5  12
ATOM     11  C   UNL     1       4.890   1.716  20.529  0.00  0.00    +0.000 C 
ATOM     12  O   UNL     1       4.752   2.912  19.762  0.00  0.00    +0.000 OA
ENDBRANCH   5  12
ENDBRANCH   1  10
BRANCH   3  13
ATOM     13  C   UNL     1       6.446   6.083  17.819  0.00  0.00    +0.000 C 
ATOM     14  C   UNL     1       7.804   5.555  18.274  0.00  0.00    +0.000 C 
BRANCH  13  15
ATOM     15  C   UNL     1       6.529   6.590  16.362  0.00  0.00    +0.000 C 
BRANCH  15  16
ATOM     16  O   UNL     1       7.437   5.766  15.631  0.00  0.00    +0.000 OA
BRANCH  16  17
ATOM     17  C   UNL     1       6.910   4.974  14.654  0.00  0.00    +0.000 A 
ATOM     18  C   UNL     1       5.734   4.217  14.773  0.00  0.00    +0.000 A 
ATOM     19  C   UNL     1       5.271   3.466  13.685  0.00  0.00    +0.000 A 
ATOM     20  C   UNL     1       5.965   3.486  12.481  0.00  0.00    +0.000 A 
ATOM     21  F   UNL     1       5.512   2.768  11.445  0.00  0.00    +0.000 F 
ATOM     22  C   UNL     1       7.119   4.241  12.337  0.00  0.00    +0.000 A 
ATOM     23  C   UNL     1       7.573   4.984  13.420  0.00  0.00    +0.000 A 
ATOM     24  F   UNL     1       8.690   5.716  13.273  0.00  0.00    +0.000 F 
ENDBRANCH  16  17
ENDBRANCH  15  16
ENDBRANCH  13  15
ENDBRANCH   3  13
TORSDOF 6
ENDMDL
MODEL 6
REMARK VINA RESULT:      -7.3      2.928      6.868
REMARK  Name = 
REMARK  8 active torsions:
REMARK  status: ('A' for Active; 'I' for Inactive)
REMARK    1  A    between atoms: C_1  and  O_2
REMARK    2  A    between atoms: O_2  and  C_3
REMARK    3  A    between atoms: C_8  and  C_9
REMARK    4  A    between atoms: N_11  and  C_12
REMARK    5  A    between atoms: C_12  and  C_13
REMARK    6  A    between atoms: C_12  and  C_14
REMARK    7  A    between atoms: C_14  and  O_15
REMARK    8  A    between atoms: O_15  and  C_16
REMARK                            x       y       z     vdW  Elec       q    Type
REMARK                         _______ _______ _______ _____ _____    ______ ____
ROOT
ATOM      1  C   UNL     1       3.849   3.996  17.559  0.00  0.00    +0.000 C 
ATOM      2  O   UNL     1       2.841   3.721  16.912  0.00  0.00    +0.000 OA
ATOM      3  N   UNL     1       3.887   4.065  18.935  0.00  0.00    +0.000 N 
ATOM      4  H   UNL     1       4.734   4.420  19.365  0.00  0.00    +0.000 HD
ENDROOT
BRANCH   1  10
ATOM      5  C   UNL     1       6.201   4.939  17.293  0.00  0.00    +0.000 A 
ATOM      6  N   UNL     1       7.288   5.237  16.531  0.00  0.00    +0.000 NA
ATOM      7  C   UNL     1       7.280   4.826  15.244  0.00  0.00    +0.000 A 
ATOM      8  C   UNL     1       6.252   4.096  14.680  0.00  0.00    +0.000 A 
ATOM      9  C   UNL     1       5.152   3.796  15.477  0.00  0.00    +0.000 A 
ATOM     10  C   UNL     1       5.105   4.235  16.808  0.00  0.00    +0.000 A 
BRANCH   5  12
ATOM     11  C   UNL     1       7.485   5.776  19.060  0.00  0.00    +0.000 C 
ATOM     12  O   UNL     1       6.194   5.371  18.605  0.00  0.00    +0.000 OA
ENDBRANCH   5  12
ENDBRANCH   1  10
BRANCH   3  13
ATOM     13  C   UNL     1       2.732   3.826  19.817  0.00  0.00    +0.000 C 
ATOM     14  C   UNL     1       3.049   2.741  20.841  0.00  0.00    +0.000 C 
BRANCH  13  15
ATOM     15  C   UNL     1       2.176   5.083  20.522  0.00  0.00    +0.000 C 
BRANCH  15  16
ATOM     16  O   UNL     1       2.933   6.222  20.112  0.00  0.00    +0.000 OA
BRANCH  16  17
ATOM     17  C   UNL     1       2.235   7.346  19.779  0.00  0.00    +0.000 A 
ATOM     18  C   UNL     1       1.426   8.084  20.657  0.00  0.00    +0.000 A 
ATOM     19  C   UNL     1       0.784   9.245  20.208  0.00  0.00    +0.000 A 
ATOM     20  C   UNL     1       0.963   9.677  18.899  0.00  0.00    +0.000 A 
ATOM     21  F   UNL     1       0.349  10.791  18.480  0.00  0.00    +0.000 F 
ATOM     22  C   UNL     1       1.772   8.972  18.022  0.00  0.00    +0.000 A 
ATOM     23  C   UNL     1       2.407   7.820  18.473  0.00  0.00    +0.000 A 
ATOM     24  F   UNL     1       3.191   7.143  17.618  0.00  0.00    +0.000 F 
ENDBRANCH  16  17
ENDBRANCH  15  16
ENDBRANCH  13  15
ENDBRANCH   3  13
TORSDOF 6
ENDMDL
MODEL 7
REMARK VINA RESULT:      -7.3      1.483      2.428
REMARK  Name = 
REMARK  8 active torsions:
REMARK  status: ('A' for Active; 'I' for Inactive)
REMARK    1  A    between atoms: C_1  and  O_2
REMARK    2  A    between atoms: O_2  and  C_3
REMARK    3  A    between atoms: C_8  and  C_9
REMARK    4  A    between atoms: N_11  and  C_12
REMARK    5  A    between atoms: C_12  and  C_13
REMARK    6  A    between atoms: C_12  and  C_14
REMARK    7  A    between atoms: C_14  and  O_15
REMARK    8  A    between atoms: O_15  and  C_16
REMARK                            x       y       z     vdW  Elec       q    Type
REMARK                         _______ _______ _______ _____ _____    ______ ____
ROOT
ATOM      1  C   UNL     1       4.399   5.328  18.027  0.00  0.00    +0.000 C 
ATOM      2  O   UNL     1       4.185   6.033  17.045  0.00  0.00    +0.000 OA
ATOM      3  N   UNL     1       5.652   5.096  18.552  0.00  0.00    +0.000 N 
ATOM      4  H   UNL     1       5.734   4.402  19.287  0.00  0.00    +0.000 HD
ENDROOT
BRANCH   1  10
ATOM      5  C   UNL     1       2.350   5.394  19.541  0.00  0.00    +0.000 A 
ATOM      6  N   UNL     1       1.358   4.772  20.234  0.00  0.00    +0.000 NA
ATOM      7  C   UNL     1       1.243   3.434  20.094  0.00  0.00    +0.000 A 
ATOM      8  C   UNL     1       2.049   2.678  19.264  0.00  0.00    +0.000 A 
ATOM      9  C   UNL     1       3.053   3.333  18.559  0.00  0.00    +0.000 A 
ATOM     10  C   UNL     1       3.230   4.717  18.704  0.00  0.00    +0.000 A 
BRANCH   5  12
ATOM     11  C   UNL     1       1.651   7.287  20.724  0.00  0.00    +0.000 C 
ATOM     12  O   UNL     1       2.485   6.761  19.692  0.00  0.00    +0.000 OA
ENDBRANCH   5  12
ENDBRANCH   1  10
BRANCH   3  13
ATOM     13  C   UNL     1       6.903   5.654  18.009  0.00  0.00    +0.000 C 
ATOM     14  C   UNL     1       7.888   5.967  19.131  0.00  0.00    +0.000 C 
BRANCH  13  15
ATOM     15  C   UNL     1       7.584   4.794  16.922  0.00  0.00    +0.000 C 
BRANCH  15  16
ATOM     16  O   UNL     1       7.496   5.469  15.667  0.00  0.00    +0.000 OA
BRANCH  16  17
ATOM     17  C   UNL     1       6.896   4.801  14.641  0.00  0.00    +0.000 A 
ATOM     18  C   UNL     1       5.688   4.092  14.736  0.00  0.00    +0.000 A 
ATOM     19  C   UNL     1       5.149   3.472  13.601  0.00  0.00    +0.000 A 
ATOM     20  C   UNL     1       5.801   3.574  12.377  0.00  0.00    +0.000 A 
ATOM     21  F   UNL     1       5.275   2.982  11.297  0.00  0.00    +0.000 F 
ATOM     22  C   UNL     1       6.985   4.284  12.260  0.00  0.00    +0.000 A 
ATOM     23  C   UNL     1       7.515   4.897  13.389  0.00  0.00    +0.000 A 
ATOM     24  F   UNL     1       8.663   5.586  13.267  0.00  0.00    +0.000 F 
ENDBRANCH  16  17
ENDBRANCH  15  16
ENDBRANCH  13  15
ENDBRANCH   3  13
TORSDOF 6
ENDMDL
MODEL 8
REMARK VINA RESULT:      -7.3      3.480      7.071
REMARK  Name = 
REMARK  8 active torsions:
REMARK  status: ('A' for Active; 'I' for Inactive)
REMARK    1  A    between atoms: C_1  and  O_2
REMARK    2  A    between atoms: O_2  and  C_3
REMARK    3  A    between atoms: C_8  and  C_9
REMARK    4  A    between atoms: N_11  and  C_12
REMARK    5  A    between atoms: C_12  and  C_13
REMARK    6  A    between atoms: C_12  and  C_14
REMARK    7  A    between atoms: C_14  and  O_15
REMARK    8  A    between atoms: O_15  and  C_16
REMARK                            x       y       z     vdW  Elec       q    Type
REMARK                         _______ _______ _______ _____ _____    ______ ____
ROOT
ATOM      1  C   UNL     1       4.185   3.944  17.610  0.00  0.00    +0.000 C 
ATOM      2  O   UNL     1       4.285   3.038  18.434  0.00  0.00    +0.000 OA
ATOM      3  N   UNL     1       3.088   4.771  17.504  0.00  0.00    +0.000 N 
ATOM      4  H   UNL     1       3.052   5.406  16.713  0.00  0.00    +0.000 HD
ENDROOT
BRANCH   1  10
ATOM      5  C   UNL     1       6.614   4.524  17.104  0.00  0.00    +0.000 A 
ATOM      6  N   UNL     1       7.608   4.841  16.231  0.00  0.00    +0.000 NA
ATOM      7  C   UNL     1       7.314   4.815  14.913  0.00  0.00    +0.000 A 
ATOM      8  C   UNL     1       6.078   4.453  14.412  0.00  0.00    +0.000 A 
ATOM      9  C   UNL     1       5.077   4.126  15.320  0.00  0.00    +0.000 A 
ATOM     10  C   UNL     1       5.331   4.175  16.698  0.00  0.00    +0.000 A 
BRANCH   5  12
ATOM     11  C   UNL     1       7.637   5.730  18.828  0.00  0.00    +0.000 C 
ATOM     12  O   UNL     1       6.903   4.564  18.455  0.00  0.00    +0.000 OA
ENDBRANCH   5  12
ENDBRANCH   1  10
BRANCH   3  13
ATOM     13  C   UNL     1       1.888   4.684  18.354  0.00  0.00    +0.000 C 
ATOM     14  C   UNL     1       1.371   3.250  18.413  0.00  0.00    +0.000 C 
BRANCH  13  15
ATOM     15  C   UNL     1       2.055   5.253  19.781  0.00  0.00    +0.000 C 
BRANCH  15  16
ATOM     16  O   UNL     1       2.859   6.431  19.723  0.00  0.00    +0.000 OA
BRANCH  16  17
ATOM     17  C   UNL     1       2.237   7.592  19.371  0.00  0.00    +0.000 A 
ATOM     18  C   UNL     1       2.245   8.155  18.086  0.00  0.00    +0.000 A 
ATOM     19  C   UNL     1       1.538   9.338  17.835  0.00  0.00    +0.000 A 
ATOM     20  C   UNL     1       0.814   9.945  18.855  0.00  0.00    +0.000 A 
ATOM     21  F   UNL     1       0.138  11.074  18.605  0.00  0.00    +0.000 F 
ATOM     22  C   UNL     1       0.781   9.396  20.127  0.00  0.00    +0.000 A 
ATOM     23  C   UNL     1       1.484   8.221  20.370  0.00  0.00    +0.000 A 
ATOM     24  F   UNL     1       1.444   7.693  21.605  0.00  0.00    +0.000 F 
ENDBRANCH  16  17
ENDBRANCH  15  16
ENDBRANCH  13  15
ENDBRANCH   3  13
TORSDOF 6
ENDMDL
MODEL 9
REMARK VINA RESULT:      -7.2      3.047      7.028
REMARK  Name = 
REMARK  8 active torsions:
REMARK  status: ('A' for Active; 'I' for Inactive)
REMARK    1  A    between atoms: C_1  and  O_2
REMARK    2  A    between atoms: O_2  and  C_3
REMARK    3  A    between atoms: C_8  and  C_9
REMARK    4  A    between atoms: N_11  and  C_12
REMARK    5  A    between atoms: C_12  and  C_13
REMARK    6  A    between atoms: C_12  and  C_14
REMARK    7  A    between atoms: C_14  and  O_15
REMARK    8  A    between atoms: O_15  and  C_16
REMARK                            x       y       z     vdW  Elec       q    Type
REMARK                         _______ _______ _______ _____ _____    ______ ____
ROOT
ATOM      1  C   UNL     1       4.418   4.169  17.924  0.00  0.00    +0.000 C 
ATOM      2  O   UNL     1       4.791   3.618  18.956  0.00  0.00    +0.000 OA
ATOM      3  N   UNL     1       3.122   4.578  17.693  0.00  0.00    +0.000 N 
ATOM      4  H   UNL     1       2.892   4.909  16.762  0.00  0.00    +0.000 HD
ENDROOT
BRANCH   1  10
ATOM      5  C   UNL     1       6.371   5.463  16.921  0.00  0.00    +0.000 A 
ATOM      6  N   UNL     1       7.211   5.744  15.889  0.00  0.00    +0.000 NA
ATOM      7  C   UNL     1       7.113   4.982  14.778  0.00  0.00    +0.000 A 
ATOM      8  C   UNL     1       6.237   3.921  14.653  0.00  0.00    +0.000 A 
ATOM      9  C   UNL     1       5.391   3.645  15.721  0.00  0.00    +0.000 A 
ATOM     10  C   UNL     1       5.436   4.435  16.879  0.00  0.00    +0.000 A 
BRANCH   5  12
ATOM     11  C   UNL     1       7.708   6.121  18.724  0.00  0.00    +0.000 C 
ATOM     12  O   UNL     1       6.454   6.249  18.054  0.00  0.00    +0.000 OA
ENDBRANCH   5  12
ENDBRANCH   1  10
BRANCH   3  13
ATOM     13  C   UNL     1       2.010   4.409  18.643  0.00  0.00    +0.000 C 
ATOM     14  C   UNL     1       1.783   2.932  18.955  0.00  0.00    +0.000 C 
BRANCH  13  15
ATOM     15  C   UNL     1       2.140   5.219  19.952  0.00  0.00    +0.000 C 
BRANCH  15  16
ATOM     16  O   UNL     1       2.901   6.400  19.698  0.00  0.00    +0.000 OA
BRANCH  16  17
ATOM     17  C   UNL     1       2.208   7.558  19.506  0.00  0.00    +0.000 A 
ATOM     18  C   UNL     1       1.396   8.183  20.465  0.00  0.00    +0.000 A 
ATOM     19  C   UNL     1       0.759   9.393  20.163  0.00  0.00    +0.000 A 
ATOM     20  C   UNL     1       0.946   9.985  18.919  0.00  0.00    +0.000 A 
ATOM     21  F   UNL     1       0.336  11.145  18.641  0.00  0.00    +0.000 F 
ATOM     22  C   UNL     1       1.757   9.393  17.964  0.00  0.00    +0.000 A 
ATOM     23  C   UNL     1       2.387   8.192  18.270  0.00  0.00    +0.000 A 
ATOM     24  F   UNL     1       3.174   7.626  17.341  0.00  0.00    +0.000 F 
ENDBRANCH  16  17
ENDBRANCH  15  16
ENDBRANCH  13  15
ENDBRANCH   3  13
TORSDOF 6
ENDMDL
