MODEL 1
REMARK VINA RESULT:      -6.4      0.000      0.000
REMARK  Name = 
REMARK  10 active torsions:
REMARK  status: ('A' for Active; 'I' for Inactive)
REMARK    1  A    between atoms: C_1  and  C_2
REMARK    2  A    between atoms: C_3  and  C_4
REMARK    3  A    between atoms: N_10  and  C_11
REMARK    4  A    between atoms: C_11  and  C_12
REMARK    5  A    between atoms: N_14  and  C_15
REMARK    6  A    between atoms: N_14  and  C_18
REMARK    7  A    between atoms: C_15  and  C_16
REMARK    8  A    between atoms: C_15  and  C_17
REMARK    9  A    between atoms: C_18  and  C_19
REMARK   10  A    between atoms: C_18  and  C_20
REMARK                            x       y       z     vdW  Elec       q    Type
REMARK                         _______ _______ _______ _____ _____    ______ ____
ROOT
ATOM      1  C   UNL     1       4.591   6.409  15.441  0.00  0.00    +0.000 C 
ATOM      2  C   UNL     1       4.732   5.575  16.731  0.00  0.00    +0.000 C 
ATOM      3  C   UNL     1       5.806   4.466  16.659  0.00  0.00    +0.000 C 
ATOM      4  C   UNL     1       5.640   3.497  15.489  0.00  0.00    +0.000 C 
ATOM      5  S   UNL     1       7.456   5.143  16.695  0.00  0.00    +0.000 S 
ATOM      6  O   UNL     1       7.707   5.888  15.470  0.00  0.00    +0.000 OA
ATOM      7  O   UNL     1       8.356   4.076  17.091  0.00  0.00    +0.000 OA
ATOM      8  C   UNL     1       7.386   6.285  18.043  0.00  0.00    +0.000 C 
ATOM      9  C   UNL     1       6.165   7.179  17.939  0.00  0.00    +0.000 C 
ATOM     10  N   UNL     1       4.865   6.480  17.910  0.00  0.00    +0.000 NA
ENDROOT
BRANCH  10  11
ATOM     11  C   UNL     1       4.568   5.783  19.200  0.00  0.00    +0.000 C 
BRANCH  11  12
ATOM     12  C   UNL     1       3.112   5.294  19.383  0.00  0.00    +0.000 C 
ATOM     13  O   UNL     1       2.177   6.084  19.517  0.00  0.00    +0.000 OA
ATOM     14  N   UNL     1       2.896   3.891  19.475  0.00  0.00    +0.000 N 
BRANCH  14  15
ATOM     15  C   UNL     1       3.877   2.785  19.173  0.00  0.00    +0.000 C 
ATOM     16  C   UNL     1       4.460   2.080  20.402  0.00  0.00    +0.000 C 
ATOM     17  C   UNL     1       3.443   1.696  18.180  0.00  0.00    +0.000 C 
ENDBRANCH  14  15
BRANCH  14  18
ATOM     18  C   UNL     1       1.474   3.531  19.795  0.00  0.00    +0.000 C 
ATOM     19  C   UNL     1       0.787   2.705  18.697  0.00  0.00    +0.000 C 
ATOM     20  C   UNL     1       1.227   2.861  21.149  0.00  0.00    +0.000 C 
ENDBRANCH  14  18
ENDBRANCH  11  12
ENDBRANCH  10  11
TORSDOF 4
ENDMDL
MODEL 2
REMARK VINA RESULT:      -6.0      2.626      5.828
REMARK  Name = 
REMARK  10 active torsions:
REMARK  status: ('A' for Active; 'I' for Inactive)
REMARK    1  A    between atoms: C_1  and  C_2
REMARK    2  A    between atoms: C_3  and  C_4
REMARK    3  A    between atoms: N_10  and  C_11
REMARK    4  A    between atoms: C_11  and  C_12
REMARK    5  A    between atoms: N_14  and  C_15
REMARK    6  A    between atoms: N_14  and  C_18
REMARK    7  A    between atoms: C_15  and  C_16
REMARK    8  A    between atoms: C_15  and  C_17
REMARK    9  A    between atoms: C_18  and  C_19
REMARK   10  A    between atoms: C_18  and  C_20
REMARK                            x       y       z     vdW  Elec       q    Type
REMARK                         _______ _______ _______ _____ _____    ______ ____
ROOT
ATOM      1  C   UNL     1       1.671   4.580  17.726  0.00  0.00    +0.000 C 
ATOM      2  C   UNL     1       2.913   4.503  18.636  0.00  0.00    +0.000 C 
ATOM      3  C   UNL     1       2.605   4.610  20.146  0.00  0.00    +0.000 C 
ATOM      4  C   UNL     1       1.808   5.851  20.545  0.00  0.00    +0.000 C 
ATOM      5  S   UNL     1       1.829   3.129  20.768  0.00  0.00    +0.000 S 
ATOM      6  O   UNL     1       0.498   2.997  20.195  0.00  0.00    +0.000 OA
ATOM      7  O   UNL     1       2.003   3.118  22.208  0.00  0.00    +0.000 OA
ATOM      8  C   UNL     1       2.852   1.843  20.115  0.00  0.00    +0.000 C 
ATOM      9  C   UNL     1       3.104   2.043  18.633  0.00  0.00    +0.000 C 
ATOM     10  N   UNL     1       3.745   3.321  18.263  0.00  0.00    +0.000 NA
ENDROOT
BRANCH  10  11
ATOM     11  C   UNL     1       5.144   3.422  18.780  0.00  0.00    +0.000 C 
BRANCH  11  12
ATOM     12  C   UNL     1       5.827   4.801  18.615  0.00  0.00    +0.000 C 
ATOM     13  O   UNL     1       6.001   5.554  19.573  0.00  0.00    +0.000 OA
ATOM     14  N   UNL     1       6.174   5.208  17.298  0.00  0.00    +0.000 N 
BRANCH  14  15
ATOM     15  C   UNL     1       6.188   4.367  16.045  0.00  0.00    +0.000 C 
ATOM     16  C   UNL     1       4.865   4.330  15.273  0.00  0.00    +0.000 C 
ATOM     17  C   UNL     1       7.309   4.622  15.025  0.00  0.00    +0.000 C 
ENDBRANCH  14  15
BRANCH  14  18
ATOM     18  C   UNL     1       6.696   6.615  17.231  0.00  0.00    +0.000 C 
ATOM     19  C   UNL     1       5.598   7.684  17.346  0.00  0.00    +0.000 C 
ATOM     20  C   UNL     1       7.835   6.968  18.190  0.00  0.00    +0.000 C 
ENDBRANCH  14  18
ENDBRANCH  11  12
ENDBRANCH  10  11
TORSDOF 4
ENDMDL
MODEL 3
REMARK VINA RESULT:      -5.9      1.671      3.226
REMARK  Name = 
REMARK  10 active torsions:
REMARK  status: ('A' for Active; 'I' for Inactive)
REMARK    1  A    between atoms: C_1  and  C_2
REMARK    2  A    between atoms: C_3  and  C_4
REMARK    3  A    between atoms: N_10  and  C_11
REMARK    4  A    between atoms: C_11  and  C_12
REMARK    5  A    between atoms: N_14  and  C_15
REMARK    6  A    between atoms: N_14  and  C_18
REMARK    7  A    between atoms: C_15  and  C_16
REMARK    8  A    between atoms: C_15  and  C_17
REMARK    9  A    between atoms: C_18  and  C_19
REMARK   10  A    between atoms: C_18  and  C_20
REMARK                            x       y       z     vdW  Elec       q    Type
REMARK                         _______ _______ _______ _____ _____    ______ ____
ROOT
ATOM      1  C   UNL     1       8.251   4.816  18.629  0.00  0.00    +0.000 C 
ATOM      2  C   UNL     1       6.903   5.542  18.808  0.00  0.00    +0.000 C 
ATOM      3  C   UNL     1       6.593   6.592  17.718  0.00  0.00    +0.000 C 
ATOM      4  C   UNL     1       7.676   7.653  17.533  0.00  0.00    +0.000 C 
ATOM      5  S   UNL     1       6.183   5.823  16.160  0.00  0.00    +0.000 S 
ATOM      6  O   UNL     1       7.359   5.160  15.618  0.00  0.00    +0.000 OA
ATOM      7  O   UNL     1       5.473   6.806  15.363  0.00  0.00    +0.000 OA
ATOM      8  C   UNL     1       5.005   4.589  16.626  0.00  0.00    +0.000 C 
ATOM      9  C   UNL     1       5.504   3.775  17.805  0.00  0.00    +0.000 C 
ATOM     10  N   UNL     1       5.813   4.545  19.026  0.00  0.00    +0.000 NA
ENDROOT
BRANCH  10  11
ATOM     11  C   UNL     1       4.591   5.159  19.632  0.00  0.00    +0.000 C 
BRANCH  11  12
ATOM     12  C   UNL     1       3.448   4.178  19.985  0.00  0.00    +0.000 C 
ATOM     13  O   UNL     1       3.676   3.031  20.367  0.00  0.00    +0.000 OA
ATOM     14  N   UNL     1       2.113   4.622  19.774  0.00  0.00    +0.000 N 
BRANCH  14  15
ATOM     15  C   UNL     1       1.644   6.025  19.475  0.00  0.00    +0.000 C 
ATOM     16  C   UNL     1       1.616   6.971  20.680  0.00  0.00    +0.000 C 
ATOM     17  C   UNL     1       2.320   6.775  18.317  0.00  0.00    +0.000 C 
ENDBRANCH  14  15
BRANCH  14  18
ATOM     18  C   UNL     1       1.089   3.550  20.010  0.00  0.00    +0.000 C 
ATOM     19  C   UNL     1       0.997   2.526  18.868  0.00  0.00    +0.000 C 
ATOM     20  C   UNL     1       1.175   2.803  21.342  0.00  0.00    +0.000 C 
ENDBRANCH  14  18
ENDBRANCH  11  12
ENDBRANCH  10  11
TORSDOF 4
ENDMDL
MODEL 4
REMARK VINA RESULT:      -5.9      2.632      5.880
REMARK  Name = 
REMARK  10 active torsions:
REMARK  status: ('A' for Active; 'I' for Inactive)
REMARK    1  A    between atoms: C_1  and  C_2
REMARK    2  A    between atoms: C_3  and  C_4
REMARK    3  A    between atoms: N_10  and  C_11
REMARK    4  A    between atoms: C_11  and  C_12
REMARK    5  A    between atoms: N_14  and  C_15
REMARK    6  A    between atoms: N_14  and  C_18
REMARK    7  A    between atoms: C_15  and  C_16
REMARK    8  A    between atoms: C_15  and  C_17
REMARK    9  A    between atoms: C_18  and  C_19
REMARK   10  A    between atoms: C_18  and  C_20
REMARK                            x       y       z     vdW  Elec       q    Type
REMARK                         _______ _______ _______ _____ _____    ______ ____
ROOT
ATOM      1  C   UNL     1       1.767   5.630  17.937  0.00  0.00    +0.000 C 
ATOM      2  C   UNL     1       2.968   4.905  18.578  0.00  0.00    +0.000 C 
ATOM      3  C   UNL     1       2.689   4.333  19.986  0.00  0.00    +0.000 C 
ATOM      4  C   UNL     1       2.164   5.354  20.994  0.00  0.00    +0.000 C 
ATOM      5  S   UNL     1       1.625   2.902  19.917  0.00  0.00    +0.000 S 
ATOM      6  O   UNL     1       0.295   3.302  19.484  0.00  0.00    +0.000 OA
ATOM      7  O   UNL     1       1.794   2.174  21.161  0.00  0.00    +0.000 OA
ATOM      8  C   UNL     1       2.361   1.922  18.643  0.00  0.00    +0.000 C 
ATOM      9  C   UNL     1       2.648   2.756  17.409  0.00  0.00    +0.000 C 
ATOM     10  N   UNL     1       3.538   3.916  17.617  0.00  0.00    +0.000 NA
ENDROOT
BRANCH  10  11
ATOM     11  C   UNL     1       4.929   3.504  17.981  0.00  0.00    +0.000 C 
BRANCH  11  12
ATOM     12  C   UNL     1       5.834   4.618  18.558  0.00  0.00    +0.000 C 
ATOM     13  O   UNL     1       6.006   4.747  19.770  0.00  0.00    +0.000 OA
ATOM     14  N   UNL     1       6.399   5.547  17.641  0.00  0.00    +0.000 N 
BRANCH  14  15
ATOM     15  C   UNL     1       6.434   5.452  16.135  0.00  0.00    +0.000 C 
ATOM     16  C   UNL     1       6.793   4.070  15.579  0.00  0.00    +0.000 C 
ATOM     17  C   UNL     1       5.207   5.955  15.358  0.00  0.00    +0.000 C 
ENDBRANCH  14  15
BRANCH  14  18
ATOM     18  C   UNL     1       7.139   6.667  18.313  0.00  0.00    +0.000 C 
ATOM     19  C   UNL     1       8.317   6.195  19.178  0.00  0.00    +0.000 C 
ATOM     20  C   UNL     1       7.611   7.811  17.413  0.00  0.00    +0.000 C 
ENDBRANCH  14  18
ENDBRANCH  11  12
ENDBRANCH  10  11
TORSDOF 4
ENDMDL
MODEL 5
REMARK VINA RESULT:      -5.9      1.275      1.571
REMARK  Name = 
REMARK  10 active torsions:
REMARK  status: ('A' for Active; 'I' for Inactive)
REMARK    1  A    between atoms: C_1  and  C_2
REMARK    2  A    between atoms: C_3  and  C_4
REMARK    3  A    between atoms: N_10  and  C_11
REMARK    4  A    between atoms: C_11  and  C_12
REMARK    5  A    between atoms: N_14  and  C_15
REMARK    6  A    between atoms: N_14  and  C_18
REMARK    7  A    between atoms: C_15  and  C_16
REMARK    8  A    between atoms: C_15  and  C_17
REMARK    9  A    between atoms: C_18  and  C_19
REMARK   10  A    between atoms: C_18  and  C_20
REMARK                            x       y       z     vdW  Elec       q    Type
REMARK                         _______ _______ _______ _____ _____    ______ ____
ROOT
ATOM      1  C   UNL     1       5.162   6.945  15.212  0.00  0.00    +0.000 C 
ATOM      2  C   UNL     1       5.008   5.493  15.706  0.00  0.00    +0.000 C 
ATOM      3  C   UNL     1       6.333   4.703  15.789  0.00  0.00    +0.000 C 
ATOM      4  C   UNL     1       7.136   4.673  14.490  0.00  0.00    +0.000 C 
ATOM      5  S   UNL     1       7.345   5.254  17.150  0.00  0.00    +0.000 S 
ATOM      6  O   UNL     1       7.814   6.607  16.895  0.00  0.00    +0.000 OA
ATOM      7  O   UNL     1       8.299   4.199  17.439  0.00  0.00    +0.000 OA
ATOM      8  C   UNL     1       6.203   5.300  18.499  0.00  0.00    +0.000 C 
ATOM      9  C   UNL     1       4.930   6.028  18.113  0.00  0.00    +0.000 C 
ATOM     10  N   UNL     1       4.199   5.465  16.960  0.00  0.00    +0.000 NA
ENDROOT
BRANCH  10  11
ATOM     11  C   UNL     1       3.644   4.107  17.251  0.00  0.00    +0.000 C 
BRANCH  11  12
ATOM     12  C   UNL     1       2.430   4.065  18.209  0.00  0.00    +0.000 C 
ATOM     13  O   UNL     1       1.482   4.841  18.086  0.00  0.00    +0.000 OA
ATOM     14  N   UNL     1       2.482   3.148  19.295  0.00  0.00    +0.000 N 
BRANCH  14  15
ATOM     15  C   UNL     1       3.466   2.025  19.508  0.00  0.00    +0.000 C 
ATOM     16  C   UNL     1       3.751   1.167  18.271  0.00  0.00    +0.000 C 
ATOM     17  C   UNL     1       4.819   2.370  20.150  0.00  0.00    +0.000 C 
ENDBRANCH  14  15
BRANCH  14  18
ATOM     18  C   UNL     1       1.325   3.288  20.243  0.00  0.00    +0.000 C 
ATOM     19  C   UNL     1       0.057   2.557  19.778  0.00  0.00    +0.000 C 
ATOM     20  C   UNL     1       1.595   2.932  21.707  0.00  0.00    +0.000 C 
ENDBRANCH  14  18
ENDBRANCH  11  12
ENDBRANCH  10  11
TORSDOF 4
ENDMDL
MODEL 6
REMARK VINA RESULT:      -5.8      0.685      1.033
REMARK  Name = 
REMARK  10 active torsions:
REMARK  status: ('A' for Active; 'I' for Inactive)
REMARK    1  A    between atoms: C_1  and  C_2
REMARK    2  A    between atoms: C_3  and  C_4
REMARK    3  A    between atoms: N_10  and  C_11
REMARK    4  A    between atoms: C_11  and  C_12
REMARK    5  A    between atoms: N_14  and  C_15
REMARK    6  A    between atoms: N_14  and  C_18
REMARK    7  A    between atoms: C_15  and  C_16
REMARK    8  A    between atoms: C_15  and  C_17
REMARK    9  A    between atoms: C_18  and  C_19
REMARK   10  A    between atoms: C_18  and  C_20
REMARK                            x       y       z     vdW  Elec       q    Type
REMARK                         _______ _______ _______ _____ _____    ______ ____
ROOT
ATOM      1  C   UNL     1       4.592   6.979  16.191  0.00  0.00    +0.000 C 
ATOM      2  C   UNL     1       4.718   5.709  17.056  0.00  0.00    +0.000 C 
ATOM      3  C   UNL     1       5.647   4.624  16.465  0.00  0.00    +0.000 C 
ATOM      4  C   UNL     1       5.293   4.191  15.044  0.00  0.00    +0.000 C 
ATOM      5  S   UNL     1       7.364   5.095  16.578  0.00  0.00    +0.000 S 
ATOM      6  O   UNL     1       7.620   6.226  15.699  0.00  0.00    +0.000 OA
ATOM      7  O   UNL     1       8.156   3.885  16.453  0.00  0.00    +0.000 OA
ATOM      8  C   UNL     1       7.516   5.639  18.253  0.00  0.00    +0.000 C 
ATOM      9  C   UNL     1       6.405   6.605  18.617  0.00  0.00    +0.000 C 
ATOM     10  N   UNL     1       5.032   6.082  18.467  0.00  0.00    +0.000 NA
ENDROOT
BRANCH  10  11
ATOM     11  C   UNL     1       4.740   4.974  19.428  0.00  0.00    +0.000 C 
BRANCH  11  12
ATOM     12  C   UNL     1       3.252   4.785  19.807  0.00  0.00    +0.000 C 
ATOM     13  O   UNL     1       2.510   5.745  20.015  0.00  0.00    +0.000 OA
ATOM     14  N   UNL     1       2.785   3.453  19.988  0.00  0.00    +0.000 N 
BRANCH  14  15
ATOM     15  C   UNL     1       3.489   2.170  19.622  0.00  0.00    +0.000 C 
ATOM     16  C   UNL     1       3.736   1.969  18.123  0.00  0.00    +0.000 C 
ATOM     17  C   UNL     1       4.801   1.841  20.352  0.00  0.00    +0.000 C 
ENDBRANCH  14  15
BRANCH  14  18
ATOM     18  C   UNL     1       1.372   3.385  20.492  0.00  0.00    +0.000 C 
ATOM     19  C   UNL     1       0.357   2.954  19.423  0.00  0.00    +0.000 C 
ATOM     20  C   UNL     1       1.138   2.561  21.760  0.00  0.00    +0.000 C 
ENDBRANCH  14  18
ENDBRANCH  11  12
ENDBRANCH  10  11
TORSDOF 4
ENDMDL
MODEL 7
REMARK VINA RESULT:      -5.8      1.278      1.532
REMARK  Name = 
REMARK  10 active torsions:
REMARK  status: ('A' for Active; 'I' for Inactive)
REMARK    1  A    between atoms: C_1  and  C_2
REMARK    2  A    between atoms: C_3  and  C_4
REMARK    3  A    between atoms: N_10  and  C_11
REMARK    4  A    between atoms: C_11  and  C_12
REMARK    5  A    between atoms: N_14  and  C_15
REMARK    6  A    between atoms: N_14  and  C_18
REMARK    7  A    between atoms: C_15  and  C_16
REMARK    8  A    between atoms: C_15  and  C_17
REMARK    9  A    between atoms: C_18  and  C_19
REMARK   10  A    between atoms: C_18  and  C_20
REMARK                            x       y       z     vdW  Elec       q    Type
REMARK                         _______ _______ _______ _____ _____    ______ ____
ROOT
ATOM      1  C   UNL     1       5.141   6.935  15.145  0.00  0.00    +0.000 C 
ATOM      2  C   UNL     1       4.945   5.505  15.689  0.00  0.00    +0.000 C 
ATOM      3  C   UNL     1       6.245   4.677  15.791  0.00  0.00    +0.000 C 
ATOM      4  C   UNL     1       7.039   4.579  14.489  0.00  0.00    +0.000 C 
ATOM      5  S   UNL     1       7.283   5.242  17.128  0.00  0.00    +0.000 S 
ATOM      6  O   UNL     1       7.792   6.571  16.824  0.00  0.00    +0.000 OA
ATOM      7  O   UNL     1       8.206   4.168  17.446  0.00  0.00    +0.000 OA
ATOM      8  C   UNL     1       6.152   5.369  18.480  0.00  0.00    +0.000 C 
ATOM      9  C   UNL     1       4.899   6.123  18.077  0.00  0.00    +0.000 C 
ATOM     10  N   UNL     1       4.144   5.544  16.948  0.00  0.00    +0.000 NA
ENDROOT
BRANCH  10  11
ATOM     11  C   UNL     1       3.549   4.215  17.287  0.00  0.00    +0.000 C 
BRANCH  11  12
ATOM     12  C   UNL     1       2.728   4.158  18.597  0.00  0.00    +0.000 C 
ATOM     13  O   UNL     1       1.751   4.884  18.779  0.00  0.00    +0.000 OA
ATOM     14  N   UNL     1       3.191   3.290  19.625  0.00  0.00    +0.000 N 
BRANCH  14  15
ATOM     15  C   UNL     1       4.252   2.223  19.523  0.00  0.00    +0.000 C 
ATOM     16  C   UNL     1       4.779   1.700  20.864  0.00  0.00    +0.000 C 
ATOM     17  C   UNL     1       3.956   1.002  18.638  0.00  0.00    +0.000 C 
ENDBRANCH  14  15
BRANCH  14  18
ATOM     18  C   UNL     1       2.410   3.416  20.902  0.00  0.00    +0.000 C 
ATOM     19  C   UNL     1       2.183   4.870  21.343  0.00  0.00    +0.000 C 
ATOM     20  C   UNL     1       1.079   2.664  20.966  0.00  0.00    +0.000 C 
ENDBRANCH  14  18
ENDBRANCH  11  12
ENDBRANCH  10  11
TORSDOF 4
ENDMDL
MODEL 8
REMARK VINA RESULT:      -5.8      1.648      2.466
REMARK  Name = 
REMARK  10 active torsions:
REMARK  status: ('A' for Active; 'I' for Inactive)
REMARK    1  A    between atoms: C_1  and  C_2
REMARK    2  A    between atoms: C_3  and  C_4
REMARK    3  A    between atoms: N_10  and  C_11
REMARK    4  A    between atoms: C_11  and  C_12
REMARK    5  A    between atoms: N_14  and  C_15
REMARK    6  A    between atoms: N_14  and  C_18
REMARK    7  A    between atoms: C_15  and  C_16
REMARK    8  A    between atoms: C_15  and  C_17
REMARK    9  A    between atoms: C_18  and  C_19
REMARK   10  A    between atoms: C_18  and  C_20
REMARK                            x       y       z     vdW  Elec       q    Type
REMARK                         _______ _______ _______ _____ _____    ______ ____
ROOT
ATOM      1  C   UNL     1       4.788   7.232  17.989  0.00  0.00    +0.000 C 
ATOM      2  C   UNL     1       4.914   5.698  17.893  0.00  0.00    +0.000 C 
ATOM      3  C   UNL     1       5.598   5.194  16.603  0.00  0.00    +0.000 C 
ATOM      4  C   UNL     1       4.959   5.694  15.309  0.00  0.00    +0.000 C 
ATOM      5  S   UNL     1       7.352   5.523  16.615  0.00  0.00    +0.000 S 
ATOM      6  O   UNL     1       7.581   6.958  16.539  0.00  0.00    +0.000 OA
ATOM      7  O   UNL     1       7.967   4.638  15.643  0.00  0.00    +0.000 OA
ATOM      8  C   UNL     1       7.849   4.958  18.214  0.00  0.00    +0.000 C 
ATOM      9  C   UNL     1       6.934   5.501  19.295  0.00  0.00    +0.000 C 
ATOM     10  N   UNL     1       5.505   5.156  19.152  0.00  0.00    +0.000 NA
ENDROOT
BRANCH  10  11
ATOM     11  C   UNL     1       5.258   3.691  19.314  0.00  0.00    +0.000 C 
BRANCH  11  12
ATOM     12  C   UNL     1       3.974   3.145  18.643  0.00  0.00    +0.000 C 
ATOM     13  O   UNL     1       4.019   2.478  17.610  0.00  0.00    +0.000 OA
ATOM     14  N   UNL     1       2.726   3.511  19.219  0.00  0.00    +0.000 N 
BRANCH  14  15
ATOM     15  C   UNL     1       2.484   4.170  20.555  0.00  0.00    +0.000 C 
ATOM     16  C   UNL     1       1.645   5.451  20.504  0.00  0.00    +0.000 C 
ATOM     17  C   UNL     1       1.925   3.299  21.691  0.00  0.00    +0.000 C 
ENDBRANCH  14  15
BRANCH  14  18
ATOM     18  C   UNL     1       1.545   3.051  18.413  0.00  0.00    +0.000 C 
ATOM     19  C   UNL     1       0.430   2.420  19.261  0.00  0.00    +0.000 C 
ATOM     20  C   UNL     1       0.926   4.078  17.463  0.00  0.00    +0.000 C 
ENDBRANCH  14  18
ENDBRANCH  11  12
ENDBRANCH  10  11
TORSDOF 4
ENDMDL
MODEL 9
REMARK VINA RESULT:      -5.8      3.792      5.679
REMARK  Name = 
REMARK  10 active torsions:
REMARK  status: ('A' for Active; 'I' for Inactive)
REMARK    1  A    between atoms: C_1  and  C_2
REMARK    2  A    between atoms: C_3  and  C_4
REMARK    3  A    between atoms: N_10  and  C_11
REMARK    4  A    between atoms: C_11  and  C_12
REMARK    5  A    between atoms: N_14  and  C_15
REMARK    6  A    between atoms: N_14  and  C_18
REMARK    7  A    between atoms: C_15  and  C_16
REMARK    8  A    between atoms: C_15  and  C_17
REMARK    9  A    between atoms: C_18  and  C_19
REMARK   10  A    between atoms: C_18  and  C_20
REMARK                            x       y       z     vdW  Elec       q    Type
REMARK                         _______ _______ _______ _____ _____    ______ ____
ROOT
ATOM      1  C   UNL     1       0.833   3.455  18.613  0.00  0.00    +0.000 C 
ATOM      2  C   UNL     1       1.681   4.476  19.398  0.00  0.00    +0.000 C 
ATOM      3  C   UNL     1       2.750   3.844  20.316  0.00  0.00    +0.000 C 
ATOM      4  C   UNL     1       2.208   2.821  21.313  0.00  0.00    +0.000 C 
ATOM      5  S   UNL     1       4.106   3.162  19.378  0.00  0.00    +0.000 S 
ATOM      6  O   UNL     1       3.643   2.012  18.616  0.00  0.00    +0.000 OA
ATOM      7  O   UNL     1       5.235   3.027  20.279  0.00  0.00    +0.000 OA
ATOM      8  C   UNL     1       4.500   4.463  18.248  0.00  0.00    +0.000 C 
ATOM      9  C   UNL     1       3.252   4.993  17.568  0.00  0.00    +0.000 C 
ATOM     10  N   UNL     1       2.209   5.519  18.470  0.00  0.00    +0.000 NA
ENDROOT
BRANCH  10  11
ATOM     11  C   UNL     1       2.654   6.751  19.192  0.00  0.00    +0.000 C 
BRANCH  11  12
ATOM     12  C   UNL     1       1.977   8.071  18.754  0.00  0.00    +0.000 C 
ATOM     13  O   UNL     1       2.040   8.476  17.593  0.00  0.00    +0.000 OA
ATOM     14  N   UNL     1       1.343   8.850  19.761  0.00  0.00    +0.000 N 
BRANCH  14  15
ATOM     15  C   UNL     1       1.026   8.443  21.179  0.00  0.00    +0.000 C 
ATOM     16  C   UNL     1       1.666   9.315  22.264  0.00  0.00    +0.000 C 
ATOM     17  C   UNL     1      -0.452   8.252  21.556  0.00  0.00    +0.000 C 
ENDBRANCH  14  15
BRANCH  14  18
ATOM     18  C   UNL     1       0.845  10.175  19.260  0.00  0.00    +0.000 C 
ATOM     19  C   UNL     1       1.939  11.037  18.612  0.00  0.00    +0.000 C 
ATOM     20  C   UNL     1      -0.374  10.142  18.335  0.00  0.00    +0.000 C 
ENDBRANCH  14  18
ENDBRANCH  11  12
ENDBRANCH  10  11
TORSDOF 4
ENDMDL
