MODEL 1
REMARK VINA RESULT:      -8.6      0.000      0.000
REMARK  Name = 
REMARK  7 active torsions:
REMARK  status: ('A' for Active; 'I' for Inactive)
REMARK    1  A    between atoms: C_1  and  C_2
REMARK    2  A    between atoms: C_2  and  C_3
REMARK    3  A    between atoms: C_3  and  O_4
REMARK    4  A    between atoms: O_4  and  C_5
REMARK    5  A    between atoms: C_5  and  C_7
REMARK    6  A    between atoms: C_7  and  C_8
REMARK    7  A    between atoms: C_10  and  O_11
REMARK                            x       y       z     vdW  Elec       q    Type
REMARK                         _______ _______ _______ _____ _____    ______ ____
ROOT
ATOM      1  C   UNL     1       5.274   5.052  16.191  0.00  0.00    +0.000 C 
ATOM      2  C   UNL     1       6.623   5.106  16.918  0.00  0.00    +0.000 C 
ATOM      3  C   UNL     1       6.446   4.937  18.419  0.00  0.00    +0.000 C 
ATOM      4  C   UNL     1       5.432   5.947  18.948  0.00  0.00    +0.000 C 
ATOM      5  C   UNL     1       4.127   5.866  18.151  0.00  0.00    +0.000 C 
ATOM      6  C   UNL     1       3.142   6.972  18.549  0.00  0.00    +0.000 C 
ATOM      7  C   UNL     1       1.822   6.231  18.606  0.00  0.00    +0.000 C 
ATOM      8  C   UNL     1       2.261   4.878  19.152  0.00  0.00    +0.000 C 
ATOM      9  C   UNL     1       2.552   4.931  20.652  0.00  0.00    +0.000 C 
ATOM     10  C   UNL     1       2.760   3.758  21.285  0.00  0.00    +0.000 C 
ATOM     11  C   UNL     1       1.494   2.952  21.195  0.00  0.00    +0.000 C 
ATOM     12  O   UNL     1       1.027   2.354  22.154  0.00  0.00    +0.000 OA
ATOM     13  C   UNL     1       0.883   2.887  19.832  0.00  0.00    +0.000 C 
ATOM     14  C   UNL     1       1.275   3.756  18.882  0.00  0.00    +0.000 C 
ATOM     15  O   UNL     1       3.487   4.605  18.454  0.00  0.00    +0.000 OA
ATOM     16  O   UNL     1       4.377   6.017  16.750  0.00  0.00    +0.000 OA
ENDROOT
BRANCH   3  17
ATOM     17  O   UNL     1       6.051   3.598  18.715  0.00  0.00    +0.000 OA
ATOM     18  H   UNL     1       6.079   3.084  17.884  0.00  0.00    +0.000 HD
ENDBRANCH   3  17
BRANCH   1  19
ATOM     19  C   UNL     1       5.498   5.373  14.709  0.00  0.00    +0.000 C 
BRANCH  19  20
ATOM     20  C   UNL     1       6.756   4.788  14.118  0.00  0.00    +0.000 C 
ATOM     21  O   UNL     1       7.826   5.388  14.124  0.00  0.00    +0.000 OA
BRANCH  20  22
ATOM     22  O   UNL     1       6.571   3.536  13.628  0.00  0.00    +0.000 OA
BRANCH  22  23
ATOM     23  C   UNL     1       6.576   3.426  12.199  0.00  0.00    +0.000 C 
BRANCH  23  25
ATOM     24  C   UNL     1       4.218   3.306  11.380  0.00  0.00    +0.000 C 
ATOM     25  C   UNL     1       5.464   2.503  11.720  0.00  0.00    +0.000 C 
ENDBRANCH  23  25
ENDBRANCH  22  23
ENDBRANCH  20  22
ENDBRANCH  19  20
ENDBRANCH   1  19
TORSDOF 6
ENDMDL
MODEL 2
REMARK VINA RESULT:      -8.0      0.881      1.162
REMARK  Name = 
REMARK  7 active torsions:
REMARK  status: ('A' for Active; 'I' for Inactive)
REMARK    1  A    between atoms: C_1  and  C_2
REMARK    2  A    between atoms: C_2  and  C_3
REMARK    3  A    between atoms: C_3  and  O_4
REMARK    4  A    between atoms: O_4  and  C_5
REMARK    5  A    between atoms: C_5  and  C_7
REMARK    6  A    between atoms: C_7  and  C_8
REMARK    7  A    between atoms: C_10  and  O_11
REMARK                            x       y       z     vdW  Elec       q    Type
REMARK                         _______ _______ _______ _____ _____    ______ ____
ROOT
ATOM      1  C   UNL     1       5.636   5.016  15.736  0.00  0.00    +0.000 C 
ATOM      2  C   UNL     1       6.945   5.111  16.528  0.00  0.00    +0.000 C 
ATOM      3  C   UNL     1       6.690   5.036  18.025  0.00  0.00    +0.000 C 
ATOM      4  C   UNL     1       5.656   6.080  18.438  0.00  0.00    +0.000 C 
ATOM      5  C   UNL     1       4.394   5.954  17.580  0.00  0.00    +0.000 C 
ATOM      6  C   UNL     1       3.396   7.085  17.857  0.00  0.00    +0.000 C 
ATOM      7  C   UNL     1       2.071   6.353  17.892  0.00  0.00    +0.000 C 
ATOM      8  C   UNL     1       2.472   5.035  18.542  0.00  0.00    +0.000 C 
ATOM      9  C   UNL     1       2.686   5.180  20.049  0.00  0.00    +0.000 C 
ATOM     10  C   UNL     1       2.854   4.048  20.763  0.00  0.00    +0.000 C 
ATOM     11  C   UNL     1       1.589   3.241  20.657  0.00  0.00    +0.000 C 
ATOM     12  O   UNL     1       1.070   2.705  21.626  0.00  0.00    +0.000 OA
ATOM     13  C   UNL     1       1.049   3.093  19.271  0.00  0.00    +0.000 C 
ATOM     14  C   UNL     1       1.495   3.901  18.291  0.00  0.00    +0.000 C 
ATOM     15  O   UNL     1       3.731   4.715  17.927  0.00  0.00    +0.000 OA
ATOM     16  O   UNL     1       4.717   6.016  16.187  0.00  0.00    +0.000 OA
ENDROOT
BRANCH   3  17
ATOM     17  O   UNL     1       6.272   3.719  18.382  0.00  0.00    +0.000 OA
ATOM     18  H   UNL     1       5.483   3.797  18.954  0.00  0.00    +0.000 HD
ENDBRANCH   3  17
BRANCH   1  19
ATOM     19  C   UNL     1       5.937   5.244  14.251  0.00  0.00    +0.000 C 
BRANCH  19  20
ATOM     20  C   UNL     1       5.932   3.995  13.406  0.00  0.00    +0.000 C 
ATOM     21  O   UNL     1       6.925   3.287  13.271  0.00  0.00    +0.000 OA
BRANCH  20  22
ATOM     22  O   UNL     1       4.716   3.738  12.859  0.00  0.00    +0.000 OA
BRANCH  22  23
ATOM     23  C   UNL     1       4.738   3.204  11.530  0.00  0.00    +0.000 C 
BRANCH  23  25
ATOM     24  C   UNL     1       3.177   4.083   9.787  0.00  0.00    +0.000 C 
ATOM     25  C   UNL     1       3.330   3.121  10.954  0.00  0.00    +0.000 C 
ENDBRANCH  23  25
ENDBRANCH  22  23
ENDBRANCH  20  22
ENDBRANCH  19  20
ENDBRANCH   1  19
TORSDOF 6
ENDMDL
MODEL 3
REMARK VINA RESULT:      -8.0      1.475      2.749
REMARK  Name = 
REMARK  7 active torsions:
REMARK  status: ('A' for Active; 'I' for Inactive)
REMARK    1  A    between atoms: C_1  and  C_2
REMARK    2  A    between atoms: C_2  and  C_3
REMARK    3  A    between atoms: C_3  and  O_4
REMARK    4  A    between atoms: O_4  and  C_5
REMARK    5  A    between atoms: C_5  and  C_7
REMARK    6  A    between atoms: C_7  and  C_8
REMARK    7  A    between atoms: C_10  and  O_11
REMARK                            x       y       z     vdW  Elec       q    Type
REMARK                         _______ _______ _______ _____ _____    ______ ____
ROOT
ATOM      1  C   UNL     1       5.201   6.006  17.548  0.00  0.00    +0.000 C 
ATOM      2  C   UNL     1       4.338   7.269  17.451  0.00  0.00    +0.000 C 
ATOM      3  C   UNL     1       2.984   7.062  18.112  0.00  0.00    +0.000 C 
ATOM      4  C   UNL     1       2.304   5.819  17.546  0.00  0.00    +0.000 C 
ATOM      5  C   UNL     1       3.236   4.608  17.638  0.00  0.00    +0.000 C 
ATOM      6  C   UNL     1       2.649   3.378  16.937  0.00  0.00    +0.000 C 
ATOM      7  C   UNL     1       2.966   2.262  17.910  0.00  0.00    +0.000 C 
ATOM      8  C   UNL     1       2.795   2.972  19.247  0.00  0.00    +0.000 C 
ATOM      9  C   UNL     1       1.322   3.170  19.608  0.00  0.00    +0.000 C 
ATOM     10  C   UNL     1       1.042   3.611  20.851  0.00  0.00    +0.000 C 
ATOM     11  C   UNL     1       1.512   2.570  21.829  0.00  0.00    +0.000 C 
ATOM     12  O   UNL     1       0.832   2.207  22.779  0.00  0.00    +0.000 OA
ATOM     13  C   UNL     1       2.895   2.057  21.588  0.00  0.00    +0.000 C 
ATOM     14  C   UNL     1       3.496   2.285  20.404  0.00  0.00    +0.000 C 
ATOM     15  O   UNL     1       3.394   4.261  19.033  0.00  0.00    +0.000 OA
ATOM     16  O   UNL     1       4.492   4.885  17.010  0.00  0.00    +0.000 OA
ENDROOT
BRANCH   3  17
ATOM     17  O   UNL     1       3.143   6.972  19.527  0.00  0.00    +0.000 OA
ATOM     18  H   UNL     1       4.078   6.752  19.713  0.00  0.00    +0.000 HD
ENDBRANCH   3  17
BRANCH   1  19
ATOM     19  C   UNL     1       6.487   6.221  16.742  0.00  0.00    +0.000 C 
BRANCH  19  20
ATOM     20  C   UNL     1       7.383   5.012  16.647  0.00  0.00    +0.000 C 
ATOM     21  O   UNL     1       7.877   4.480  17.636  0.00  0.00    +0.000 OA
BRANCH  20  22
ATOM     22  O   UNL     1       7.540   4.575  15.372  0.00  0.00    +0.000 OA
BRANCH  22  23
ATOM     23  C   UNL     1       6.578   5.064  14.428  0.00  0.00    +0.000 C 
BRANCH  23  25
ATOM     24  C   UNL     1       6.313   3.507  12.492  0.00  0.00    +0.000 C 
ATOM     25  C   UNL     1       5.758   3.920  13.846  0.00  0.00    +0.000 C 
ENDBRANCH  23  25
ENDBRANCH  22  23
ENDBRANCH  20  22
ENDBRANCH  19  20
ENDBRANCH   1  19
TORSDOF 6
ENDMDL
MODEL 4
REMARK VINA RESULT:      -7.8      1.052      1.180
REMARK  Name = 
REMARK  7 active torsions:
REMARK  status: ('A' for Active; 'I' for Inactive)
REMARK    1  A    between atoms: C_1  and  C_2
REMARK    2  A    between atoms: C_2  and  C_3
REMARK    3  A    between atoms: C_3  and  O_4
REMARK    4  A    between atoms: O_4  and  C_5
REMARK    5  A    between atoms: C_5  and  C_7
REMARK    6  A    between atoms: C_7  and  C_8
REMARK    7  A    between atoms: C_10  and  O_11
REMARK                            x       y       z     vdW  Elec       q    Type
REMARK                         _______ _______ _______ _____ _____    ______ ____
ROOT
ATOM      1  C   UNL     1       6.292   4.325  17.043  0.00  0.00    +0.000 C 
ATOM      2  C   UNL     1       7.100   5.338  17.863  0.00  0.00    +0.000 C 
ATOM      3  C   UNL     1       6.365   5.725  19.137  0.00  0.00    +0.000 C 
ATOM      4  C   UNL     1       4.953   6.203  18.808  0.00  0.00    +0.000 C 
ATOM      5  C   UNL     1       4.221   5.164  17.955  0.00  0.00    +0.000 C 
ATOM      6  C   UNL     1       2.858   5.675  17.472  0.00  0.00    +0.000 C 
ATOM      7  C   UNL     1       1.964   4.470  17.673  0.00  0.00    +0.000 C 
ATOM      8  C   UNL     1       2.545   3.875  18.950  0.00  0.00    +0.000 C 
ATOM      9  C   UNL     1       2.132   4.667  20.192  0.00  0.00    +0.000 C 
ATOM     10  C   UNL     1       2.422   4.130  21.394  0.00  0.00    +0.000 C 
ATOM     11  C   UNL     1       1.658   2.841  21.523  0.00  0.00    +0.000 C 
ATOM     12  O   UNL     1       1.051   2.536  22.540  0.00  0.00    +0.000 OA
ATOM     13  C   UNL     1       1.746   1.935  20.337  0.00  0.00    +0.000 C 
ATOM     14  C   UNL     1       2.197   2.413  19.162  0.00  0.00    +0.000 C 
ATOM     15  O   UNL     1       3.966   4.000  18.775  0.00  0.00    +0.000 OA
ATOM     16  O   UNL     1       4.980   4.839  16.786  0.00  0.00    +0.000 OA
ENDROOT
BRANCH   3  17
ATOM     17  O   UNL     1       6.345   4.622  20.043  0.00  0.00    +0.000 OA
ATOM     18  H   UNL     1       7.036   3.989  19.763  0.00  0.00    +0.000 HD
ENDBRANCH   3  17
BRANCH   1  19
ATOM     19  C   UNL     1       7.007   4.085  15.709  0.00  0.00    +0.000 C 
BRANCH  19  20
ATOM     20  C   UNL     1       6.299   4.648  14.503  0.00  0.00    +0.000 C 
ATOM     21  O   UNL     1       6.315   5.844  14.229  0.00  0.00    +0.000 OA
BRANCH  20  22
ATOM     22  O   UNL     1       5.691   3.690  13.759  0.00  0.00    +0.000 OA
BRANCH  22  23
ATOM     23  C   UNL     1       6.244   3.477  12.454  0.00  0.00    +0.000 C 
BRANCH  23  25
ATOM     24  C   UNL     1       4.065   3.264  11.249  0.00  0.00    +0.000 C 
ATOM     25  C   UNL     1       5.355   2.555  11.630  0.00  0.00    +0.000 C 
ENDBRANCH  23  25
ENDBRANCH  22  23
ENDBRANCH  20  22
ENDBRANCH  19  20
ENDBRANCH   1  19
TORSDOF 6
ENDMDL
MODEL 5
REMARK VINA RESULT:      -7.8      2.813      4.603
REMARK  Name = 
REMARK  7 active torsions:
REMARK  status: ('A' for Active; 'I' for Inactive)
REMARK    1  A    between atoms: C_1  and  C_2
REMARK    2  A    between atoms: C_2  and  C_3
REMARK    3  A    between atoms: C_3  and  O_4
REMARK    4  A    between atoms: O_4  and  C_5
REMARK    5  A    between atoms: C_5  and  C_7
REMARK    6  A    between atoms: C_7  and  C_8
REMARK    7  A    between atoms: C_10  and  O_11
REMARK                            x       y       z     vdW  Elec       q    Type
REMARK                         _______ _______ _______ _____ _____    ______ ____
ROOT
ATOM      1  C   UNL     1       4.801   6.534  17.678  0.00  0.00    +0.000 C 
ATOM      2  C   UNL     1       3.762   7.652  17.540  0.00  0.00    +0.000 C 
ATOM      3  C   UNL     1       2.426   7.238  18.137  0.00  0.00    +0.000 C 
ATOM      4  C   UNL     1       1.968   5.911  17.540  0.00  0.00    +0.000 C 
ATOM      5  C   UNL     1       3.068   4.854  17.675  0.00  0.00    +0.000 C 
ATOM      6  C   UNL     1       2.707   3.554  16.946  0.00  0.00    +0.000 C 
ATOM      7  C   UNL     1       3.144   2.492  17.933  0.00  0.00    +0.000 C 
ATOM      8  C   UNL     1       2.805   3.158  19.261  0.00  0.00    +0.000 C 
ATOM      9  C   UNL     1       1.304   3.129  19.552  0.00  0.00    +0.000 C 
ATOM     10  C   UNL     1       0.903   3.513  20.781  0.00  0.00    +0.000 C 
ATOM     11  C   UNL     1       1.480   2.547  21.779  0.00  0.00    +0.000 C 
ATOM     12  O   UNL     1       0.820   2.079  22.696  0.00  0.00    +0.000 OA
ATOM     13  C   UNL     1       2.935   2.251  21.603  0.00  0.00    +0.000 C 
ATOM     14  C   UNL     1       3.548   2.576  20.450  0.00  0.00    +0.000 C 
ATOM     15  O   UNL     1       3.212   4.524  19.076  0.00  0.00    +0.000 OA
ATOM     16  O   UNL     1       4.296   5.322  17.106  0.00  0.00    +0.000 OA
ENDROOT
BRANCH   3  17
ATOM     17  O   UNL     1       2.531   7.162  19.558  0.00  0.00    +0.000 OA
ATOM     18  H   UNL     1       3.453   6.928  19.781  0.00  0.00    +0.000 HD
ENDBRANCH   3  17
BRANCH   1  19
ATOM     19  C   UNL     1       6.075   6.947  16.933  0.00  0.00    +0.000 C 
BRANCH  19  20
ATOM     20  C   UNL     1       7.352   6.386  17.506  0.00  0.00    +0.000 C 
ATOM     21  O   UNL     1       7.723   5.237  17.288  0.00  0.00    +0.000 OA
BRANCH  20  22
ATOM     22  O   UNL     1       8.039   7.296  18.243  0.00  0.00    +0.000 OA
BRANCH  22  23
ATOM     23  C   UNL     1       7.894   8.661  17.830  0.00  0.00    +0.000 C 
BRANCH  23  25
ATOM     24  C   UNL     1       8.897  10.946  17.960  0.00  0.00    +0.000 C 
ATOM     25  C   UNL     1       8.852   9.565  18.595  0.00  0.00    +0.000 C 
ENDBRANCH  23  25
ENDBRANCH  22  23
ENDBRANCH  20  22
ENDBRANCH  19  20
ENDBRANCH   1  19
TORSDOF 6
ENDMDL
MODEL 6
REMARK VINA RESULT:      -7.6      0.916      1.026
REMARK  Name = 
REMARK  7 active torsions:
REMARK  status: ('A' for Active; 'I' for Inactive)
REMARK    1  A    between atoms: C_1  and  C_2
REMARK    2  A    between atoms: C_2  and  C_3
REMARK    3  A    between atoms: C_3  and  O_4
REMARK    4  A    between atoms: O_4  and  C_5
REMARK    5  A    between atoms: C_5  and  C_7
REMARK    6  A    between atoms: C_7  and  C_8
REMARK    7  A    between atoms: C_10  and  O_11
REMARK                            x       y       z     vdW  Elec       q    Type
REMARK                         _______ _______ _______ _____ _____    ______ ____
ROOT
ATOM      1  C   UNL     1       5.421   4.064  16.082  0.00  0.00    +0.000 C 
ATOM      2  C   UNL     1       6.705   4.484  16.807  0.00  0.00    +0.000 C 
ATOM      3  C   UNL     1       6.446   4.730  18.286  0.00  0.00    +0.000 C 
ATOM      4  C   UNL     1       5.298   5.719  18.464  0.00  0.00    +0.000 C 
ATOM      5  C   UNL     1       4.066   5.258  17.681  0.00  0.00    +0.000 C 
ATOM      6  C   UNL     1       2.945   6.305  17.707  0.00  0.00    +0.000 C 
ATOM      7  C   UNL     1       1.710   5.458  17.932  0.00  0.00    +0.000 C 
ATOM      8  C   UNL     1       2.251   4.379  18.862  0.00  0.00    +0.000 C 
ATOM      9  C   UNL     1       2.433   4.891  20.291  0.00  0.00    +0.000 C 
ATOM     10  C   UNL     1       2.721   3.981  21.244  0.00  0.00    +0.000 C 
ATOM     11  C   UNL     1       1.556   3.036  21.349  0.00  0.00    +0.000 C 
ATOM     12  O   UNL     1       1.091   2.684  22.425  0.00  0.00    +0.000 OA
ATOM     13  C   UNL     1       1.048   2.513  20.044  0.00  0.00    +0.000 C 
ATOM     14  C   UNL     1       1.409   3.116  18.896  0.00  0.00    +0.000 C 
ATOM     15  O   UNL     1       3.543   4.068  18.315  0.00  0.00    +0.000 OA
ATOM     16  O   UNL     1       4.391   5.033  16.306  0.00  0.00    +0.000 OA
ENDROOT
BRANCH   3  17
ATOM     17  O   UNL     1       6.175   3.493  18.944  0.00  0.00    +0.000 OA
ATOM     18  H   UNL     1       6.680   2.790  18.487  0.00  0.00    +0.000 HD
ENDBRANCH   3  17
BRANCH   1  19
ATOM     19  C   UNL     1       5.708   3.974  14.579  0.00  0.00    +0.000 C 
BRANCH  19  20
ATOM     20  C   UNL     1       6.895   4.780  14.114  0.00  0.00    +0.000 C 
ATOM     21  O   UNL     1       7.516   5.528  14.862  0.00  0.00    +0.000 OA
BRANCH  20  22
ATOM     22  O   UNL     1       7.203   4.554  12.812  0.00  0.00    +0.000 OA
BRANCH  22  23
ATOM     23  C   UNL     1       6.420   3.548  12.157  0.00  0.00    +0.000 C 
BRANCH  23  25
ATOM     24  C   UNL     1       6.504   1.296  11.078  0.00  0.00    +0.000 C 
ATOM     25  C   UNL     1       7.313   2.521  11.474  0.00  0.00    +0.000 C 
ENDBRANCH  23  25
ENDBRANCH  22  23
ENDBRANCH  20  22
ENDBRANCH  19  20
ENDBRANCH   1  19
TORSDOF 6
ENDMDL
MODEL 7
REMARK VINA RESULT:      -7.5      1.021      1.332
REMARK  Name = 
REMARK  7 active torsions:
REMARK  status: ('A' for Active; 'I' for Inactive)
REMARK    1  A    between atoms: C_1  and  C_2
REMARK    2  A    between atoms: C_2  and  C_3
REMARK    3  A    between atoms: C_3  and  O_4
REMARK    4  A    between atoms: O_4  and  C_5
REMARK    5  A    between atoms: C_5  and  C_7
REMARK    6  A    between atoms: C_7  and  C_8
REMARK    7  A    between atoms: C_10  and  O_11
REMARK                            x       y       z     vdW  Elec       q    Type
REMARK                         _______ _______ _______ _____ _____    ______ ____
ROOT
ATOM      1  C   UNL     1       6.007   4.891  15.962  0.00  0.00    +0.000 C 
ATOM      2  C   UNL     1       7.237   5.010  16.870  0.00  0.00    +0.000 C 
ATOM      3  C   UNL     1       6.841   4.984  18.338  0.00  0.00    +0.000 C 
ATOM      4  C   UNL     1       5.779   6.042  18.617  0.00  0.00    +0.000 C 
ATOM      5  C   UNL     1       4.602   5.890  17.650  0.00  0.00    +0.000 C 
ATOM      6  C   UNL     1       3.588   7.032  17.795  0.00  0.00    +0.000 C 
ATOM      7  C   UNL     1       2.262   6.304  17.728  0.00  0.00    +0.000 C 
ATOM      8  C   UNL     1       2.594   5.006  18.455  0.00  0.00    +0.000 C 
ATOM      9  C   UNL     1       2.665   5.199  19.970  0.00  0.00    +0.000 C 
ATOM     10  C   UNL     1       2.760   4.091  20.732  0.00  0.00    +0.000 C 
ATOM     11  C   UNL     1       1.507   3.283  20.533  0.00  0.00    +0.000 C 
ATOM     12  O   UNL     1       0.896   2.779  21.466  0.00  0.00    +0.000 OA
ATOM     13  C   UNL     1       1.099   3.092  19.108  0.00  0.00    +0.000 C 
ATOM     14  C   UNL     1       1.639   3.867  18.149  0.00  0.00    +0.000 C 
ATOM     15  O   UNL     1       3.904   4.665  17.971  0.00  0.00    +0.000 OA
ATOM     16  O   UNL     1       5.054   5.908  16.292  0.00  0.00    +0.000 OA
ENDROOT
BRANCH   3  17
ATOM     17  O   UNL     1       6.386   3.680  18.696  0.00  0.00    +0.000 OA
ATOM     18  H   UNL     1       5.871   3.323  17.945  0.00  0.00    +0.000 HD
ENDBRANCH   3  17
BRANCH   1  19
ATOM     19  C   UNL     1       6.448   5.071  14.505  0.00  0.00    +0.000 C 
BRANCH  19  20
ATOM     20  C   UNL     1       5.870   4.066  13.541  0.00  0.00    +0.000 C 
ATOM     21  O   UNL     1       4.707   3.680  13.612  0.00  0.00    +0.000 OA
BRANCH  20  22
ATOM     22  O   UNL     1       6.759   3.679  12.591  0.00  0.00    +0.000 OA
BRANCH  22  23
ATOM     23  C   UNL     1       6.218   2.890  11.524  0.00  0.00    +0.000 C 
BRANCH  23  25
ATOM     24  C   UNL     1       6.246   0.412  11.203  0.00  0.00    +0.000 C 
ATOM     25  C   UNL     1       7.092   1.674  11.250  0.00  0.00    +0.000 C 
ENDBRANCH  23  25
ENDBRANCH  22  23
ENDBRANCH  20  22
ENDBRANCH  19  20
ENDBRANCH   1  19
TORSDOF 6
ENDMDL
MODEL 8
REMARK VINA RESULT:      -7.2      1.493      2.283
REMARK  Name = 
REMARK  7 active torsions:
REMARK  status: ('A' for Active; 'I' for Inactive)
REMARK    1  A    between atoms: C_1  and  C_2
REMARK    2  A    between atoms: C_2  and  C_3
REMARK    3  A    between atoms: C_3  and  O_4
REMARK    4  A    between atoms: O_4  and  C_5
REMARK    5  A    between atoms: C_5  and  C_7
REMARK    6  A    between atoms: C_7  and  C_8
REMARK    7  A    between atoms: C_10  and  O_11
REMARK                            x       y       z     vdW  Elec       q    Type
REMARK                         _______ _______ _______ _____ _____    ______ ____
ROOT
ATOM      1  C   UNL     1       6.034   4.943  17.456  0.00  0.00    +0.000 C 
ATOM      2  C   UNL     1       5.544   6.389  17.317  0.00  0.00    +0.000 C 
ATOM      3  C   UNL     1       4.190   6.578  17.982  0.00  0.00    +0.000 C 
ATOM      4  C   UNL     1       3.194   5.549  17.455  0.00  0.00    +0.000 C 
ATOM      5  C   UNL     1       3.764   4.134  17.587  0.00  0.00    +0.000 C 
ATOM      6  C   UNL     1       2.860   3.088  16.924  0.00  0.00    +0.000 C 
ATOM      7  C   UNL     1       2.869   1.959  17.933  0.00  0.00    +0.000 C 
ATOM      8  C   UNL     1       2.906   2.730  19.246  0.00  0.00    +0.000 C 
ATOM      9  C   UNL     1       1.545   3.331  19.597  0.00  0.00    +0.000 C 
ATOM     10  C   UNL     1       1.403   3.870  20.826  0.00  0.00    +0.000 C 
ATOM     11  C   UNL     1       1.580   2.771  21.837  0.00  0.00    +0.000 C 
ATOM     12  O   UNL     1       0.834   2.636  22.797  0.00  0.00    +0.000 OA
ATOM     13  C   UNL     1       2.771   1.895  21.615  0.00  0.00    +0.000 C 
ATOM     14  C   UNL     1       3.403   1.915  20.426  0.00  0.00    +0.000 C 
ATOM     15  O   UNL     1       3.831   3.800  18.993  0.00  0.00    +0.000 OA
ATOM     16  O   UNL     1       5.043   4.040  16.952  0.00  0.00    +0.000 OA
ENDROOT
BRANCH   3  17
ATOM     17  O   UNL     1       4.328   6.492  19.400  0.00  0.00    +0.000 OA
ATOM     18  H   UNL     1       3.830   7.233  19.797  0.00  0.00    +0.000 HD
ENDBRANCH   3  17
BRANCH   1  19
ATOM     19  C   UNL     1       7.324   4.776  16.646  0.00  0.00    +0.000 C 
BRANCH  19  20
ATOM     20  C   UNL     1       7.135   4.786  15.150  0.00  0.00    +0.000 C 
ATOM     21  O   UNL     1       7.667   5.621  14.425  0.00  0.00    +0.000 OA
BRANCH  20  22
ATOM     22  O   UNL     1       6.357   3.764  14.713  0.00  0.00    +0.000 OA
BRANCH  22  23
ATOM     23  C   UNL     1       5.449   4.088  13.652  0.00  0.00    +0.000 C 
BRANCH  23  25
ATOM     24  C   UNL     1       4.605   3.148  11.496  0.00  0.00    +0.000 C 
ATOM     25  C   UNL     1       5.831   3.363  12.369  0.00  0.00    +0.000 C 
ENDBRANCH  23  25
ENDBRANCH  22  23
ENDBRANCH  20  22
ENDBRANCH  19  20
ENDBRANCH   1  19
TORSDOF 6
ENDMDL
MODEL 9
REMARK VINA RESULT:      -7.1      2.029      3.333
REMARK  Name = 
REMARK  7 active torsions:
REMARK  status: ('A' for Active; 'I' for Inactive)
REMARK    1  A    between atoms: C_1  and  C_2
REMARK    2  A    between atoms: C_2  and  C_3
REMARK    3  A    between atoms: C_3  and  O_4
REMARK    4  A    between atoms: O_4  and  C_5
REMARK    5  A    between atoms: C_5  and  C_7
REMARK    6  A    between atoms: C_7  and  C_8
REMARK    7  A    between atoms: C_10  and  O_11
REMARK                            x       y       z     vdW  Elec       q    Type
REMARK                         _______ _______ _______ _____ _____    ______ ____
ROOT
ATOM      1  C   UNL     1       4.561   6.707  17.696  0.00  0.00    +0.000 C 
ATOM      2  C   UNL     1       3.483   7.795  17.634  0.00  0.00    +0.000 C 
ATOM      3  C   UNL     1       2.187   7.322  18.273  0.00  0.00    +0.000 C 
ATOM      4  C   UNL     1       1.746   5.998  17.656  0.00  0.00    +0.000 C 
ATOM      5  C   UNL     1       2.883   4.974  17.714  0.00  0.00    +0.000 C 
ATOM      6  C   UNL     1       2.532   3.684  16.963  0.00  0.00    +0.000 C 
ATOM      7  C   UNL     1       3.043   2.609  17.899  0.00  0.00    +0.000 C 
ATOM      8  C   UNL     1       2.740   3.226  19.259  0.00  0.00    +0.000 C 
ATOM      9  C   UNL     1       1.254   3.139  19.610  0.00  0.00    +0.000 C 
ATOM     10  C   UNL     1       0.894   3.475  20.866  0.00  0.00    +0.000 C 
ATOM     11  C   UNL     1       1.542   2.501  21.810  0.00  0.00    +0.000 C 
ATOM     12  O   UNL     1       0.935   1.985  22.739  0.00  0.00    +0.000 OA
ATOM     13  C   UNL     1       2.996   2.257  21.566  0.00  0.00    +0.000 C 
ATOM     14  C   UNL     1       3.550   2.634  20.398  0.00  0.00    +0.000 C 
ATOM     15  O   UNL     1       3.096   4.609  19.098  0.00  0.00    +0.000 OA
ATOM     16  O   UNL     1       4.070   5.497  17.110  0.00  0.00    +0.000 OA
ENDROOT
BRANCH   3  17
ATOM     17  O   UNL     1       2.354   7.208  19.686  0.00  0.00    +0.000 OA
ATOM     18  H   UNL     1       3.274   7.460  19.903  0.00  0.00    +0.000 HD
ENDBRANCH   3  17
BRANCH   1  19
ATOM     19  C   UNL     1       5.790   7.182  16.911  0.00  0.00    +0.000 C 
BRANCH  19  20
ATOM     20  C   UNL     1       7.109   6.673  17.435  0.00  0.00    +0.000 C 
ATOM     21  O   UNL     1       8.050   7.420  17.685  0.00  0.00    +0.000 OA
BRANCH  20  22
ATOM     22  O   UNL     1       7.114   5.330  17.626  0.00  0.00    +0.000 OA
BRANCH  22  23
ATOM     23  C   UNL     1       7.569   4.550  16.513  0.00  0.00    +0.000 C 
BRANCH  23  25
ATOM     24  C   UNL     1       6.311   4.416  14.358  0.00  0.00    +0.000 C 
ATOM     25  C   UNL     1       6.398   3.902  15.787  0.00  0.00    +0.000 C 
ENDBRANCH  23  25
ENDBRANCH  22  23
ENDBRANCH  20  22
ENDBRANCH  19  20
ENDBRANCH   1  19
TORSDOF 6
ENDMDL
