MODEL 1
REMARK VINA RESULT:      -8.4      0.000      0.000
REMARK  Name = 
REMARK  4 active torsions:
REMARK  status: ('A' for Active; 'I' for Inactive)
REMARK    1  A    between atoms: C_1  and  N_2
REMARK    2  A    between atoms: C_4  and  C_5
REMARK    3  A    between atoms: C_10  and  O_11
REMARK    4  A    between atoms: C_13  and  O_14
REMARK                            x       y       z     vdW  Elec       q    Type
REMARK                         _______ _______ _______ _____ _____    ______ ____
ROOT
ATOM      1  C   UNL     1       2.869   7.644  17.623  0.00  0.00    +0.000 C 
ATOM      2  C   UNL     1       2.189   8.236  18.616  0.00  0.00    +0.000 C 
ATOM      3  O   UNL     1       2.113   7.749  19.917  0.00  0.00    +0.000 OA
ATOM      4  C   UNL     1       1.348   8.647  20.615  0.00  0.00    +0.000 A 
ATOM      5  C   UNL     1       1.042   8.520  21.954  0.00  0.00    +0.000 A 
ATOM      6  C   UNL     1       0.253   9.518  22.514  0.00  0.00    +0.000 A 
ATOM      7  C   UNL     1      -0.212  10.603  21.753  0.00  0.00    +0.000 A 
ATOM      8  C   UNL     1       0.116  10.706  20.397  0.00  0.00    +0.000 A 
ATOM      9  C   UNL     1       0.902   9.717  19.842  0.00  0.00    +0.000 A 
ATOM     10  C   UNL     1       1.433   9.514  18.487  0.00  0.00    +0.000 C 
ATOM     11  O   UNL     1       1.300  10.197  17.496  0.00  0.00    +0.000 OA
ENDROOT
BRANCH   1  15
ATOM     12  C   UNL     1       6.626   4.452  17.870  0.00  0.00    +0.000 C 
ATOM     13  N   UNL     1       5.277   4.969  17.841  0.00  0.00    +0.000 N 
ATOM     14  C   UNL     1       4.960   6.295  17.751  0.00  0.00    +0.000 A 
ATOM     15  C   UNL     1       3.586   6.411  17.742  0.00  0.00    +0.000 A 
ATOM     16  C   UNL     1       3.047   5.095  17.873  0.00  0.00    +0.000 A 
ATOM     17  C   UNL     1       1.741   4.562  17.941  0.00  0.00    +0.000 A 
ATOM     18  C   UNL     1       1.562   3.177  18.033  0.00  0.00    +0.000 A 
ATOM     19  C   UNL     1       2.657   2.319  18.048  0.00  0.00    +0.000 A 
ATOM     20  C   UNL     1       3.960   2.817  17.986  0.00  0.00    +0.000 A 
ATOM     21  C   UNL     1       4.131   4.207  17.905  0.00  0.00    +0.000 A 
ENDBRANCH   1  15
BRANCH   6  22
ATOM     22  O   UNL     1      -0.099   9.476  23.833  0.00  0.00    +0.000 OA
ATOM     23  H   UNL     1       0.465   8.830  24.292  0.00  0.00    +0.000 HD
ENDBRANCH   6  22
BRANCH   8  24
ATOM     24  O   UNL     1      -0.328  11.749  19.649  0.00  0.00    +0.000 OA
ATOM     25  H   UNL     1       0.416  12.334  19.429  0.00  0.00    +0.000 HD
ENDBRANCH   8  24
TORSDOF 3
ENDMDL
MODEL 2
REMARK VINA RESULT:      -8.3      2.774      7.006
REMARK  Name = 
REMARK  4 active torsions:
REMARK  status: ('A' for Active; 'I' for Inactive)
REMARK    1  A    between atoms: C_1  and  N_2
REMARK    2  A    between atoms: C_4  and  C_5
REMARK    3  A    between atoms: C_10  and  O_11
REMARK    4  A    between atoms: C_13  and  O_14
REMARK                            x       y       z     vdW  Elec       q    Type
REMARK                         _______ _______ _______ _____ _____    ______ ____
ROOT
ATOM      1  C   UNL     1       2.636   8.374  18.099  0.00  0.00    +0.000 C 
ATOM      2  C   UNL     1       2.757   7.038  18.096  0.00  0.00    +0.000 C 
ATOM      3  O   UNL     1       1.787   6.160  18.566  0.00  0.00    +0.000 OA
ATOM      4  C   UNL     1       2.288   4.900  18.369  0.00  0.00    +0.000 A 
ATOM      5  C   UNL     1       1.615   3.742  18.704  0.00  0.00    +0.000 A 
ATOM      6  C   UNL     1       2.264   2.541  18.440  0.00  0.00    +0.000 A 
ATOM      7  C   UNL     1       3.544   2.507  17.862  0.00  0.00    +0.000 A 
ATOM      8  C   UNL     1       4.201   3.697  17.531  0.00  0.00    +0.000 A 
ATOM      9  C   UNL     1       3.556   4.889  17.790  0.00  0.00    +0.000 A 
ATOM     10  C   UNL     1       3.935   6.291  17.571  0.00  0.00    +0.000 C 
ATOM     11  O   UNL     1       4.947   6.751  17.090  0.00  0.00    +0.000 OA
ENDROOT
BRANCH   1  15
ATOM     12  C   UNL     1      -1.387  11.232  18.248  0.00  0.00    +0.000 C 
ATOM     13  N   UNL     1      -0.296  10.391  18.685  0.00  0.00    +0.000 N 
ATOM     14  C   UNL     1       0.617   9.814  17.847  0.00  0.00    +0.000 A 
ATOM     15  C   UNL     1       1.511   9.094  18.613  0.00  0.00    +0.000 A 
ATOM     16  C   UNL     1       1.094   9.209  19.974  0.00  0.00    +0.000 A 
ATOM     17  C   UNL     1       1.572   8.704  21.202  0.00  0.00    +0.000 A 
ATOM     18  C   UNL     1       0.929   9.054  22.394  0.00  0.00    +0.000 A 
ATOM     19  C   UNL     1      -0.173   9.905  22.383  0.00  0.00    +0.000 A 
ATOM     20  C   UNL     1      -0.670  10.418  21.184  0.00  0.00    +0.000 A 
ATOM     21  C   UNL     1      -0.026  10.053  19.992  0.00  0.00    +0.000 A 
ENDBRANCH   1  15
BRANCH   6  22
ATOM     22  O   UNL     1       1.674   1.346  18.736  0.00  0.00    +0.000 OA
ATOM     23  H   UNL     1       1.028   1.130  18.042  0.00  0.00    +0.000 HD
ENDBRANCH   6  22
BRANCH   8  24
ATOM     24  O   UNL     1       5.439   3.679  16.973  0.00  0.00    +0.000 OA
ATOM     25  H   UNL     1       6.031   4.266  17.472  0.00  0.00    +0.000 HD
ENDBRANCH   8  24
TORSDOF 3
ENDMDL
MODEL 3
REMARK VINA RESULT:      -8.1      1.674      2.996
REMARK  Name = 
REMARK  4 active torsions:
REMARK  status: ('A' for Active; 'I' for Inactive)
REMARK    1  A    between atoms: C_1  and  N_2
REMARK    2  A    between atoms: C_4  and  C_5
REMARK    3  A    between atoms: C_10  and  O_11
REMARK    4  A    between atoms: C_13  and  O_14
REMARK                            x       y       z     vdW  Elec       q    Type
REMARK                         _______ _______ _______ _____ _____    ______ ____
ROOT
ATOM      1  C   UNL     1       2.071   7.225  20.706  0.00  0.00    +0.000 C 
ATOM      2  C   UNL     1       1.462   8.390  20.437  0.00  0.00    +0.000 C 
ATOM      3  O   UNL     1       1.091   8.807  19.164  0.00  0.00    +0.000 OA
ATOM      4  C   UNL     1       0.489  10.028  19.324  0.00  0.00    +0.000 A 
ATOM      5  C   UNL     1      -0.026  10.775  18.284  0.00  0.00    +0.000 A 
ATOM      6  C   UNL     1      -0.604  11.996  18.615  0.00  0.00    +0.000 A 
ATOM      7  C   UNL     1      -0.659  12.448  19.944  0.00  0.00    +0.000 A 
ATOM      8  C   UNL     1      -0.129  11.668  20.978  0.00  0.00    +0.000 A 
ATOM      9  C   UNL     1       0.441  10.455  20.650  0.00  0.00    +0.000 A 
ATOM     10  C   UNL     1       1.070   9.403  21.459  0.00  0.00    +0.000 C 
ATOM     11  O   UNL     1       1.243   9.349  22.656  0.00  0.00    +0.000 OA
ENDROOT
BRANCH   1  15
ATOM     12  C   UNL     1       4.370   5.168  16.853  0.00  0.00    +0.000 C 
ATOM     13  N   UNL     1       3.484   5.331  17.983  0.00  0.00    +0.000 N 
ATOM     14  C   UNL     1       3.413   6.458  18.752  0.00  0.00    +0.000 A 
ATOM     15  C   UNL     1       2.458   6.257  19.727  0.00  0.00    +0.000 A 
ATOM     16  C   UNL     1       1.956   4.930  19.563  0.00  0.00    +0.000 A 
ATOM     17  C   UNL     1       0.998   4.143  20.237  0.00  0.00    +0.000 A 
ATOM     18  C   UNL     1       0.711   2.853  19.776  0.00  0.00    +0.000 A 
ATOM     19  C   UNL     1       1.354   2.341  18.653  0.00  0.00    +0.000 A 
ATOM     20  C   UNL     1       2.308   3.094  17.968  0.00  0.00    +0.000 A 
ATOM     21  C   UNL     1       2.598   4.382  18.443  0.00  0.00    +0.000 A 
ENDBRANCH   1  15
BRANCH   6  22
ATOM     22  O   UNL     1      -1.141  12.801  17.652  0.00  0.00    +0.000 OA
ATOM     23  H   UNL     1      -1.715  13.462  18.075  0.00  0.00    +0.000 HD
ENDBRANCH   6  22
BRANCH   8  24
ATOM     24  O   UNL     1      -0.175  12.094  22.267  0.00  0.00    +0.000 OA
ATOM     25  H   UNL     1      -0.529  12.998  22.300  0.00  0.00    +0.000 HD
ENDBRANCH   8  24
TORSDOF 3
ENDMDL
MODEL 4
REMARK VINA RESULT:      -8.1      2.947      6.820
REMARK  Name = 
REMARK  4 active torsions:
REMARK  status: ('A' for Active; 'I' for Inactive)
REMARK    1  A    between atoms: C_1  and  N_2
REMARK    2  A    between atoms: C_4  and  C_5
REMARK    3  A    between atoms: C_10  and  O_11
REMARK    4  A    between atoms: C_13  and  O_14
REMARK                            x       y       z     vdW  Elec       q    Type
REMARK                         _______ _______ _______ _____ _____    ______ ____
ROOT
ATOM      1  C   UNL     1       2.431   8.122  18.568  0.00  0.00    +0.000 C 
ATOM      2  C   UNL     1       2.628   6.892  19.067  0.00  0.00    +0.000 C 
ATOM      3  O   UNL     1       1.805   6.284  20.008  0.00  0.00    +0.000 OA
ATOM      4  C   UNL     1       2.337   5.042  20.234  0.00  0.00    +0.000 A 
ATOM      5  C   UNL     1       1.800   4.121  21.109  0.00  0.00    +0.000 A 
ATOM      6  C   UNL     1       2.462   2.904  21.224  0.00  0.00    +0.000 A 
ATOM      7  C   UNL     1       3.624   2.625  20.485  0.00  0.00    +0.000 A 
ATOM      8  C   UNL     1       4.145   3.578  19.603  0.00  0.00    +0.000 A 
ATOM      9  C   UNL     1       3.485   4.785  19.487  0.00  0.00    +0.000 A 
ATOM     10  C   UNL     1       3.740   5.981  18.673  0.00  0.00    +0.000 C 
ATOM     11  O   UNL     1       4.626   6.199  17.876  0.00  0.00    +0.000 OA
ENDROOT
BRANCH   1  15
ATOM     12  C   UNL     1      -1.259  11.383  18.240  0.00  0.00    +0.000 C 
ATOM     13  N   UNL     1      -0.285  10.481  18.809  0.00  0.00    +0.000 N 
ATOM     14  C   UNL     1       0.594   9.732  18.078  0.00  0.00    +0.000 A 
ATOM     15  C   UNL     1       1.371   9.002  18.953  0.00  0.00    +0.000 A 
ATOM     16  C   UNL     1       0.914   9.295  20.274  0.00  0.00    +0.000 A 
ATOM     17  C   UNL     1       1.283   8.867  21.568  0.00  0.00    +0.000 A 
ATOM     18  C   UNL     1       0.633   9.400  22.687  0.00  0.00    +0.000 A 
ATOM     19  C   UNL     1      -0.368  10.355  22.539  0.00  0.00    +0.000 A 
ATOM     20  C   UNL     1      -0.757  10.795  21.272  0.00  0.00    +0.000 A 
ATOM     21  C   UNL     1      -0.107  10.248  20.155  0.00  0.00    +0.000 A 
ENDBRANCH   1  15
BRANCH   6  22
ATOM     22  O   UNL     1       2.002   1.932  22.065  0.00  0.00    +0.000 OA
ATOM     23  H   UNL     1       1.364   1.375  21.588  0.00  0.00    +0.000 HD
ENDBRANCH   6  22
BRANCH   8  24
ATOM     24  O   UNL     1       5.269   3.323  18.884  0.00  0.00    +0.000 OA
ATOM     25  H   UNL     1       5.028   3.110  17.966  0.00  0.00    +0.000 HD
ENDBRANCH   8  24
TORSDOF 3
ENDMDL
MODEL 5
REMARK VINA RESULT:      -8.0      0.737      2.428
REMARK  Name = 
REMARK  4 active torsions:
REMARK  status: ('A' for Active; 'I' for Inactive)
REMARK    1  A    between atoms: C_1  and  N_2
REMARK    2  A    between atoms: C_4  and  C_5
REMARK    3  A    between atoms: C_10  and  O_11
REMARK    4  A    between atoms: C_13  and  O_14
REMARK                            x       y       z     vdW  Elec       q    Type
REMARK                         _______ _______ _______ _____ _____    ______ ____
ROOT
ATOM      1  C   UNL     1       2.813   7.669  17.652  0.00  0.00    +0.000 C 
ATOM      2  C   UNL     1       2.138   8.267  18.645  0.00  0.00    +0.000 C 
ATOM      3  O   UNL     1       2.063   7.783  19.947  0.00  0.00    +0.000 OA
ATOM      4  C   UNL     1       1.304   8.686  20.645  0.00  0.00    +0.000 A 
ATOM      5  C   UNL     1       1.000   8.564  21.985  0.00  0.00    +0.000 A 
ATOM      6  C   UNL     1       0.216   9.567  22.544  0.00  0.00    +0.000 A 
ATOM      7  C   UNL     1      -0.246  10.653  21.781  0.00  0.00    +0.000 A 
ATOM      8  C   UNL     1       0.080  10.751  20.424  0.00  0.00    +0.000 A 
ATOM      9  C   UNL     1       0.861   9.757  19.870  0.00  0.00    +0.000 A 
ATOM     10  C   UNL     1       1.387   9.548  18.514  0.00  0.00    +0.000 C 
ATOM     11  O   UNL     1       1.256  10.229  17.521  0.00  0.00    +0.000 OA
ENDROOT
BRANCH   1  15
ATOM     12  C   UNL     1       3.714   2.870  18.376  0.00  0.00    +0.000 C 
ATOM     13  N   UNL     1       3.935   4.273  18.110  0.00  0.00    +0.000 N 
ATOM     14  C   UNL     1       2.943   5.209  18.028  0.00  0.00    +0.000 A 
ATOM     15  C   UNL     1       3.525   6.433  17.772  0.00  0.00    +0.000 A 
ATOM     16  C   UNL     1       4.932   6.220  17.654  0.00  0.00    +0.000 A 
ATOM     17  C   UNL     1       6.041   7.051  17.390  0.00  0.00    +0.000 A 
ATOM     18  C   UNL     1       7.330   6.508  17.382  0.00  0.00    +0.000 A 
ATOM     19  C   UNL     1       7.532   5.155  17.642  0.00  0.00    +0.000 A 
ATOM     20  C   UNL     1       6.454   4.307  17.904  0.00  0.00    +0.000 A 
ATOM     21  C   UNL     1       5.164   4.859  17.899  0.00  0.00    +0.000 A 
ENDBRANCH   1  15
BRANCH   6  22
ATOM     22  O   UNL     1      -0.133   9.530  23.864  0.00  0.00    +0.000 OA
ATOM     23  H   UNL     1       0.333   8.794  24.295  0.00  0.00    +0.000 HD
ENDBRANCH   6  22
BRANCH   8  24
ATOM     24  O   UNL     1      -0.361  11.794  19.674  0.00  0.00    +0.000 OA
ATOM     25  H   UNL     1      -0.570  11.486  18.776  0.00  0.00    +0.000 HD
ENDBRANCH   8  24
TORSDOF 3
ENDMDL
MODEL 6
REMARK VINA RESULT:      -7.8      4.375      7.783
REMARK  Name = 
REMARK  4 active torsions:
REMARK  status: ('A' for Active; 'I' for Inactive)
REMARK    1  A    between atoms: C_1  and  N_2
REMARK    2  A    between atoms: C_4  and  C_5
REMARK    3  A    between atoms: C_10  and  O_11
REMARK    4  A    between atoms: C_13  and  O_14
REMARK                            x       y       z     vdW  Elec       q    Type
REMARK                         _______ _______ _______ _____ _____    ______ ____
ROOT
ATOM      1  C   UNL     1       5.281   5.841  17.890  0.00  0.00    +0.000 C 
ATOM      2  C   UNL     1       5.616   5.411  16.664  0.00  0.00    +0.000 C 
ATOM      3  O   UNL     1       4.846   4.544  15.897  0.00  0.00    +0.000 OA
ATOM      4  C   UNL     1       5.525   4.372  14.720  0.00  0.00    +0.000 A 
ATOM      5  C   UNL     1       5.080   3.578  13.683  0.00  0.00    +0.000 A 
ATOM      6  C   UNL     1       5.889   3.509  12.554  0.00  0.00    +0.000 A 
ATOM      7  C   UNL     1       7.102   4.214  12.473  0.00  0.00    +0.000 A 
ATOM      8  C   UNL     1       7.526   5.013  13.540  0.00  0.00    +0.000 A 
ATOM      9  C   UNL     1       6.722   5.083  14.659  0.00  0.00    +0.000 A 
ATOM     10  C   UNL     1       6.849   5.812  15.928  0.00  0.00    +0.000 C 
ATOM     11  O   UNL     1       7.727   6.555  16.308  0.00  0.00    +0.000 OA
ENDROOT
BRANCH   1  15
ATOM     12  C   UNL     1       1.258   6.114  20.737  0.00  0.00    +0.000 C 
ATOM     13  N   UNL     1       2.297   5.566  19.896  0.00  0.00    +0.000 N 
ATOM     14  C   UNL     1       3.298   6.302  19.328  0.00  0.00    +0.000 A 
ATOM     15  C   UNL     1       4.104   5.449  18.603  0.00  0.00    +0.000 A 
ATOM     16  C   UNL     1       3.539   4.141  18.706  0.00  0.00    +0.000 A 
ATOM     17  C   UNL     1       3.880   2.871  18.191  0.00  0.00    +0.000 A 
ATOM     18  C   UNL     1       3.108   1.755  18.530  0.00  0.00    +0.000 A 
ATOM     19  C   UNL     1       2.012   1.881  19.378  0.00  0.00    +0.000 A 
ATOM     20  C   UNL     1       1.648   3.123  19.900  0.00  0.00    +0.000 A 
ATOM     21  C   UNL     1       2.422   4.239  19.546  0.00  0.00    +0.000 A 
ENDBRANCH   1  15
BRANCH   6  22
ATOM     22  O   UNL     1       5.528   2.749  11.478  0.00  0.00    +0.000 OA
ATOM     23  H   UNL     1       5.495   3.314  10.687  0.00  0.00    +0.000 HD
ENDBRANCH   6  22
BRANCH   8  24
ATOM     24  O   UNL     1       8.697   5.698  13.476  0.00  0.00    +0.000 OA
ATOM     25  H   UNL     1       9.436   5.075  13.378  0.00  0.00    +0.000 HD
ENDBRANCH   8  24
TORSDOF 3
ENDMDL
MODEL 7
REMARK VINA RESULT:      -7.7      4.473      7.956
REMARK  Name = 
REMARK  4 active torsions:
REMARK  status: ('A' for Active; 'I' for Inactive)
REMARK    1  A    between atoms: C_1  and  N_2
REMARK    2  A    between atoms: C_4  and  C_5
REMARK    3  A    between atoms: C_10  and  O_11
REMARK    4  A    between atoms: C_13  and  O_14
REMARK                            x       y       z     vdW  Elec       q    Type
REMARK                         _______ _______ _______ _____ _____    ______ ____
ROOT
ATOM      1  C   UNL     1       5.738   5.525  18.047  0.00  0.00    +0.000 C 
ATOM      2  C   UNL     1       5.952   5.164  16.772  0.00  0.00    +0.000 C 
ATOM      3  O   UNL     1       5.172   4.250  16.072  0.00  0.00    +0.000 OA
ATOM      4  C   UNL     1       5.709   4.178  14.813  0.00  0.00    +0.000 A 
ATOM      5  C   UNL     1       5.210   3.375  13.808  0.00  0.00    +0.000 A 
ATOM      6  C   UNL     1       5.871   3.416  12.586  0.00  0.00    +0.000 A 
ATOM      7  C   UNL     1       6.995   4.234  12.384  0.00  0.00    +0.000 A 
ATOM      8  C   UNL     1       7.478   5.039  13.422  0.00  0.00    +0.000 A 
ATOM      9  C   UNL     1       6.819   5.001  14.634  0.00  0.00    +0.000 A 
ATOM     10  C   UNL     1       7.041   5.700  15.906  0.00  0.00    +0.000 C 
ATOM     11  O   UNL     1       7.889   6.512  16.204  0.00  0.00    +0.000 OA
ENDROOT
BRANCH   1  15
ATOM     12  C   UNL     1       3.062   2.332  20.695  0.00  0.00    +0.000 C 
ATOM     13  N   UNL     1       3.487   3.563  20.068  0.00  0.00    +0.000 N 
ATOM     14  C   UNL     1       4.628   3.698  19.327  0.00  0.00    +0.000 A 
ATOM     15  C   UNL     1       4.702   5.002  18.883  0.00  0.00    +0.000 A 
ATOM     16  C   UNL     1       3.573   5.697  19.415  0.00  0.00    +0.000 A 
ATOM     17  C   UNL     1       3.102   7.026  19.338  0.00  0.00    +0.000 A 
ATOM     18  C   UNL     1       1.901   7.373  19.966  0.00  0.00    +0.000 A 
ATOM     19  C   UNL     1       1.160   6.420  20.659  0.00  0.00    +0.000 A 
ATOM     20  C   UNL     1       1.602   5.100  20.755  0.00  0.00    +0.000 A 
ATOM     21  C   UNL     1       2.813   4.762  20.131  0.00  0.00    +0.000 A 
ENDBRANCH   1  15
BRANCH   6  22
ATOM     22  O   UNL     1       5.447   2.657  11.534  0.00  0.00    +0.000 OA
ATOM     23  H   UNL     1       5.869   2.978  10.719  0.00  0.00    +0.000 HD
ENDBRANCH   6  22
BRANCH   8  24
ATOM     24  O   UNL     1       8.565   5.834  13.241  0.00  0.00    +0.000 OA
ATOM     25  H   UNL     1       9.274   5.325  12.813  0.00  0.00    +0.000 HD
ENDBRANCH   8  24
TORSDOF 3
ENDMDL
MODEL 8
REMARK VINA RESULT:      -7.7      2.850      7.497
REMARK  Name = 
REMARK  4 active torsions:
REMARK  status: ('A' for Active; 'I' for Inactive)
REMARK    1  A    between atoms: C_1  and  N_2
REMARK    2  A    between atoms: C_4  and  C_5
REMARK    3  A    between atoms: C_10  and  O_11
REMARK    4  A    between atoms: C_13  and  O_14
REMARK                            x       y       z     vdW  Elec       q    Type
REMARK                         _______ _______ _______ _____ _____    ______ ____
ROOT
ATOM      1  C   UNL     1       1.724   7.305  20.403  0.00  0.00    +0.000 C 
ATOM      2  C   UNL     1       2.557   6.733  19.520  0.00  0.00    +0.000 C 
ATOM      3  O   UNL     1       3.071   7.370  18.396  0.00  0.00    +0.000 OA
ATOM      4  C   UNL     1       3.884   6.455  17.779  0.00  0.00    +0.000 A 
ATOM      5  C   UNL     1       4.588   6.709  16.621  0.00  0.00    +0.000 A 
ATOM      6  C   UNL     1       5.369   5.672  16.121  0.00  0.00    +0.000 A 
ATOM      7  C   UNL     1       5.436   4.425  16.764  0.00  0.00    +0.000 A 
ATOM      8  C   UNL     1       4.711   4.197  17.939  0.00  0.00    +0.000 A 
ATOM      9  C   UNL     1       3.940   5.227  18.436  0.00  0.00    +0.000 A 
ATOM     10  C   UNL     1       3.078   5.339  19.621  0.00  0.00    +0.000 C 
ATOM     11  O   UNL     1       2.832   4.519  20.477  0.00  0.00    +0.000 OA
ENDROOT
BRANCH   1  15
ATOM     12  C   UNL     1       0.773  11.799  18.596  0.00  0.00    +0.000 C 
ATOM     13  N   UNL     1       0.794  10.669  19.495  0.00  0.00    +0.000 N 
ATOM     14  C   UNL     1       1.385   9.469  19.214  0.00  0.00    +0.000 A 
ATOM     15  C   UNL     1       1.214   8.638  20.302  0.00  0.00    +0.000 A 
ATOM     16  C   UNL     1       0.449   9.357  21.271  0.00  0.00    +0.000 A 
ATOM     17  C   UNL     1      -0.055   9.059  22.555  0.00  0.00    +0.000 A 
ATOM     18  C   UNL     1      -0.754  10.036  23.271  0.00  0.00    +0.000 A 
ATOM     19  C   UNL     1      -0.951  11.305  22.733  0.00  0.00    +0.000 A 
ATOM     20  C   UNL     1      -0.467  11.629  21.464  0.00  0.00    +0.000 A 
ATOM     21  C   UNL     1       0.224  10.639  20.749  0.00  0.00    +0.000 A 
ENDBRANCH   1  15
BRANCH   6  22
ATOM     22  O   UNL     1       6.102   5.834  14.980  0.00  0.00    +0.000 OA
ATOM     23  H   UNL     1       6.701   5.076  14.878  0.00  0.00    +0.000 HD
ENDBRANCH   6  22
BRANCH   8  24
ATOM     24  O   UNL     1       4.766   2.996  18.570  0.00  0.00    +0.000 OA
ATOM     25  H   UNL     1       4.843   3.133  19.529  0.00  0.00    +0.000 HD
ENDBRANCH   8  24
TORSDOF 3
ENDMDL
MODEL 9
REMARK VINA RESULT:      -7.6      3.190      6.774
REMARK  Name = 
REMARK  4 active torsions:
REMARK  status: ('A' for Active; 'I' for Inactive)
REMARK    1  A    between atoms: C_1  and  N_2
REMARK    2  A    between atoms: C_4  and  C_5
REMARK    3  A    between atoms: C_10  and  O_11
REMARK    4  A    between atoms: C_13  and  O_14
REMARK                            x       y       z     vdW  Elec       q    Type
REMARK                         _______ _______ _______ _____ _____    ______ ____
ROOT
ATOM      1  C   UNL     1       1.929   9.227  18.135  0.00  0.00    +0.000 C 
ATOM      2  C   UNL     1       2.206   8.017  18.644  0.00  0.00    +0.000 C 
ATOM      3  O   UNL     1       1.583   7.473  19.762  0.00  0.00    +0.000 OA
ATOM      4  C   UNL     1       2.133   6.230  19.937  0.00  0.00    +0.000 A 
ATOM      5  C   UNL     1       1.773   5.364  20.948  0.00  0.00    +0.000 A 
ATOM      6  C   UNL     1       2.428   4.138  20.987  0.00  0.00    +0.000 A 
ATOM      7  C   UNL     1       3.412   3.799  20.043  0.00  0.00    +0.000 A 
ATOM      8  C   UNL     1       3.756   4.697  19.028  0.00  0.00    +0.000 A 
ATOM      9  C   UNL     1       3.102   5.912  18.987  0.00  0.00    +0.000 A 
ATOM     10  C   UNL     1       3.203   7.063  18.079  0.00  0.00    +0.000 C 
ATOM     11  O   UNL     1       3.911   7.223  17.110  0.00  0.00    +0.000 OA
ENDROOT
BRANCH   1  15
ATOM     12  C   UNL     1      -0.016  12.762  20.978  0.00  0.00    +0.000 C 
ATOM     13  N   UNL     1       0.098  11.734  19.969  0.00  0.00    +0.000 N 
ATOM     14  C   UNL     1       1.249  11.053  19.688  0.00  0.00    +0.000 A 
ATOM     15  C   UNL     1       0.981  10.149  18.681  0.00  0.00    +0.000 A 
ATOM     16  C   UNL     1      -0.388  10.319  18.310  0.00  0.00    +0.000 A 
ATOM     17  C   UNL     1      -1.238   9.717  17.357  0.00  0.00    +0.000 A 
ATOM     18  C   UNL     1      -2.580  10.105  17.281  0.00  0.00    +0.000 A 
ATOM     19  C   UNL     1      -3.089  11.073  18.142  0.00  0.00    +0.000 A 
ATOM     20  C   UNL     1      -2.272  11.688  19.092  0.00  0.00    +0.000 A 
ATOM     21  C   UNL     1      -0.925  11.300  19.155  0.00  0.00    +0.000 A 
ENDBRANCH   1  15
BRANCH   6  22
ATOM     22  O   UNL     1       2.135   3.217  21.951  0.00  0.00    +0.000 OA
ATOM     23  H   UNL     1       1.187   3.006  21.911  0.00  0.00    +0.000 HD
ENDBRANCH   6  22
BRANCH   8  24
ATOM     24  O   UNL     1       4.706   4.383  18.110  0.00  0.00    +0.000 OA
ATOM     25  H   UNL     1       5.362   5.098  18.060  0.00  0.00    +0.000 HD
ENDBRANCH   8  24
TORSDOF 3
ENDMDL
