MODEL 1
REMARK VINA RESULT:      -4.7      0.000      0.000
REMARK  Name = 
REMARK  6 active torsions:
REMARK  status: ('A' for Active; 'I' for Inactive)
REMARK    1  A    between atoms: C_2  and  C_3
REMARK    2  A    between atoms: C_3  and  N_4
REMARK    3  A    between atoms: C_3  and  C_5
REMARK    4  A    between atoms: C_5  and  C_6
REMARK    5  A    between atoms: C_6  and  C_9
REMARK    6  A    between atoms: C_9  and  N_10
REMARK                            x       y       z     vdW  Elec       q    Type
REMARK                         _______ _______ _______ _____ _____    ______ ____
ROOT
ATOM      1  C   UNL     1       5.936   5.316  19.147  0.00  0.00    +0.000 C 
ENDROOT
BRANCH   1   2
ATOM      2  C   UNL     1       5.272   4.656  17.923  0.00  0.00    +0.000 C 
ATOM      3  F   UNL     1       4.527   5.602  17.237  0.00  0.00    +0.000 F 
ATOM      4  F   UNL     1       6.241   4.144  17.076  0.00  0.00    +0.000 F 
BRANCH   2   5
ATOM      5  C   UNL     1       4.354   3.509  18.364  0.00  0.00    +0.000 C 
BRANCH   5   6
ATOM      6  N   UNL     1       4.991   2.716  19.413  0.00  0.00    +0.000 NA
ATOM      7  H   UNL     1       4.257   2.334  20.053  0.00  0.00    +0.000 HD
ATOM      8  H   UNL     1       5.606   3.346  19.977  0.00  0.00    +0.000 HD
ENDBRANCH   5   6
ENDBRANCH   2   5
ENDBRANCH   1   2
BRANCH   1   9
ATOM      9  C   UNL     1       7.446   5.552  18.955  0.00  0.00    +0.000 C 
BRANCH   9  10
ATOM     10  N   UNL     1       8.145   5.548  20.242  0.00  0.00    +0.000 NA
ATOM     11  H   UNL     1       7.461   5.596  21.032  0.00  0.00    +0.000 HD
ATOM     12  H   UNL     1       8.792   6.368  20.298  0.00  0.00    +0.000 HD
ENDBRANCH   9  10
BRANCH   9  14
ATOM     13  C   UNL     1       7.842   7.884  17.693  0.00  0.00    +0.000 C 
ATOM     14  C   UNL     1       7.666   6.834  18.259  0.00  0.00    +0.000 C 
ENDBRANCH   9  14
ENDBRANCH   1   9
TORSDOF 6
ENDMDL
MODEL 2
REMARK VINA RESULT:      -4.6      3.817      4.741
REMARK  Name = 
REMARK  6 active torsions:
REMARK  status: ('A' for Active; 'I' for Inactive)
REMARK    1  A    between atoms: C_2  and  C_3
REMARK    2  A    between atoms: C_3  and  N_4
REMARK    3  A    between atoms: C_3  and  C_5
REMARK    4  A    between atoms: C_5  and  C_6
REMARK    5  A    between atoms: C_6  and  C_9
REMARK    6  A    between atoms: C_9  and  N_10
REMARK                            x       y       z     vdW  Elec       q    Type
REMARK                         _______ _______ _______ _____ _____    ______ ____
ROOT
ATOM      1  C   UNL     1       5.705   4.830  15.281  0.00  0.00    +0.000 C 
ENDROOT
BRANCH   1   2
ATOM      2  C   UNL     1       6.176   4.844  16.748  0.00  0.00    +0.000 C 
ATOM      3  F   UNL     1       5.250   4.178  17.535  0.00  0.00    +0.000 F 
ATOM      4  F   UNL     1       7.402   4.209  16.860  0.00  0.00    +0.000 F 
BRANCH   2   5
ATOM      5  C   UNL     1       6.325   6.285  17.250  0.00  0.00    +0.000 C 
BRANCH   5   6
ATOM      6  N   UNL     1       7.556   6.882  16.738  0.00  0.00    +0.000 NA
ATOM      7  H   UNL     1       8.364   6.566  17.322  0.00  0.00    +0.000 HD
ATOM      8  H   UNL     1       7.485   7.922  16.833  0.00  0.00    +0.000 HD
ENDBRANCH   5   6
ENDBRANCH   2   5
ENDBRANCH   1   2
BRANCH   1   9
ATOM      9  C   UNL     1       6.797   4.348  14.306  0.00  0.00    +0.000 C 
BRANCH   9  10
ATOM     10  N   UNL     1       7.664   5.457  13.900  0.00  0.00    +0.000 NA
ATOM     11  H   UNL     1       8.286   5.166  13.111  0.00  0.00    +0.000 HD
ATOM     12  H   UNL     1       8.254   5.761  14.708  0.00  0.00    +0.000 HD
ENDBRANCH   9  10
BRANCH   9  14
ATOM     13  C   UNL     1       5.655   3.230  12.154  0.00  0.00    +0.000 C 
ATOM     14  C   UNL     1       6.171   3.731  13.122  0.00  0.00    +0.000 C 
ENDBRANCH   9  14
ENDBRANCH   1   9
TORSDOF 6
ENDMDL
MODEL 3
REMARK VINA RESULT:      -4.6      1.301      1.321
REMARK  Name = 
REMARK  6 active torsions:
REMARK  status: ('A' for Active; 'I' for Inactive)
REMARK    1  A    between atoms: C_2  and  C_3
REMARK    2  A    between atoms: C_3  and  N_4
REMARK    3  A    between atoms: C_3  and  C_5
REMARK    4  A    between atoms: C_5  and  C_6
REMARK    5  A    between atoms: C_6  and  C_9
REMARK    6  A    between atoms: C_9  and  N_10
REMARK                            x       y       z     vdW  Elec       q    Type
REMARK                         _______ _______ _______ _____ _____    ______ ____
ROOT
ATOM      1  C   UNL     1       5.416   5.275  18.266  0.00  0.00    +0.000 C 
ENDROOT
BRANCH   1   2
ATOM      2  C   UNL     1       4.334   4.436  17.559  0.00  0.00    +0.000 C 
ATOM      3  F   UNL     1       3.173   5.184  17.447  0.00  0.00    +0.000 F 
ATOM      4  F   UNL     1       4.763   4.077  16.292  0.00  0.00    +0.000 F 
BRANCH   2   5
ATOM      5  C   UNL     1       4.040   3.158  18.355  0.00  0.00    +0.000 C 
BRANCH   5   6
ATOM      6  N   UNL     1       5.082   2.925  19.353  0.00  0.00    +0.000 NA
ATOM      7  H   UNL     1       5.843   2.343  18.931  0.00  0.00    +0.000 HD
ATOM      8  H   UNL     1       4.667   2.378  20.143  0.00  0.00    +0.000 HD
ENDBRANCH   5   6
ENDBRANCH   2   5
ENDBRANCH   1   2
BRANCH   1   9
ATOM      9  C   UNL     1       6.734   5.346  17.469  0.00  0.00    +0.000 C 
BRANCH   9  10
ATOM     10  N   UNL     1       7.698   4.360  17.963  0.00  0.00    +0.000 NA
ATOM     11  H   UNL     1       8.247   4.752  18.764  0.00  0.00    +0.000 HD
ATOM     12  H   UNL     1       8.356   4.090  17.196  0.00  0.00    +0.000 HD
ENDBRANCH   9  10
BRANCH   9  14
ATOM     13  C   UNL     1       7.769   7.812  17.640  0.00  0.00    +0.000 C 
ATOM     14  C   UNL     1       7.301   6.704  17.562  0.00  0.00    +0.000 C 
ENDBRANCH   9  14
ENDBRANCH   1   9
TORSDOF 6
ENDMDL
MODEL 4
REMARK VINA RESULT:      -4.6      3.433      4.117
REMARK  Name = 
REMARK  6 active torsions:
REMARK  status: ('A' for Active; 'I' for Inactive)
REMARK    1  A    between atoms: C_2  and  C_3
REMARK    2  A    between atoms: C_3  and  N_4
REMARK    3  A    between atoms: C_3  and  C_5
REMARK    4  A    between atoms: C_5  and  C_6
REMARK    5  A    between atoms: C_6  and  C_9
REMARK    6  A    between atoms: C_9  and  N_10
REMARK                            x       y       z     vdW  Elec       q    Type
REMARK                         _______ _______ _______ _____ _____    ______ ____
ROOT
ATOM      1  C   UNL     1       5.512   5.431  15.267  0.00  0.00    +0.000 C 
ENDROOT
BRANCH   1   2
ATOM      2  C   UNL     1       5.023   4.883  16.622  0.00  0.00    +0.000 C 
ATOM      3  F   UNL     1       4.140   5.786  17.192  0.00  0.00    +0.000 F 
ATOM      4  F   UNL     1       4.376   3.672  16.440  0.00  0.00    +0.000 F 
BRANCH   2   5
ATOM      5  C   UNL     1       6.208   4.665  17.572  0.00  0.00    +0.000 C 
BRANCH   5   6
ATOM      6  N   UNL     1       5.793   3.895  18.742  0.00  0.00    +0.000 NA
ATOM      7  H   UNL     1       5.805   4.513  19.586  0.00  0.00    +0.000 HD
ATOM      8  H   UNL     1       6.489   3.130  18.899  0.00  0.00    +0.000 HD
ENDBRANCH   5   6
ENDBRANCH   2   5
ENDBRANCH   1   2
BRANCH   1   9
ATOM      9  C   UNL     1       6.668   4.605  14.670  0.00  0.00    +0.000 C 
BRANCH   9  10
ATOM     10  N   UNL     1       7.821   5.458  14.370  0.00  0.00    +0.000 NA
ATOM     11  H   UNL     1       7.533   6.463  14.329  0.00  0.00    +0.000 HD
ATOM     12  H   UNL     1       8.239   5.182  13.452  0.00  0.00    +0.000 HD
ENDBRANCH   9  10
BRANCH   9  14
ATOM     13  C   UNL     1       5.837   3.352  12.451  0.00  0.00    +0.000 C 
ATOM     14  C   UNL     1       6.211   3.918  13.447  0.00  0.00    +0.000 C 
ENDBRANCH   9  14
ENDBRANCH   1   9
TORSDOF 6
ENDMDL
MODEL 5
REMARK VINA RESULT:      -4.5      3.885      4.587
REMARK  Name = 
REMARK  6 active torsions:
REMARK  status: ('A' for Active; 'I' for Inactive)
REMARK    1  A    between atoms: C_2  and  C_3
REMARK    2  A    between atoms: C_3  and  N_4
REMARK    3  A    between atoms: C_3  and  C_5
REMARK    4  A    between atoms: C_5  and  C_6
REMARK    5  A    between atoms: C_6  and  C_9
REMARK    6  A    between atoms: C_9  and  N_10
REMARK                            x       y       z     vdW  Elec       q    Type
REMARK                         _______ _______ _______ _____ _____    ______ ____
ROOT
ATOM      1  C   UNL     1       2.606   3.644  19.086  0.00  0.00    +0.000 C 
ENDROOT
BRANCH   1   2
ATOM      2  C   UNL     1       1.555   2.705  19.709  0.00  0.00    +0.000 C 
ATOM      3  F   UNL     1       0.324   2.935  19.115  0.00  0.00    +0.000 F 
ATOM      4  F   UNL     1       1.916   1.384  19.503  0.00  0.00    +0.000 F 
BRANCH   2   5
ATOM      5  C   UNL     1       1.444   2.951  21.219  0.00  0.00    +0.000 C 
BRANCH   5   6
ATOM      6  N   UNL     1       2.673   2.546  21.896  0.00  0.00    +0.000 NA
ATOM      7  H   UNL     1       2.531   1.609  22.341  0.00  0.00    +0.000 HD
ATOM      8  H   UNL     1       2.871   3.232  22.661  0.00  0.00    +0.000 HD
ENDBRANCH   5   6
ENDBRANCH   2   5
ENDBRANCH   1   2
BRANCH   1   9
ATOM      9  C   UNL     1       3.822   2.888  18.517  0.00  0.00    +0.000 C 
BRANCH   9  10
ATOM     10  N   UNL     1       4.874   2.750  19.527  0.00  0.00    +0.000 NA
ATOM     11  H   UNL     1       4.548   3.123  20.449  0.00  0.00    +0.000 HD
ATOM     12  H   UNL     1       5.727   3.275  19.227  0.00  0.00    +0.000 HD
ENDBRANCH   9  10
BRANCH   9  14
ATOM     13  C   UNL     1       4.772   4.182  16.370  0.00  0.00    +0.000 C 
ATOM     14  C   UNL     1       4.342   3.599  17.334  0.00  0.00    +0.000 C 
ENDBRANCH   9  14
ENDBRANCH   1   9
TORSDOF 6
ENDMDL
MODEL 6
REMARK VINA RESULT:      -4.4      3.731      4.475
REMARK  Name = 
REMARK  6 active torsions:
REMARK  status: ('A' for Active; 'I' for Inactive)
REMARK    1  A    between atoms: C_2  and  C_3
REMARK    2  A    between atoms: C_3  and  N_4
REMARK    3  A    between atoms: C_3  and  C_5
REMARK    4  A    between atoms: C_5  and  C_6
REMARK    5  A    between atoms: C_6  and  C_9
REMARK    6  A    between atoms: C_9  and  N_10
REMARK                            x       y       z     vdW  Elec       q    Type
REMARK                         _______ _______ _______ _____ _____    ______ ____
ROOT
ATOM      1  C   UNL     1       3.180   4.238  19.856  0.00  0.00    +0.000 C 
ENDROOT
BRANCH   1   2
ATOM      2  C   UNL     1       1.653   4.104  20.015  0.00  0.00    +0.000 C 
ATOM      3  F   UNL     1       1.164   5.204  20.701  0.00  0.00    +0.000 F 
ATOM      4  F   UNL     1       1.049   4.044  18.770  0.00  0.00    +0.000 F 
BRANCH   2   5
ATOM      5  C   UNL     1       1.304   2.827  20.789  0.00  0.00    +0.000 C 
BRANCH   5   6
ATOM      6  N   UNL     1       1.958   2.823  22.095  0.00  0.00    +0.000 NA
ATOM      7  H   UNL     1       1.307   2.421  22.808  0.00  0.00    +0.000 HD
ATOM      8  H   UNL     1       2.156   3.813  22.369  0.00  0.00    +0.000 HD
ENDBRANCH   5   6
ENDBRANCH   2   5
ENDBRANCH   1   2
BRANCH   1   9
ATOM      9  C   UNL     1       3.793   3.116  18.996  0.00  0.00    +0.000 C 
BRANCH   9  10
ATOM     10  N   UNL     1       4.936   2.500  19.674  0.00  0.00    +0.000 NA
ATOM     11  H   UNL     1       5.759   3.146  19.666  0.00  0.00    +0.000 HD
ATOM     12  H   UNL     1       5.196   1.608  19.195  0.00  0.00    +0.000 HD
ENDBRANCH   9  10
BRANCH   9  14
ATOM     13  C   UNL     1       4.544   4.100  16.618  0.00  0.00    +0.000 C 
ATOM     14  C   UNL     1       4.208   3.659  17.689  0.00  0.00    +0.000 C 
ENDBRANCH   9  14
ENDBRANCH   1   9
TORSDOF 6
ENDMDL
MODEL 7
REMARK VINA RESULT:      -4.4      2.447      4.124
REMARK  Name = 
REMARK  6 active torsions:
REMARK  status: ('A' for Active; 'I' for Inactive)
REMARK    1  A    between atoms: C_2  and  C_3
REMARK    2  A    between atoms: C_3  and  N_4
REMARK    3  A    between atoms: C_3  and  C_5
REMARK    4  A    between atoms: C_5  and  C_6
REMARK    5  A    between atoms: C_6  and  C_9
REMARK    6  A    between atoms: C_9  and  N_10
REMARK                            x       y       z     vdW  Elec       q    Type
REMARK                         _______ _______ _______ _____ _____    ______ ____
ROOT
ATOM      1  C   UNL     1       4.715   4.234  16.545  0.00  0.00    +0.000 C 
ENDROOT
BRANCH   1   2
ATOM      2  C   UNL     1       5.769   5.304  16.201  0.00  0.00    +0.000 C 
ATOM      3  F   UNL     1       5.326   6.059  15.127  0.00  0.00    +0.000 F 
ATOM      4  F   UNL     1       5.971   6.139  17.288  0.00  0.00    +0.000 F 
BRANCH   2   5
ATOM      5  C   UNL     1       7.106   4.643  15.840  0.00  0.00    +0.000 C 
BRANCH   5   6
ATOM      6  N   UNL     1       7.825   4.245  17.047  0.00  0.00    +0.000 NA
ATOM      7  H   UNL     1       8.742   4.746  17.086  0.00  0.00    +0.000 HD
ATOM      8  H   UNL     1       8.026   3.220  16.990  0.00  0.00    +0.000 HD
ENDBRANCH   5   6
ENDBRANCH   2   5
ENDBRANCH   1   2
BRANCH   1   9
ATOM      9  C   UNL     1       4.310   4.248  18.032  0.00  0.00    +0.000 C 
BRANCH   9  10
ATOM     10  N   UNL     1       5.174   3.363  18.817  0.00  0.00    +0.000 NA
ATOM     11  H   UNL     1       4.893   3.376  19.826  0.00  0.00    +0.000 HD
ATOM     12  H   UNL     1       6.169   3.672  18.735  0.00  0.00    +0.000 HD
ENDBRANCH   9  10
BRANCH   9  14
ATOM     13  C   UNL     1       1.747   3.505  18.286  0.00  0.00    +0.000 C 
ATOM     14  C   UNL     1       2.900   3.837  18.169  0.00  0.00    +0.000 C 
ENDBRANCH   9  14
ENDBRANCH   1   9
TORSDOF 6
ENDMDL
MODEL 8
REMARK VINA RESULT:      -4.4      3.924      4.616
REMARK  Name = 
REMARK  6 active torsions:
REMARK  status: ('A' for Active; 'I' for Inactive)
REMARK    1  A    between atoms: C_2  and  C_3
REMARK    2  A    between atoms: C_3  and  N_4
REMARK    3  A    between atoms: C_3  and  C_5
REMARK    4  A    between atoms: C_5  and  C_6
REMARK    5  A    between atoms: C_6  and  C_9
REMARK    6  A    between atoms: C_9  and  N_10
REMARK                            x       y       z     vdW  Elec       q    Type
REMARK                         _______ _______ _______ _____ _____    ______ ____
ROOT
ATOM      1  C   UNL     1       5.925   5.173  15.017  0.00  0.00    +0.000 C 
ENDROOT
BRANCH   1   2
ATOM      2  C   UNL     1       5.639   4.323  16.269  0.00  0.00    +0.000 C 
ATOM      3  F   UNL     1       4.314   4.483  16.641  0.00  0.00    +0.000 F 
ATOM      4  F   UNL     1       5.873   2.985  15.999  0.00  0.00    +0.000 F 
BRANCH   2   5
ATOM      5  C   UNL     1       6.547   4.753  17.429  0.00  0.00    +0.000 C 
BRANCH   5   6
ATOM      6  N   UNL     1       7.890   4.205  17.260  0.00  0.00    +0.000 NA
ATOM      7  H   UNL     1       8.274   4.507  16.335  0.00  0.00    +0.000 HD
ATOM      8  H   UNL     1       7.823   3.161  17.249  0.00  0.00    +0.000 HD
ENDBRANCH   5   6
ENDBRANCH   2   5
ENDBRANCH   1   2
BRANCH   1   9
ATOM      9  C   UNL     1       6.973   4.533  14.085  0.00  0.00    +0.000 C 
BRANCH   9  10
ATOM     10  N   UNL     1       7.876   5.548  13.537  0.00  0.00    +0.000 NA
ATOM     11  H   UNL     1       7.947   6.366  14.186  0.00  0.00    +0.000 HD
ATOM     12  H   UNL     1       7.521   5.876  12.609  0.00  0.00    +0.000 HD
ENDBRANCH   9  10
BRANCH   9  14
ATOM     13  C   UNL     1       5.744   3.220  12.097  0.00  0.00    +0.000 C 
ATOM     14  C   UNL     1       6.294   3.811  12.993  0.00  0.00    +0.000 C 
ENDBRANCH   9  14
ENDBRANCH   1   9
TORSDOF 6
ENDMDL
MODEL 9
REMARK VINA RESULT:      -4.4      3.437      4.236
REMARK  Name = 
REMARK  6 active torsions:
REMARK  status: ('A' for Active; 'I' for Inactive)
REMARK    1  A    between atoms: C_2  and  C_3
REMARK    2  A    between atoms: C_3  and  N_4
REMARK    3  A    between atoms: C_3  and  C_5
REMARK    4  A    between atoms: C_5  and  C_6
REMARK    5  A    between atoms: C_6  and  C_9
REMARK    6  A    between atoms: C_9  and  N_10
REMARK                            x       y       z     vdW  Elec       q    Type
REMARK                         _______ _______ _______ _____ _____    ______ ____
ROOT
ATOM      1  C   UNL     1       5.532   4.516  15.567  0.00  0.00    +0.000 C 
ENDROOT
BRANCH   1   2
ATOM      2  C   UNL     1       6.022   4.856  16.987  0.00  0.00    +0.000 C 
ATOM      3  F   UNL     1       7.211   4.188  17.236  0.00  0.00    +0.000 F 
ATOM      4  F   UNL     1       6.238   6.219  17.102  0.00  0.00    +0.000 F 
BRANCH   2   5
ATOM      5  C   UNL     1       4.978   4.438  18.030  0.00  0.00    +0.000 C 
BRANCH   5   6
ATOM      6  N   UNL     1       5.529   3.430  18.932  0.00  0.00    +0.000 NA
ATOM      7  H   UNL     1       4.746   2.920  19.404  0.00  0.00    +0.000 HD
ATOM      8  H   UNL     1       6.082   3.917  19.675  0.00  0.00    +0.000 HD
ENDBRANCH   5   6
ENDBRANCH   2   5
ENDBRANCH   1   2
BRANCH   1   9
ATOM      9  C   UNL     1       6.687   4.250  14.582  0.00  0.00    +0.000 C 
BRANCH   9  10
ATOM     10  N   UNL     1       7.447   5.475  14.323  0.00  0.00    +0.000 NA
ATOM     11  H   UNL     1       6.941   6.309  14.703  0.00  0.00    +0.000 HD
ATOM     12  H   UNL     1       7.585   5.597  13.294  0.00  0.00    +0.000 HD
ENDBRANCH   9  10
BRANCH   9  14
ATOM     13  C   UNL     1       5.710   3.264  12.289  0.00  0.00    +0.000 C 
ATOM     14  C   UNL     1       6.152   3.706  13.320  0.00  0.00    +0.000 C 
ENDBRANCH   9  14
ENDBRANCH   1   9
TORSDOF 6
ENDMDL
