MODEL 1
REMARK VINA RESULT:      -9.1      0.000      0.000
REMARK  Name = 
REMARK  7 active torsions:
REMARK  status: ('A' for Active; 'I' for Inactive)
REMARK    1  A    between atoms: C_2  and  O_3
REMARK    2  A    between atoms: C_2  and  C_4
REMARK    3  A    between atoms: N_6  and  C_7
REMARK    4  A    between atoms: C_7  and  C_8
REMARK    5  A    between atoms: C_11  and  C_12
REMARK    6  A    between atoms: C_17  and  C_18
REMARK    7  A    between atoms: C_18  and  C_19
REMARK                            x       y       z     vdW  Elec       q    Type
REMARK                         _______ _______ _______ _____ _____    ______ ____
ROOT
ATOM      1  C   UNL     1       1.649   8.175  19.944  0.00  0.00    +0.000 A 
ATOM      2  N   UNL     1       1.277   7.998  21.199  0.00  0.00    +0.000 NA
ATOM      3  C   UNL     1       0.507   9.072  21.617  0.00  0.00    +0.000 A 
ATOM      4  C   UNL     1      -0.053   9.268  22.894  0.00  0.00    +0.000 A 
ATOM      5  C   UNL     1      -0.809  10.428  23.145  0.00  0.00    +0.000 A 
ATOM      6  C   UNL     1      -1.035  11.399  22.155  0.00  0.00    +0.000 A 
ATOM      7  C   UNL     1      -0.472  11.189  20.889  0.00  0.00    +0.000 A 
ATOM      8  C   UNL     1       0.278  10.037  20.644  0.00  0.00    +0.000 A 
ATOM      9  S   UNL     1       1.024   9.577  19.181  0.00  0.00    +0.000 S 
ENDROOT
BRANCH   1  13
ATOM     10  C   UNL     1       4.012   5.443  17.659  0.00  0.00    +0.000 A 
ATOM     11  C   UNL     1       4.025   6.820  17.379  0.00  0.00    +0.000 A 
ATOM     12  C   UNL     1       3.244   7.693  18.129  0.00  0.00    +0.000 A 
ATOM     13  C   UNL     1       2.442   7.218  19.173  0.00  0.00    +0.000 A 
ATOM     14  C   UNL     1       2.425   5.839  19.432  0.00  0.00    +0.000 A 
ATOM     15  F   UNL     1       1.630   5.316  20.379  0.00  0.00    +0.000 F 
ATOM     16  C   UNL     1       3.208   4.961  18.697  0.00  0.00    +0.000 A 
BRANCH  10  17
ATOM     17  C   UNL     1       4.801   4.493  16.787  0.00  0.00    +0.000 C 
BRANCH  17  20
ATOM     18  C   UNL     1       5.987   3.955  14.195  0.00  0.00    +0.000 C 
ATOM     19  C   UNL     1       6.831   4.330  15.424  0.00  0.00    +0.000 C 
ATOM     20  N   UNL     1       5.737   5.207  15.901  0.00  0.00    +0.000 NA
ATOM     21  C   UNL     1       5.216   5.257  14.511  0.00  0.00    +0.000 C 
BRANCH  18  23
ATOM     22  O   UNL     1       7.472   4.657  12.366  0.00  0.00    +0.000 OA
ATOM     23  C   UNL     1       6.711   3.831  12.847  0.00  0.00    +0.000 C 
BRANCH  23  24
ATOM     24  O   UNL     1       6.409   2.687  12.166  0.00  0.00    +0.000 OA
ATOM     25  H   UNL     1       5.452   2.537  12.042  0.00  0.00    +0.000 HD
ENDBRANCH  23  24
ENDBRANCH  18  23
ENDBRANCH  17  20
ENDBRANCH  10  17
ENDBRANCH   1  13
BRANCH   6  26
ATOM     26  C   UNL     1      -1.876  12.645  22.392  0.00  0.00    +0.000 C 
ATOM     27  C   UNL     1      -1.178  13.849  23.049  0.00  0.00    +0.000 C 
ATOM     28  C   UNL     1      -1.538  13.908  21.602  0.00  0.00    +0.000 C 
BRANCH  26  29
ATOM     29  C   UNL     1      -3.339  12.460  22.805  0.00  0.00    +0.000 A 
ATOM     30  C   UNL     1      -3.665  12.240  24.148  0.00  0.00    +0.000 A 
ATOM     31  C   UNL     1      -4.957  12.503  24.590  0.00  0.00    +0.000 A 
ATOM     32  C   UNL     1      -5.912  12.920  23.675  0.00  0.00    +0.000 A 
ATOM     33  C   UNL     1      -5.550  12.988  22.343  0.00  0.00    +0.000 A 
ATOM     34  N   UNL     1      -4.299  12.763  21.893  0.00  0.00    +0.000 NA
ENDBRANCH  26  29
ENDBRANCH   6  26
TORSDOF 7
ENDMDL
MODEL 2
REMARK VINA RESULT:      -8.8      5.553     11.975
REMARK  Name = 
REMARK  7 active torsions:
REMARK  status: ('A' for Active; 'I' for Inactive)
REMARK    1  A    between atoms: C_2  and  O_3
REMARK    2  A    between atoms: C_2  and  C_4
REMARK    3  A    between atoms: N_6  and  C_7
REMARK    4  A    between atoms: C_7  and  C_8
REMARK    5  A    between atoms: C_11  and  C_12
REMARK    6  A    between atoms: C_17  and  C_18
REMARK    7  A    between atoms: C_18  and  C_19
REMARK                            x       y       z     vdW  Elec       q    Type
REMARK                         _______ _______ _______ _____ _____    ______ ____
ROOT
ATOM      1  C   UNL     1       0.536   8.947  20.820  0.00  0.00    +0.000 A 
ATOM      2  N   UNL     1       0.625   7.764  21.400  0.00  0.00    +0.000 NA
ATOM      3  C   UNL     1       1.485   6.950  20.681  0.00  0.00    +0.000 A 
ATOM      4  C   UNL     1       1.818   5.611  20.961  0.00  0.00    +0.000 A 
ATOM      5  C   UNL     1       2.713   4.932  20.113  0.00  0.00    +0.000 A 
ATOM      6  C   UNL     1       3.297   5.551  18.996  0.00  0.00    +0.000 A 
ATOM      7  C   UNL     1       2.956   6.884  18.731  0.00  0.00    +0.000 A 
ATOM      8  C   UNL     1       2.068   7.555  19.574  0.00  0.00    +0.000 A 
ATOM      9  S   UNL     1       1.542   9.172  19.450  0.00  0.00    +0.000 S 
ENDROOT
BRANCH   1  13
ATOM     10  C   UNL     1      -1.808  12.228  22.237  0.00  0.00    +0.000 A 
ATOM     11  C   UNL     1      -1.483  12.107  20.876  0.00  0.00    +0.000 A 
ATOM     12  C   UNL     1      -0.713  11.036  20.434  0.00  0.00    +0.000 A 
ATOM     13  C   UNL     1      -0.257  10.064  21.332  0.00  0.00    +0.000 A 
ATOM     14  C   UNL     1      -0.574  10.205  22.692  0.00  0.00    +0.000 A 
ATOM     15  F   UNL     1      -0.116   9.340  23.610  0.00  0.00    +0.000 F 
ATOM     16  C   UNL     1      -1.351  11.264  23.141  0.00  0.00    +0.000 A 
BRANCH  10  17
ATOM     17  C   UNL     1      -2.576  13.438  22.719  0.00  0.00    +0.000 C 
BRANCH  17  20
ATOM     18  C   UNL     1      -5.359  13.769  23.468  0.00  0.00    +0.000 C 
ATOM     19  C   UNL     1      -4.899  12.703  22.461  0.00  0.00    +0.000 C 
ATOM     20  N   UNL     1      -3.839  13.618  21.982  0.00  0.00    +0.000 NA
ATOM     21  C   UNL     1      -4.617  14.756  22.537  0.00  0.00    +0.000 C 
BRANCH  18  23
ATOM     22  O   UNL     1      -7.616  14.615  22.983  0.00  0.00    +0.000 OA
ATOM     23  C   UNL     1      -6.869  13.943  23.679  0.00  0.00    +0.000 C 
BRANCH  23  24
ATOM     24  O   UNL     1      -7.349  13.287  24.775  0.00  0.00    +0.000 OA
ATOM     25  H   UNL     1      -7.330  12.313  24.698  0.00  0.00    +0.000 HD
ENDBRANCH  23  24
ENDBRANCH  18  23
ENDBRANCH  17  20
ENDBRANCH  10  17
ENDBRANCH   1  13
BRANCH   6  26
ATOM     26  C   UNL     1       4.292   4.848  18.084  0.00  0.00    +0.000 C 
ATOM     27  C   UNL     1       4.105   3.334  17.874  0.00  0.00    +0.000 C 
ATOM     28  C   UNL     1       3.785   4.277  16.761  0.00  0.00    +0.000 C 
BRANCH  26  29
ATOM     29  C   UNL     1       5.753   5.305  18.123  0.00  0.00    +0.000 A 
ATOM     30  C   UNL     1       6.241   6.178  17.145  0.00  0.00    +0.000 A 
ATOM     31  C   UNL     1       7.386   6.924  17.402  0.00  0.00    +0.000 A 
ATOM     32  C   UNL     1       8.056   6.739  18.603  0.00  0.00    +0.000 A 
ATOM     33  C   UNL     1       7.590   5.765  19.465  0.00  0.00    +0.000 A 
ATOM     34  N   UNL     1       6.468   5.047  19.249  0.00  0.00    +0.000 NA
ENDBRANCH  26  29
ENDBRANCH   6  26
TORSDOF 7
ENDMDL
MODEL 3
REMARK VINA RESULT:      -8.7      0.866      1.199
REMARK  Name = 
REMARK  7 active torsions:
REMARK  status: ('A' for Active; 'I' for Inactive)
REMARK    1  A    between atoms: C_2  and  O_3
REMARK    2  A    between atoms: C_2  and  C_4
REMARK    3  A    between atoms: N_6  and  C_7
REMARK    4  A    between atoms: C_7  and  C_8
REMARK    5  A    between atoms: C_11  and  C_12
REMARK    6  A    between atoms: C_17  and  C_18
REMARK    7  A    between atoms: C_18  and  C_19
REMARK                            x       y       z     vdW  Elec       q    Type
REMARK                         _______ _______ _______ _____ _____    ______ ____
ROOT
ATOM      1  C   UNL     1       1.585   8.287  20.046  0.00  0.00    +0.000 A 
ATOM      2  N   UNL     1       1.193   8.089  21.292  0.00  0.00    +0.000 NA
ATOM      3  C   UNL     1       0.411   9.152  21.714  0.00  0.00    +0.000 A 
ATOM      4  C   UNL     1      -0.170   9.325  22.985  0.00  0.00    +0.000 A 
ATOM      5  C   UNL     1      -0.936  10.477  23.241  0.00  0.00    +0.000 A 
ATOM      6  C   UNL     1      -1.151  11.462  22.264  0.00  0.00    +0.000 A 
ATOM      7  C   UNL     1      -0.567  11.275  21.004  0.00  0.00    +0.000 A 
ATOM      8  C   UNL     1       0.193  10.131  20.753  0.00  0.00    +0.000 A 
ATOM      9  S   UNL     1       0.965   9.698  19.295  0.00  0.00    +0.000 S 
ENDROOT
BRANCH   1  13
ATOM     10  C   UNL     1       3.917   5.472  17.831  0.00  0.00    +0.000 A 
ATOM     11  C   UNL     1       3.309   5.111  19.044  0.00  0.00    +0.000 A 
ATOM     12  C   UNL     1       2.559   6.043  19.755  0.00  0.00    +0.000 A 
ATOM     13  C   UNL     1       2.395   7.347  19.273  0.00  0.00    +0.000 A 
ATOM     14  C   UNL     1       3.022   7.700  18.069  0.00  0.00    +0.000 A 
ATOM     15  F   UNL     1       2.953   8.951  17.586  0.00  0.00    +0.000 F 
ATOM     16  C   UNL     1       3.763   6.775  17.346  0.00  0.00    +0.000 A 
BRANCH  10  17
ATOM     17  C   UNL     1       4.796   4.478  17.108  0.00  0.00    +0.000 C 
BRANCH  17  20
ATOM     18  C   UNL     1       5.953   3.994  14.492  0.00  0.00    +0.000 C 
ATOM     19  C   UNL     1       6.815   4.189  15.750  0.00  0.00    +0.000 C 
ATOM     20  N   UNL     1       5.817   5.145  16.281  0.00  0.00    +0.000 NA
ATOM     21  C   UNL     1       5.324   5.348  14.894  0.00  0.00    +0.000 C 
BRANCH  18  23
ATOM     22  O   UNL     1       7.444   4.715  12.675  0.00  0.00    +0.000 OA
ATOM     23  C   UNL     1       6.678   3.886  13.143  0.00  0.00    +0.000 C 
BRANCH  23  24
ATOM     24  O   UNL     1       6.372   2.753  12.446  0.00  0.00    +0.000 OA
ATOM     25  H   UNL     1       6.782   1.941  12.802  0.00  0.00    +0.000 HD
ENDBRANCH  23  24
ENDBRANCH  18  23
ENDBRANCH  17  20
ENDBRANCH  10  17
ENDBRANCH   1  13
BRANCH   6  26
ATOM     26  C   UNL     1      -2.003  12.700  22.506  0.00  0.00    +0.000 C 
ATOM     27  C   UNL     1      -1.331  13.886  23.221  0.00  0.00    +0.000 C 
ATOM     28  C   UNL     1      -1.641  13.985  21.764  0.00  0.00    +0.000 C 
BRANCH  26  29
ATOM     29  C   UNL     1      -3.479  12.501  22.863  0.00  0.00    +0.000 A 
ATOM     30  C   UNL     1      -3.860  12.332  24.199  0.00  0.00    +0.000 A 
ATOM     31  C   UNL     1      -5.175  12.586  24.573  0.00  0.00    +0.000 A 
ATOM     32  C   UNL     1      -6.096  12.943  23.600  0.00  0.00    +0.000 A 
ATOM     33  C   UNL     1      -5.678  12.962  22.283  0.00  0.00    +0.000 A 
ATOM     34  N   UNL     1      -4.403  12.744  21.898  0.00  0.00    +0.000 NA
ENDBRANCH  26  29
ENDBRANCH   6  26
TORSDOF 7
ENDMDL
MODEL 4
REMARK VINA RESULT:      -8.7      5.457     12.329
REMARK  Name = 
REMARK  7 active torsions:
REMARK  status: ('A' for Active; 'I' for Inactive)
REMARK    1  A    between atoms: C_2  and  O_3
REMARK    2  A    between atoms: C_2  and  C_4
REMARK    3  A    between atoms: N_6  and  C_7
REMARK    4  A    between atoms: C_7  and  C_8
REMARK    5  A    between atoms: C_11  and  C_12
REMARK    6  A    between atoms: C_17  and  C_18
REMARK    7  A    between atoms: C_18  and  C_19
REMARK                            x       y       z     vdW  Elec       q    Type
REMARK                         _______ _______ _______ _____ _____    ______ ____
ROOT
ATOM      1  C   UNL     1       0.955   8.974  20.421  0.00  0.00    +0.000 A 
ATOM      2  N   UNL     1       1.522   9.187  19.248  0.00  0.00    +0.000 NA
ATOM      3  C   UNL     1       2.247   8.070  18.866  0.00  0.00    +0.000 A 
ATOM      4  C   UNL     1       3.014   7.916  17.695  0.00  0.00    +0.000 A 
ATOM      5  C   UNL     1       3.694   6.705  17.470  0.00  0.00    +0.000 A 
ATOM      6  C   UNL     1       3.625   5.632  18.375  0.00  0.00    +0.000 A 
ATOM      7  C   UNL     1       2.857   5.801  19.534  0.00  0.00    +0.000 A 
ATOM      8  C   UNL     1       2.184   7.004  19.754  0.00  0.00    +0.000 A 
ATOM      9  S   UNL     1       1.183   7.406  21.075  0.00  0.00    +0.000 S 
ENDROOT
BRANCH   1  13
ATOM     10  C   UNL     1      -1.553  11.741  22.501  0.00  0.00    +0.000 A 
ATOM     11  C   UNL     1      -0.929  10.681  23.178  0.00  0.00    +0.000 A 
ATOM     12  C   UNL     1      -0.122   9.786  22.484  0.00  0.00    +0.000 A 
ATOM     13  C   UNL     1       0.086   9.930  21.107  0.00  0.00    +0.000 A 
ATOM     14  C   UNL     1      -0.557  10.983  20.438  0.00  0.00    +0.000 A 
ATOM     15  F   UNL     1      -0.446  11.138  19.109  0.00  0.00    +0.000 F 
ATOM     16  C   UNL     1      -1.355  11.888  21.124  0.00  0.00    +0.000 A 
BRANCH  10  17
ATOM     17  C   UNL     1      -2.492  12.660  23.248  0.00  0.00    +0.000 C 
BRANCH  17  20
ATOM     18  C   UNL     1      -5.142  13.738  23.727  0.00  0.00    +0.000 C 
ATOM     19  C   UNL     1      -4.557  12.589  24.565  0.00  0.00    +0.000 C 
ATOM     20  N   UNL     1      -3.843  12.086  23.369  0.00  0.00    +0.000 NA
ATOM     21  C   UNL     1      -4.811  12.829  22.521  0.00  0.00    +0.000 C 
BRANCH  18  23
ATOM     22  O   UNL     1      -7.568  13.382  23.901  0.00  0.00    +0.000 OA
ATOM     23  C   UNL     1      -6.605  14.129  23.980  0.00  0.00    +0.000 C 
BRANCH  23  24
ATOM     24  O   UNL     1      -6.774  15.448  24.287  0.00  0.00    +0.000 OA
ATOM     25  H   UNL     1      -6.444  16.063  23.605  0.00  0.00    +0.000 HD
ENDBRANCH  23  24
ENDBRANCH  18  23
ENDBRANCH  17  20
ENDBRANCH  10  17
ENDBRANCH   1  13
BRANCH   6  26
ATOM     26  C   UNL     1       4.323   4.301  18.138  0.00  0.00    +0.000 C 
ATOM     27  C   UNL     1       4.634   3.441  19.377  0.00  0.00    +0.000 C 
ATOM     28  C   UNL     1       3.553   3.016  18.439  0.00  0.00    +0.000 C 
BRANCH  26  29
ATOM     29  C   UNL     1       5.383   4.228  17.036  0.00  0.00    +0.000 A 
ATOM     30  C   UNL     1       5.026   3.822  15.745  0.00  0.00    +0.000 A 
ATOM     31  C   UNL     1       5.840   4.162  14.670  0.00  0.00    +0.000 A 
ATOM     32  C   UNL     1       7.023   4.844  14.910  0.00  0.00    +0.000 A 
ATOM     33  C   UNL     1       7.375   5.096  16.222  0.00  0.00    +0.000 A 
ATOM     34  N   UNL     1       6.591   4.800  17.279  0.00  0.00    +0.000 NA
ENDBRANCH  26  29
ENDBRANCH   6  26
TORSDOF 7
ENDMDL
MODEL 5
REMARK VINA RESULT:      -8.7      5.439     11.670
REMARK  Name = 
REMARK  7 active torsions:
REMARK  status: ('A' for Active; 'I' for Inactive)
REMARK    1  A    between atoms: C_2  and  O_3
REMARK    2  A    between atoms: C_2  and  C_4
REMARK    3  A    between atoms: N_6  and  C_7
REMARK    4  A    between atoms: C_7  and  C_8
REMARK    5  A    between atoms: C_11  and  C_12
REMARK    6  A    between atoms: C_17  and  C_18
REMARK    7  A    between atoms: C_18  and  C_19
REMARK                            x       y       z     vdW  Elec       q    Type
REMARK                         _______ _______ _______ _____ _____    ______ ____
ROOT
ATOM      1  C   UNL     1       0.465   9.991  20.634  0.00  0.00    +0.000 A 
ATOM      2  N   UNL     1       0.797  10.149  19.366  0.00  0.00    +0.000 NA
ATOM      3  C   UNL     1       1.565   9.076  18.943  0.00  0.00    +0.000 A 
ATOM      4  C   UNL     1       2.133   8.890  17.668  0.00  0.00    +0.000 A 
ATOM      5  C   UNL     1       2.893   7.733  17.414  0.00  0.00    +0.000 A 
ATOM      6  C   UNL     1       3.097   6.746  18.392  0.00  0.00    +0.000 A 
ATOM      7  C   UNL     1       2.524   6.945  19.655  0.00  0.00    +0.000 A 
ATOM      8  C   UNL     1       1.771   8.094  19.904  0.00  0.00    +0.000 A 
ATOM      9  S   UNL     1       0.971   8.517  21.349  0.00  0.00    +0.000 S 
ENDROOT
BRANCH   1  13
ATOM     10  C   UNL     1      -1.996  12.749  22.780  0.00  0.00    +0.000 A 
ATOM     11  C   UNL     1      -1.416  13.103  21.551  0.00  0.00    +0.000 A 
ATOM     12  C   UNL     1      -0.612  12.195  20.870  0.00  0.00    +0.000 A 
ATOM     13  C   UNL     1      -0.374  10.918  21.393  0.00  0.00    +0.000 A 
ATOM     14  C   UNL     1      -0.946  10.582  22.629  0.00  0.00    +0.000 A 
ATOM     15  F   UNL     1      -0.705   9.397  23.211  0.00  0.00    +0.000 F 
ATOM     16  C   UNL     1      -1.759  11.477  23.312  0.00  0.00    +0.000 A 
BRANCH  10  17
ATOM     17  C   UNL     1      -2.802  13.770  23.551  0.00  0.00    +0.000 C 
BRANCH  17  20
ATOM     18  C   UNL     1      -5.589  13.058  23.921  0.00  0.00    +0.000 C 
ATOM     19  C   UNL     1      -4.873  12.904  22.569  0.00  0.00    +0.000 C 
ATOM     20  N   UNL     1      -4.062  14.107  22.867  0.00  0.00    +0.000 NA
ATOM     21  C   UNL     1      -5.100  14.523  23.846  0.00  0.00    +0.000 C 
BRANCH  18  23
ATOM     22  O   UNL     1      -7.917  13.379  24.646  0.00  0.00    +0.000 OA
ATOM     23  C   UNL     1      -7.099  12.782  23.961  0.00  0.00    +0.000 C 
BRANCH  23  24
ATOM     24  O   UNL     1      -7.489  11.749  23.159  0.00  0.00    +0.000 OA
ATOM     25  H   UNL     1      -7.757  12.021  22.260  0.00  0.00    +0.000 HD
ENDBRANCH  23  24
ENDBRANCH  18  23
ENDBRANCH  17  20
ENDBRANCH  10  17
ENDBRANCH   1  13
BRANCH   6  26
ATOM     26  C   UNL     1       3.886   5.471  18.132  0.00  0.00    +0.000 C 
ATOM     27  C   UNL     1       4.827   5.464  16.913  0.00  0.00    +0.000 C 
ATOM     28  C   UNL     1       5.405   5.515  18.288  0.00  0.00    +0.000 C 
BRANCH  26  29
ATOM     29  C   UNL     1       3.202   4.130  18.410  0.00  0.00    +0.000 A 
ATOM     30  C   UNL     1       3.738   3.254  19.361  0.00  0.00    +0.000 A 
ATOM     31  C   UNL     1       2.926   2.277  19.927  0.00  0.00    +0.000 A 
ATOM     32  C   UNL     1       1.616   2.152  19.488  0.00  0.00    +0.000 A 
ATOM     33  C   UNL     1       1.196   2.965  18.454  0.00  0.00    +0.000 A 
ATOM     34  N   UNL     1       1.955   3.937  17.907  0.00  0.00    +0.000 NA
ENDBRANCH  26  29
ENDBRANCH   6  26
TORSDOF 7
ENDMDL
MODEL 6
REMARK VINA RESULT:      -8.7      5.272     11.670
REMARK  Name = 
REMARK  7 active torsions:
REMARK  status: ('A' for Active; 'I' for Inactive)
REMARK    1  A    between atoms: C_2  and  O_3
REMARK    2  A    between atoms: C_2  and  C_4
REMARK    3  A    between atoms: N_6  and  C_7
REMARK    4  A    between atoms: C_7  and  C_8
REMARK    5  A    between atoms: C_11  and  C_12
REMARK    6  A    between atoms: C_17  and  C_18
REMARK    7  A    between atoms: C_18  and  C_19
REMARK                            x       y       z     vdW  Elec       q    Type
REMARK                         _______ _______ _______ _____ _____    ______ ____
ROOT
ATOM      1  C   UNL     1       0.561   9.547  19.964  0.00  0.00    +0.000 A 
ATOM      2  N   UNL     1       0.659   8.513  20.780  0.00  0.00    +0.000 NA
ATOM      3  C   UNL     1       1.512   7.565  20.238  0.00  0.00    +0.000 A 
ATOM      4  C   UNL     1       1.851   6.315  20.790  0.00  0.00    +0.000 A 
ATOM      5  C   UNL     1       2.736   5.471  20.094  0.00  0.00    +0.000 A 
ATOM      6  C   UNL     1       3.304   5.839  18.863  0.00  0.00    +0.000 A 
ATOM      7  C   UNL     1       2.957   7.086  18.327  0.00  0.00    +0.000 A 
ATOM      8  C   UNL     1       2.079   7.921  19.021  0.00  0.00    +0.000 A 
ATOM      9  S   UNL     1       1.548   9.477  18.564  0.00  0.00    +0.000 S 
ENDROOT
BRANCH   1  13
ATOM     10  C   UNL     1      -1.684  13.081  20.825  0.00  0.00    +0.000 A 
ATOM     11  C   UNL     1      -0.659  12.649  21.682  0.00  0.00    +0.000 A 
ATOM     12  C   UNL     1       0.056  11.492  21.390  0.00  0.00    +0.000 A 
ATOM     13  C   UNL     1      -0.228  10.747  20.239  0.00  0.00    +0.000 A 
ATOM     14  C   UNL     1      -1.265  11.180  19.399  0.00  0.00    +0.000 A 
ATOM     15  F   UNL     1      -1.626  10.476  18.315  0.00  0.00    +0.000 F 
ATOM     16  C   UNL     1      -1.978  12.339  19.676  0.00  0.00    +0.000 A 
BRANCH  10  17
ATOM     17  C   UNL     1      -2.508  14.293  21.193  0.00  0.00    +0.000 C 
BRANCH  17  20
ATOM     18  C   UNL     1      -3.993  13.158  23.413  0.00  0.00    +0.000 C 
ATOM     19  C   UNL     1      -4.072  12.582  21.990  0.00  0.00    +0.000 C 
ATOM     20  N   UNL     1      -3.920  13.946  21.434  0.00  0.00    +0.000 NA
ATOM     21  C   UNL     1      -4.384  14.492  22.735  0.00  0.00    +0.000 C 
BRANCH  18  23
ATOM     22  O   UNL     1      -6.042  12.102  24.267  0.00  0.00    +0.000 OA
ATOM     23  C   UNL     1      -4.929  12.563  24.473  0.00  0.00    +0.000 C 
BRANCH  23  24
ATOM     24  O   UNL     1      -4.423  12.612  25.740  0.00  0.00    +0.000 OA
ATOM     25  H   UNL     1      -4.342  11.739  26.172  0.00  0.00    +0.000 HD
ENDBRANCH  23  24
ENDBRANCH  18  23
ENDBRANCH  17  20
ENDBRANCH  10  17
ENDBRANCH   1  13
BRANCH   6  26
ATOM     26  C   UNL     1       4.289   4.959  18.107  0.00  0.00    +0.000 C 
ATOM     27  C   UNL     1       4.028   3.441  18.122  0.00  0.00    +0.000 C 
ATOM     28  C   UNL     1       3.793   4.216  16.868  0.00  0.00    +0.000 C 
BRANCH  26  29
ATOM     29  C   UNL     1       5.770   5.346  18.134  0.00  0.00    +0.000 A 
ATOM     30  C   UNL     1       6.288   6.201  17.155  0.00  0.00    +0.000 A 
ATOM     31  C   UNL     1       7.470   6.891  17.405  0.00  0.00    +0.000 A 
ATOM     32  C   UNL     1       8.142   6.668  18.597  0.00  0.00    +0.000 A 
ATOM     33  C   UNL     1       7.640   5.712  19.459  0.00  0.00    +0.000 A 
ATOM     34  N   UNL     1       6.483   5.049  19.251  0.00  0.00    +0.000 NA
ENDBRANCH  26  29
ENDBRANCH   6  26
TORSDOF 7
ENDMDL
MODEL 7
REMARK VINA RESULT:      -8.6      0.815      1.182
REMARK  Name = 
REMARK  7 active torsions:
REMARK  status: ('A' for Active; 'I' for Inactive)
REMARK    1  A    between atoms: C_2  and  O_3
REMARK    2  A    between atoms: C_2  and  C_4
REMARK    3  A    between atoms: N_6  and  C_7
REMARK    4  A    between atoms: C_7  and  C_8
REMARK    5  A    between atoms: C_11  and  C_12
REMARK    6  A    between atoms: C_17  and  C_18
REMARK    7  A    between atoms: C_18  and  C_19
REMARK                            x       y       z     vdW  Elec       q    Type
REMARK                         _______ _______ _______ _____ _____    ______ ____
ROOT
ATOM      1  C   UNL     1       1.425   8.417  20.155  0.00  0.00    +0.000 A 
ATOM      2  N   UNL     1       0.921   8.241  21.363  0.00  0.00    +0.000 NA
ATOM      3  C   UNL     1       0.236   9.379  21.757  0.00  0.00    +0.000 A 
ATOM      4  C   UNL     1      -0.415   9.593  22.987  0.00  0.00    +0.000 A 
ATOM      5  C   UNL     1      -1.061  10.822  23.220  0.00  0.00    +0.000 A 
ATOM      6  C   UNL     1      -1.088  11.844  22.258  0.00  0.00    +0.000 A 
ATOM      7  C   UNL     1      -0.436  11.615  21.039  0.00  0.00    +0.000 A 
ATOM      8  C   UNL     1       0.205  10.396  20.811  0.00  0.00    +0.000 A 
ATOM      9  S   UNL     1       1.029   9.905  19.401  0.00  0.00    +0.000 S 
ENDROOT
BRANCH   1  13
ATOM     10  C   UNL     1       3.666   5.519  17.953  0.00  0.00    +0.000 A 
ATOM     11  C   UNL     1       3.610   6.858  17.536  0.00  0.00    +0.000 A 
ATOM     12  C   UNL     1       2.870   7.786  18.261  0.00  0.00    +0.000 A 
ATOM     13  C   UNL     1       2.177   7.404  19.416  0.00  0.00    +0.000 A 
ATOM     14  C   UNL     1       2.227   6.059  19.813  0.00  0.00    +0.000 A 
ATOM     15  F   UNL     1       1.536   5.618  20.876  0.00  0.00    +0.000 F 
ATOM     16  C   UNL     1       2.972   5.127  19.103  0.00  0.00    +0.000 A 
BRANCH  10  17
ATOM     17  C   UNL     1       4.405   4.502  17.114  0.00  0.00    +0.000 C 
BRANCH  17  20
ATOM     18  C   UNL     1       5.861   4.284  14.614  0.00  0.00    +0.000 C 
ATOM     19  C   UNL     1       6.511   3.981  15.974  0.00  0.00    +0.000 C 
ATOM     20  N   UNL     1       5.680   5.034  16.601  0.00  0.00    +0.000 NA
ATOM     21  C   UNL     1       5.497   5.642  15.258  0.00  0.00    +0.000 C 
BRANCH  18  23
ATOM     22  O   UNL     1       7.549   5.153  13.052  0.00  0.00    +0.000 OA
ATOM     23  C   UNL     1       6.767   4.272  13.375  0.00  0.00    +0.000 C 
BRANCH  23  24
ATOM     24  O   UNL     1       6.612   3.163  12.594  0.00  0.00    +0.000 OA
ATOM     25  H   UNL     1       6.169   2.417  13.043  0.00  0.00    +0.000 HD
ENDBRANCH  23  24
ENDBRANCH  18  23
ENDBRANCH  17  20
ENDBRANCH  10  17
ENDBRANCH   1  13
BRANCH   6  26
ATOM     26  C   UNL     1      -1.807  13.168  22.473  0.00  0.00    +0.000 C 
ATOM     27  C   UNL     1      -1.396  13.999  23.702  0.00  0.00    +0.000 C 
ATOM     28  C   UNL     1      -1.004  14.460  22.337  0.00  0.00    +0.000 C 
BRANCH  26  29
ATOM     29  C   UNL     1      -3.298  13.242  22.130  0.00  0.00    +0.000 A 
ATOM     30  C   UNL     1      -3.712  13.199  20.794  0.00  0.00    +0.000 A 
ATOM     31  C   UNL     1      -5.019  12.831  20.494  0.00  0.00    +0.000 A 
ATOM     32  C   UNL     1      -5.902  12.575  21.532  0.00  0.00    +0.000 A 
ATOM     33  C   UNL     1      -5.459  12.765  22.826  0.00  0.00    +0.000 A 
ATOM     34  N   UNL     1      -4.191  13.096  23.143  0.00  0.00    +0.000 NA
ENDBRANCH  26  29
ENDBRANCH   6  26
TORSDOF 7
ENDMDL
MODEL 8
REMARK VINA RESULT:      -8.6      5.456     11.891
REMARK  Name = 
REMARK  7 active torsions:
REMARK  status: ('A' for Active; 'I' for Inactive)
REMARK    1  A    between atoms: C_2  and  O_3
REMARK    2  A    between atoms: C_2  and  C_4
REMARK    3  A    between atoms: N_6  and  C_7
REMARK    4  A    between atoms: C_7  and  C_8
REMARK    5  A    between atoms: C_11  and  C_12
REMARK    6  A    between atoms: C_17  and  C_18
REMARK    7  A    between atoms: C_18  and  C_19
REMARK                            x       y       z     vdW  Elec       q    Type
REMARK                         _______ _______ _______ _____ _____    ______ ____
ROOT
ATOM      1  C   UNL     1       0.476   9.386  20.321  0.00  0.00    +0.000 A 
ATOM      2  N   UNL     1       0.619   8.300  21.058  0.00  0.00    +0.000 NA
ATOM      3  C   UNL     1       1.481   7.415  20.431  0.00  0.00    +0.000 A 
ATOM      4  C   UNL     1       1.864   6.138  20.884  0.00  0.00    +0.000 A 
ATOM      5  C   UNL     1       2.752   5.369  20.109  0.00  0.00    +0.000 A 
ATOM      6  C   UNL     1       3.281   5.838  18.896  0.00  0.00    +0.000 A 
ATOM      7  C   UNL     1       2.891   7.111  18.459  0.00  0.00    +0.000 A 
ATOM      8  C   UNL     1       2.009   7.871  19.230  0.00  0.00    +0.000 A 
ATOM      9  S   UNL     1       1.430   9.440  18.898  0.00  0.00    +0.000 S 
ENDROOT
BRANCH   1  13
ATOM     10  C   UNL     1      -1.837  12.786  21.488  0.00  0.00    +0.000 A 
ATOM     11  C   UNL     1      -0.847  12.260  22.334  0.00  0.00    +0.000 A 
ATOM     12  C   UNL     1      -0.109  11.148  21.941  0.00  0.00    +0.000 A 
ATOM     13  C   UNL     1      -0.335  10.542  20.699  0.00  0.00    +0.000 A 
ATOM     14  C   UNL     1      -1.339  11.067  19.870  0.00  0.00    +0.000 A 
ATOM     15  F   UNL     1      -1.645  10.493  18.696  0.00  0.00    +0.000 F 
ATOM     16  C   UNL     1      -2.073  12.182  20.249  0.00  0.00    +0.000 A 
BRANCH  10  17
ATOM     17  C   UNL     1      -2.688  13.943  21.958  0.00  0.00    +0.000 C 
BRANCH  17  20
ATOM     18  C   UNL     1      -5.234  13.242  23.160  0.00  0.00    +0.000 C 
ATOM     19  C   UNL     1      -4.431  14.480  23.595  0.00  0.00    +0.000 C 
ATOM     20  N   UNL     1      -3.171  13.747  23.337  0.00  0.00    +0.000 NA
ATOM     21  C   UNL     1      -3.926  12.473  23.456  0.00  0.00    +0.000 C 
BRANCH  18  23
ATOM     22  O   UNL     1      -6.990  11.783  24.072  0.00  0.00    +0.000 OA
ATOM     23  C   UNL     1      -6.495  12.895  23.963  0.00  0.00    +0.000 C 
BRANCH  23  24
ATOM     24  O   UNL     1      -7.081  13.975  24.557  0.00  0.00    +0.000 OA
ATOM     25  H   UNL     1      -6.936  14.818  24.085  0.00  0.00    +0.000 HD
ENDBRANCH  23  24
ENDBRANCH  18  23
ENDBRANCH  17  20
ENDBRANCH  10  17
ENDBRANCH   1  13
BRANCH   6  26
ATOM     26  C   UNL     1       4.268   5.040  18.057  0.00  0.00    +0.000 C 
ATOM     27  C   UNL     1       4.042   3.519  17.965  0.00  0.00    +0.000 C 
ATOM     28  C   UNL     1       3.762   4.378  16.776  0.00  0.00    +0.000 C 
BRANCH  26  29
ATOM     29  C   UNL     1       5.740   5.459  18.082  0.00  0.00    +0.000 A 
ATOM     30  C   UNL     1       6.222   6.380  17.145  0.00  0.00    +0.000 A 
ATOM     31  C   UNL     1       7.392   7.083  17.414  0.00  0.00    +0.000 A 
ATOM     32  C   UNL     1       8.089   6.809  18.581  0.00  0.00    +0.000 A 
ATOM     33  C   UNL     1       7.624   5.795  19.395  0.00  0.00    +0.000 A 
ATOM     34  N   UNL     1       6.480   5.117  19.169  0.00  0.00    +0.000 NA
ENDBRANCH  26  29
ENDBRANCH   6  26
TORSDOF 7
ENDMDL
MODEL 9
REMARK VINA RESULT:      -8.6      5.357     12.094
REMARK  Name = 
REMARK  7 active torsions:
REMARK  status: ('A' for Active; 'I' for Inactive)
REMARK    1  A    between atoms: C_2  and  O_3
REMARK    2  A    between atoms: C_2  and  C_4
REMARK    3  A    between atoms: N_6  and  C_7
REMARK    4  A    between atoms: C_7  and  C_8
REMARK    5  A    between atoms: C_11  and  C_12
REMARK    6  A    between atoms: C_17  and  C_18
REMARK    7  A    between atoms: C_18  and  C_19
REMARK                            x       y       z     vdW  Elec       q    Type
REMARK                         _______ _______ _______ _____ _____    ______ ____
ROOT
ATOM      1  C   UNL     1       0.469   9.696  20.605  0.00  0.00    +0.000 A 
ATOM      2  N   UNL     1       1.050   9.859  19.430  0.00  0.00    +0.000 NA
ATOM      3  C   UNL     1       1.760   8.717  19.094  0.00  0.00    +0.000 A 
ATOM      4  C   UNL     1       2.535   8.511  17.936  0.00  0.00    +0.000 A 
ATOM      5  C   UNL     1       3.196   7.281  17.760  0.00  0.00    +0.000 A 
ATOM      6  C   UNL     1       3.101   6.242  18.700  0.00  0.00    +0.000 A 
ATOM      7  C   UNL     1       2.326   6.463  19.846  0.00  0.00    +0.000 A 
ATOM      8  C   UNL     1       1.671   7.684  20.018  0.00  0.00    +0.000 A 
ATOM      9  S   UNL     1       0.665   8.148  21.315  0.00  0.00    +0.000 S 
ENDROOT
BRANCH   1  13
ATOM     10  C   UNL     1      -2.077  12.616  22.409  0.00  0.00    +0.000 A 
ATOM     11  C   UNL     1      -1.859  12.606  21.022  0.00  0.00    +0.000 A 
ATOM     12  C   UNL     1      -1.022  11.652  20.453  0.00  0.00    +0.000 A 
ATOM     13  C   UNL     1      -0.391  10.688  21.249  0.00  0.00    +0.000 A 
ATOM     14  C   UNL     1      -0.603  10.720  22.635  0.00  0.00    +0.000 A 
ATOM     15  F   UNL     1       0.022   9.862  23.457  0.00  0.00    +0.000 F 
ATOM     16  C   UNL     1      -1.445  11.661  23.212  0.00  0.00    +0.000 A 
BRANCH  10  17
ATOM     17  C   UNL     1      -2.924  13.705  23.027  0.00  0.00    +0.000 C 
BRANCH  17  20
ATOM     18  C   UNL     1      -5.628  13.055  23.854  0.00  0.00    +0.000 C 
ATOM     19  C   UNL     1      -5.020  12.532  22.542  0.00  0.00    +0.000 C 
ATOM     20  N   UNL     1      -4.254  13.792  22.400  0.00  0.00    +0.000 NA
ATOM     21  C   UNL     1      -5.227  14.447  23.311  0.00  0.00    +0.000 C 
BRANCH  18  23
ATOM     22  O   UNL     1      -7.915  13.533  24.619  0.00  0.00    +0.000 OA
ATOM     23  C   UNL     1      -7.111  12.762  24.116  0.00  0.00    +0.000 C 
BRANCH  23  24
ATOM     24  O   UNL     1      -7.492  11.500  23.759  0.00  0.00    +0.000 OA
ATOM     25  H   UNL     1      -6.808  10.999  23.274  0.00  0.00    +0.000 HD
ENDBRANCH  23  24
ENDBRANCH  18  23
ENDBRANCH  17  20
ENDBRANCH  10  17
ENDBRANCH   1  13
BRANCH   6  26
ATOM     26  C   UNL     1       3.779   4.892  18.516  0.00  0.00    +0.000 C 
ATOM     27  C   UNL     1       3.879   3.982  19.754  0.00  0.00    +0.000 C 
ATOM     28  C   UNL     1       2.930   3.630  18.656  0.00  0.00    +0.000 C 
BRANCH  26  29
ATOM     29  C   UNL     1       4.984   4.812  17.574  0.00  0.00    +0.000 A 
ATOM     30  C   UNL     1       4.835   4.278  16.290  0.00  0.00    +0.000 A 
ATOM     31  C   UNL     1       5.766   4.591  15.305  0.00  0.00    +0.000 A 
ATOM     32  C   UNL     1       6.858   5.379  15.637  0.00  0.00    +0.000 A 
ATOM     33  C   UNL     1       7.009   5.761  16.956  0.00  0.00    +0.000 A 
ATOM     34  N   UNL     1       6.108   5.492  17.922  0.00  0.00    +0.000 NA
ENDBRANCH  26  29
ENDBRANCH   6  26
TORSDOF 7
ENDMDL
