MODEL 1
REMARK VINA RESULT:      -7.9      0.000      0.000
REMARK  Name = 
REMARK  4 active torsions:
REMARK  status: ('A' for Active; 'I' for Inactive)
REMARK    1  A    between atoms: C_2  and  C_3
REMARK    2  A    between atoms: C_6  and  C_7
REMARK    3  A    between atoms: C_13  and  C_14
REMARK    4  A    between atoms: C_14  and  C_15
REMARK                            x       y       z     vdW  Elec       q    Type
REMARK                         _______ _______ _______ _____ _____    ______ ____
ROOT
ATOM      1  C   UNL     1       7.999   8.349  18.268  0.00  0.00    +0.000 A 
ATOM      2  N   UNL     1       8.515   7.433  19.108  0.00  0.00    +0.000 NA
ATOM      3  C   UNL     1       8.006   6.191  19.095  0.00  0.00    +0.000 A 
ATOM      4  N   UNL     1       8.569   5.270  19.967  0.00  0.00    +0.000 N 
ATOM      5  C   UNL     1       6.963   5.882  18.210  0.00  0.00    +0.000 A 
ATOM      6  C   UNL     1       6.240   4.676  17.916  0.00  0.00    +0.000 A 
ATOM      7  C   UNL     1       5.304   4.838  16.912  0.00  0.00    +0.000 A 
ATOM      8  S   UNL     1       5.239   6.468  16.386  0.00  0.00    +0.000 S 
ATOM      9  C   UNL     1       6.509   6.927  17.423  0.00  0.00    +0.000 A 
ATOM     10  N   UNL     1       6.978   8.185  17.414  0.00  0.00    +0.000 NA
ATOM     11  H   UNL     1       9.112   5.732  20.689  0.00  0.00    +0.000 HD
ATOM     12  H   UNL     1       7.976   4.511  20.262  0.00  0.00    +0.000 HD
ENDROOT
BRANCH   1  16
ATOM     13  C   UNL     1      10.187  11.110  18.805  0.00  0.00    +0.000 A 
ATOM     14  C   UNL     1       9.381  11.762  17.902  0.00  0.00    +0.000 A 
ATOM     15  C   UNL     1       8.380  10.827  17.533  0.00  0.00    +0.000 A 
ATOM     16  C   UNL     1       8.636   9.661  18.234  0.00  0.00    +0.000 A 
ATOM     17  O   UNL     1       9.747   9.842  19.021  0.00  0.00    +0.000 OA
BRANCH  13  19
ATOM     18  N   UNL     1      12.306  11.850  20.076  0.00  0.00    +0.000 NA
ATOM     19  C   UNL     1      11.347  11.533  19.508  0.00  0.00    +0.000 C 
ENDBRANCH  13  19
ENDBRANCH   1  16
BRANCH   7  20
ATOM     20  C   UNL     1       4.381   3.811  16.323  0.00  0.00    +0.000 C 
BRANCH  20  21
ATOM     21  C   UNL     1       3.238   3.401  17.227  0.00  0.00    +0.000 A 
ATOM     22  C   UNL     1       3.155   2.095  17.732  0.00  0.00    +0.000 A 
ATOM     23  C   UNL     1       2.168   1.754  18.660  0.00  0.00    +0.000 A 
ATOM     24  C   UNL     1       1.248   2.710  19.086  0.00  0.00    +0.000 A 
ATOM     25  C   UNL     1       1.292   3.999  18.557  0.00  0.00    +0.000 A 
ATOM     26  C   UNL     1       2.275   4.340  17.625  0.00  0.00    +0.000 A 
ENDBRANCH  20  21
ENDBRANCH   7  20
TORSDOF 4
ENDMDL
MODEL 2
REMARK VINA RESULT:      -7.7      5.027      6.917
REMARK  Name = 
REMARK  4 active torsions:
REMARK  status: ('A' for Active; 'I' for Inactive)
REMARK    1  A    between atoms: C_2  and  C_3
REMARK    2  A    between atoms: C_6  and  C_7
REMARK    3  A    between atoms: C_13  and  C_14
REMARK    4  A    between atoms: C_14  and  C_15
REMARK                            x       y       z     vdW  Elec       q    Type
REMARK                         _______ _______ _______ _____ _____    ______ ____
ROOT
ATOM      1  C   UNL     1       2.377   7.604  18.813  0.00  0.00    +0.000 A 
ATOM      2  N   UNL     1       2.273   6.539  19.630  0.00  0.00    +0.000 NA
ATOM      3  C   UNL     1       3.104   5.502  19.444  0.00  0.00    +0.000 A 
ATOM      4  N   UNL     1       2.974   4.426  20.310  0.00  0.00    +0.000 N 
ATOM      5  C   UNL     1       4.055   5.557  18.414  0.00  0.00    +0.000 A 
ATOM      6  C   UNL     1       5.095   4.667  17.981  0.00  0.00    +0.000 A 
ATOM      7  C   UNL     1       5.834   5.170  16.926  0.00  0.00    +0.000 A 
ATOM      8  S   UNL     1       5.213   6.680  16.403  0.00  0.00    +0.000 S 
ATOM      9  C   UNL     1       4.033   6.699  17.631  0.00  0.00    +0.000 A 
ATOM     10  N   UNL     1       3.212   7.751  17.774  0.00  0.00    +0.000 NA
ATOM     11  H   UNL     1       2.087   4.456  20.802  0.00  0.00    +0.000 HD
ATOM     12  H   UNL     1       3.269   3.529  19.959  0.00  0.00    +0.000 HD
ENDROOT
BRANCH   1  16
ATOM     13  C   UNL     1       0.471  10.131  20.449  0.00  0.00    +0.000 A 
ATOM     14  C   UNL     1       0.254  10.612  19.179  0.00  0.00    +0.000 A 
ATOM     15  C   UNL     1       0.936   9.724  18.309  0.00  0.00    +0.000 A 
ATOM     16  C   UNL     1       1.528   8.755  19.101  0.00  0.00    +0.000 A 
ATOM     17  O   UNL     1       1.234   9.007  20.418  0.00  0.00    +0.000 OA
BRANCH  13  19
ATOM     18  N   UNL     1      -0.272  10.987  22.767  0.00  0.00    +0.000 NA
ATOM     19  C   UNL     1       0.046  10.604  21.720  0.00  0.00    +0.000 C 
ENDBRANCH  13  19
ENDBRANCH   1  16
BRANCH   7  20
ATOM     20  C   UNL     1       7.002   4.544  16.222  0.00  0.00    +0.000 C 
BRANCH  20  21
ATOM     21  C   UNL     1       6.874   4.493  14.714  0.00  0.00    +0.000 A 
ATOM     22  C   UNL     1       7.724   5.251  13.895  0.00  0.00    +0.000 A 
ATOM     23  C   UNL     1       7.683   5.109  12.505  0.00  0.00    +0.000 A 
ATOM     24  C   UNL     1       6.786   4.217  11.920  0.00  0.00    +0.000 A 
ATOM     25  C   UNL     1       5.905   3.492  12.721  0.00  0.00    +0.000 A 
ATOM     26  C   UNL     1       5.941   3.636  14.109  0.00  0.00    +0.000 A 
ENDBRANCH  20  21
ENDBRANCH   7  20
TORSDOF 4
ENDMDL
MODEL 3
REMARK VINA RESULT:      -7.7      5.316      7.449
REMARK  Name = 
REMARK  4 active torsions:
REMARK  status: ('A' for Active; 'I' for Inactive)
REMARK    1  A    between atoms: C_2  and  C_3
REMARK    2  A    between atoms: C_6  and  C_7
REMARK    3  A    between atoms: C_13  and  C_14
REMARK    4  A    between atoms: C_14  and  C_15
REMARK                            x       y       z     vdW  Elec       q    Type
REMARK                         _______ _______ _______ _____ _____    ______ ____
ROOT
ATOM      1  C   UNL     1       3.791   5.994  17.837  0.00  0.00    +0.000 A 
ATOM      2  N   UNL     1       3.433   5.458  19.019  0.00  0.00    +0.000 NA
ATOM      3  C   UNL     1       2.639   6.170  19.834  0.00  0.00    +0.000 A 
ATOM      4  N   UNL     1       2.282   5.583  21.039  0.00  0.00    +0.000 N 
ATOM      5  C   UNL     1       2.203   7.442  19.433  0.00  0.00    +0.000 A 
ATOM      6  C   UNL     1       1.338   8.422  20.026  0.00  0.00    +0.000 A 
ATOM      7  C   UNL     1       1.155   9.537  19.228  0.00  0.00    +0.000 A 
ATOM      8  S   UNL     1       2.101   9.435  17.802  0.00  0.00    +0.000 S 
ATOM      9  C   UNL     1       2.671   7.882  18.207  0.00  0.00    +0.000 A 
ATOM     10  N   UNL     1       3.475   7.210  17.368  0.00  0.00    +0.000 NA
ATOM     11  H   UNL     1       2.889   4.799  21.259  0.00  0.00    +0.000 HD
ATOM     12  H   UNL     1       2.058   6.209  21.795  0.00  0.00    +0.000 HD
ENDROOT
BRANCH   1  16
ATOM     13  C   UNL     1       6.101   4.826  15.388  0.00  0.00    +0.000 A 
ATOM     14  C   UNL     1       5.626   3.578  15.719  0.00  0.00    +0.000 A 
ATOM     15  C   UNL     1       4.640   3.792  16.715  0.00  0.00    +0.000 A 
ATOM     16  C   UNL     1       4.572   5.158  16.932  0.00  0.00    +0.000 A 
ATOM     17  O   UNL     1       5.470   5.790  16.109  0.00  0.00    +0.000 OA
BRANCH  13  19
ATOM     18  N   UNL     1       7.927   5.552  13.718  0.00  0.00    +0.000 NA
ATOM     19  C   UNL     1       7.097   5.239  14.463  0.00  0.00    +0.000 C 
ENDBRANCH  13  19
ENDBRANCH   1  16
BRANCH   7  20
ATOM     20  C   UNL     1       0.314  10.749  19.497  0.00  0.00    +0.000 C 
BRANCH  20  21
ATOM     21  C   UNL     1      -0.992  10.791  18.732  0.00  0.00    +0.000 A 
ATOM     22  C   UNL     1      -1.215   9.933  17.645  0.00  0.00    +0.000 A 
ATOM     23  C   UNL     1      -2.464   9.891  17.019  0.00  0.00    +0.000 A 
ATOM     24  C   UNL     1      -3.498  10.712  17.464  0.00  0.00    +0.000 A 
ATOM     25  C   UNL     1      -3.274  11.602  18.514  0.00  0.00    +0.000 A 
ATOM     26  C   UNL     1      -2.026  11.649  19.138  0.00  0.00    +0.000 A 
ENDBRANCH  20  21
ENDBRANCH   7  20
TORSDOF 4
ENDMDL
MODEL 4
REMARK VINA RESULT:      -7.6      5.771      7.760
REMARK  Name = 
REMARK  4 active torsions:
REMARK  status: ('A' for Active; 'I' for Inactive)
REMARK    1  A    between atoms: C_2  and  C_3
REMARK    2  A    between atoms: C_6  and  C_7
REMARK    3  A    between atoms: C_13  and  C_14
REMARK    4  A    between atoms: C_14  and  C_15
REMARK                            x       y       z     vdW  Elec       q    Type
REMARK                         _______ _______ _______ _____ _____    ______ ____
ROOT
ATOM      1  C   UNL     1       0.987   8.993  20.666  0.00  0.00    +0.000 A 
ATOM      2  N   UNL     1       1.257   9.615  19.503  0.00  0.00    +0.000 NA
ATOM      3  C   UNL     1       1.897   8.931  18.541  0.00  0.00    +0.000 A 
ATOM      4  N   UNL     1       2.150   9.600  17.353  0.00  0.00    +0.000 N 
ATOM      5  C   UNL     1       2.260   7.595  18.771  0.00  0.00    +0.000 A 
ATOM      6  C   UNL     1       2.897   6.592  17.965  0.00  0.00    +0.000 A 
ATOM      7  C   UNL     1       3.012   5.373  18.609  0.00  0.00    +0.000 A 
ATOM      8  S   UNL     1       2.429   5.469  20.218  0.00  0.00    +0.000 S 
ATOM      9  C   UNL     1       1.947   7.091  20.022  0.00  0.00    +0.000 A 
ATOM     10  N   UNL     1       1.322   7.742  21.015  0.00  0.00    +0.000 NA
ATOM     11  H   UNL     1       2.054  10.604  17.469  0.00  0.00    +0.000 HD
ATOM     12  H   UNL     1       2.940   9.280  16.816  0.00  0.00    +0.000 HD
ENDROOT
BRANCH   1  16
ATOM     13  C   UNL     1      -0.678  11.556  22.499  0.00  0.00    +0.000 A 
ATOM     14  C   UNL     1      -1.104  10.526  23.305  0.00  0.00    +0.000 A 
ATOM     15  C   UNL     1      -0.535   9.348  22.759  0.00  0.00    +0.000 A 
ATOM     16  C   UNL     1       0.205   9.729  21.653  0.00  0.00    +0.000 A 
ATOM     17  O   UNL     1       0.118  11.090  21.500  0.00  0.00    +0.000 OA
BRANCH  13  19
ATOM     18  N   UNL     1      -1.164  14.087  22.587  0.00  0.00    +0.000 NA
ATOM     19  C   UNL     1      -0.929  12.953  22.545  0.00  0.00    +0.000 C 
ENDBRANCH  13  19
ENDBRANCH   1  16
BRANCH   7  20
ATOM     20  C   UNL     1       3.597   4.094  18.086  0.00  0.00    +0.000 C 
BRANCH  20  21
ATOM     21  C   UNL     1       4.887   4.263  17.313  0.00  0.00    +0.000 A 
ATOM     22  C   UNL     1       4.897   4.204  15.911  0.00  0.00    +0.000 A 
ATOM     23  C   UNL     1       6.067   4.480  15.197  0.00  0.00    +0.000 A 
ATOM     24  C   UNL     1       7.240   4.805  15.876  0.00  0.00    +0.000 A 
ATOM     25  C   UNL     1       7.253   4.822  17.270  0.00  0.00    +0.000 A 
ATOM     26  C   UNL     1       6.087   4.542  17.985  0.00  0.00    +0.000 A 
ENDBRANCH  20  21
ENDBRANCH   7  20
TORSDOF 4
ENDMDL
MODEL 5
REMARK VINA RESULT:      -7.5      5.973      7.841
REMARK  Name = 
REMARK  4 active torsions:
REMARK  status: ('A' for Active; 'I' for Inactive)
REMARK    1  A    between atoms: C_2  and  C_3
REMARK    2  A    between atoms: C_6  and  C_7
REMARK    3  A    between atoms: C_13  and  C_14
REMARK    4  A    between atoms: C_14  and  C_15
REMARK                            x       y       z     vdW  Elec       q    Type
REMARK                         _______ _______ _______ _____ _____    ______ ____
ROOT
ATOM      1  C   UNL     1       0.851   9.322  20.735  0.00  0.00    +0.000 A 
ATOM      2  N   UNL     1       1.132   9.916  19.560  0.00  0.00    +0.000 NA
ATOM      3  C   UNL     1       1.769   9.205  18.616  0.00  0.00    +0.000 A 
ATOM      4  N   UNL     1       2.033   9.846  17.414  0.00  0.00    +0.000 N 
ATOM      5  C   UNL     1       2.117   7.871  18.875  0.00  0.00    +0.000 A 
ATOM      6  C   UNL     1       2.746   6.844  18.093  0.00  0.00    +0.000 A 
ATOM      7  C   UNL     1       2.845   5.639  18.763  0.00  0.00    +0.000 A 
ATOM      8  S   UNL     1       2.258   5.774  20.367  0.00  0.00    +0.000 S 
ATOM      9  C   UNL     1       1.794   7.397  20.135  0.00  0.00    +0.000 A 
ATOM     10  N   UNL     1       1.171   8.076  21.111  0.00  0.00    +0.000 NA
ATOM     11  H   UNL     1       1.947  10.853  17.509  0.00  0.00    +0.000 HD
ATOM     12  H   UNL     1       2.822   9.507  16.888  0.00  0.00    +0.000 HD
ENDROOT
BRANCH   1  16
ATOM     13  C   UNL     1      -0.753  11.947  22.534  0.00  0.00    +0.000 A 
ATOM     14  C   UNL     1      -1.248  10.933  23.321  0.00  0.00    +0.000 A 
ATOM     15  C   UNL     1      -0.715   9.733  22.785  0.00  0.00    +0.000 A 
ATOM     16  C   UNL     1       0.073  10.087  21.703  0.00  0.00    +0.000 A 
ATOM     17  O   UNL     1       0.051  11.452  21.556  0.00  0.00    +0.000 OA
BRANCH  13  19
ATOM     18  N   UNL     1      -1.074  14.504  22.635  0.00  0.00    +0.000 NA
ATOM     19  C   UNL     1      -0.945  13.354  22.581  0.00  0.00    +0.000 C 
ENDBRANCH  13  19
ENDBRANCH   1  16
BRANCH   7  20
ATOM     20  C   UNL     1       3.419   4.343  18.270  0.00  0.00    +0.000 C 
BRANCH  20  21
ATOM     21  C   UNL     1       4.761   4.470  17.582  0.00  0.00    +0.000 A 
ATOM     22  C   UNL     1       5.922   4.750  18.318  0.00  0.00    +0.000 A 
ATOM     23  C   UNL     1       7.174   4.748  17.696  0.00  0.00    +0.000 A 
ATOM     24  C   UNL     1       7.278   4.478  16.333  0.00  0.00    +0.000 A 
ATOM     25  C   UNL     1       6.127   4.243  15.583  0.00  0.00    +0.000 A 
ATOM     26  C   UNL     1       4.875   4.250  16.200  0.00  0.00    +0.000 A 
ENDBRANCH  20  21
ENDBRANCH   7  20
TORSDOF 4
ENDMDL
MODEL 6
REMARK VINA RESULT:      -7.4      1.450      1.704
REMARK  Name = 
REMARK  4 active torsions:
REMARK  status: ('A' for Active; 'I' for Inactive)
REMARK    1  A    between atoms: C_2  and  C_3
REMARK    2  A    between atoms: C_6  and  C_7
REMARK    3  A    between atoms: C_13  and  C_14
REMARK    4  A    between atoms: C_14  and  C_15
REMARK                            x       y       z     vdW  Elec       q    Type
REMARK                         _______ _______ _______ _____ _____    ______ ____
ROOT
ATOM      1  C   UNL     1       7.985   8.479  18.107  0.00  0.00    +0.000 A 
ATOM      2  N   UNL     1       8.494   7.595  18.986  0.00  0.00    +0.000 NA
ATOM      3  C   UNL     1       7.993   6.349  19.008  0.00  0.00    +0.000 A 
ATOM      4  N   UNL     1       8.548   5.462  19.919  0.00  0.00    +0.000 N 
ATOM      5  C   UNL     1       6.964   6.004  18.119  0.00  0.00    +0.000 A 
ATOM      6  C   UNL     1       6.252   4.785  17.857  0.00  0.00    +0.000 A 
ATOM      7  C   UNL     1       5.330   4.906  16.834  0.00  0.00    +0.000 A 
ATOM      8  S   UNL     1       5.263   6.518  16.251  0.00  0.00    +0.000 S 
ATOM      9  C   UNL     1       6.516   7.019  17.291  0.00  0.00    +0.000 A 
ATOM     10  N   UNL     1       6.978   8.279  17.245  0.00  0.00    +0.000 NA
ATOM     11  H   UNL     1       9.078   5.953  20.632  0.00  0.00    +0.000 HD
ATOM     12  H   UNL     1       7.956   4.710  20.232  0.00  0.00    +0.000 HD
ENDROOT
BRANCH   1  16
ATOM     13  C   UNL     1       8.585  11.979  17.820  0.00  0.00    +0.000 A 
ATOM     14  C   UNL     1       9.901  11.644  18.043  0.00  0.00    +0.000 A 
ATOM     15  C   UNL     1       9.920  10.233  18.184  0.00  0.00    +0.000 A 
ATOM     16  C   UNL     1       8.615   9.793  18.038  0.00  0.00    +0.000 A 
ATOM     17  O   UNL     1       7.798  10.871  17.809  0.00  0.00    +0.000 OA
BRANCH  13  19
ATOM     18  N   UNL     1       7.418  14.248  17.438  0.00  0.00    +0.000 NA
ATOM     19  C   UNL     1       7.957  13.237  17.613  0.00  0.00    +0.000 C 
ENDBRANCH  13  19
ENDBRANCH   1  16
BRANCH   7  20
ATOM     20  C   UNL     1       4.422   3.855  16.267  0.00  0.00    +0.000 C 
BRANCH  20  21
ATOM     21  C   UNL     1       3.350   3.370  17.220  0.00  0.00    +0.000 A 
ATOM     22  C   UNL     1       3.514   2.176  17.939  0.00  0.00    +0.000 A 
ATOM     23  C   UNL     1       2.579   1.795  18.905  0.00  0.00    +0.000 A 
ATOM     24  C   UNL     1       1.466   2.595  19.156  0.00  0.00    +0.000 A 
ATOM     25  C   UNL     1       1.269   3.760  18.416  0.00  0.00    +0.000 A 
ATOM     26  C   UNL     1       2.199   4.141  17.447  0.00  0.00    +0.000 A 
ENDBRANCH  20  21
ENDBRANCH   7  20
TORSDOF 4
ENDMDL
MODEL 7
REMARK VINA RESULT:      -7.4      4.979      6.835
REMARK  Name = 
REMARK  4 active torsions:
REMARK  status: ('A' for Active; 'I' for Inactive)
REMARK    1  A    between atoms: C_2  and  C_3
REMARK    2  A    between atoms: C_6  and  C_7
REMARK    3  A    between atoms: C_13  and  C_14
REMARK    4  A    between atoms: C_14  and  C_15
REMARK                            x       y       z     vdW  Elec       q    Type
REMARK                         _______ _______ _______ _____ _____    ______ ____
ROOT
ATOM      1  C   UNL     1       2.533   7.291  19.000  0.00  0.00    +0.000 A 
ATOM      2  N   UNL     1       2.515   6.116  19.657  0.00  0.00    +0.000 NA
ATOM      3  C   UNL     1       3.362   5.149  19.269  0.00  0.00    +0.000 A 
ATOM      4  N   UNL     1       3.323   3.955  19.974  0.00  0.00    +0.000 N 
ATOM      5  C   UNL     1       4.241   5.390  18.202  0.00  0.00    +0.000 A 
ATOM      6  C   UNL     1       5.275   4.612  17.579  0.00  0.00    +0.000 A 
ATOM      7  C   UNL     1       5.926   5.291  16.565  0.00  0.00    +0.000 A 
ATOM      8  S   UNL     1       5.227   6.836  16.310  0.00  0.00    +0.000 S 
ATOM      9  C   UNL     1       4.132   6.631  17.598  0.00  0.00    +0.000 A 
ATOM     10  N   UNL     1       3.292   7.619  17.944  0.00  0.00    +0.000 NA
ATOM     11  H   UNL     1       2.470   3.879  20.519  0.00  0.00    +0.000 HD
ATOM     12  H   UNL     1       3.619   3.130  19.479  0.00  0.00    +0.000 HD
ENDROOT
BRANCH   1  16
ATOM     13  C   UNL     1       0.649   9.464  21.102  0.00  0.00    +0.000 A 
ATOM     14  C   UNL     1       0.359  10.134  19.936  0.00  0.00    +0.000 A 
ATOM     15  C   UNL     1       1.020   9.418  18.906  0.00  0.00    +0.000 A 
ATOM     16  C   UNL     1       1.672   8.354  19.506  0.00  0.00    +0.000 A 
ATOM     17  O   UNL     1       1.436   8.384  20.857  0.00  0.00    +0.000 OA
BRANCH  13  19
ATOM     18  N   UNL     1      -0.059   9.907  23.543  0.00  0.00    +0.000 NA
ATOM     19  C   UNL     1       0.274   9.715  22.450  0.00  0.00    +0.000 C 
ENDBRANCH  13  19
ENDBRANCH   1  16
BRANCH   7  20
ATOM     20  C   UNL     1       7.062   4.819  15.707  0.00  0.00    +0.000 C 
BRANCH  20  21
ATOM     21  C   UNL     1       6.653   4.343  14.329  0.00  0.00    +0.000 A 
ATOM     22  C   UNL     1       5.392   3.769  14.112  0.00  0.00    +0.000 A 
ATOM     23  C   UNL     1       4.974   3.443  12.819  0.00  0.00    +0.000 A 
ATOM     24  C   UNL     1       5.814   3.676  11.732  0.00  0.00    +0.000 A 
ATOM     25  C   UNL     1       7.087   4.204  11.940  0.00  0.00    +0.000 A 
ATOM     26  C   UNL     1       7.509   4.526  13.231  0.00  0.00    +0.000 A 
ENDBRANCH  20  21
ENDBRANCH   7  20
TORSDOF 4
ENDMDL
MODEL 8
REMARK VINA RESULT:      -7.3      8.073     10.430
REMARK  Name = 
REMARK  4 active torsions:
REMARK  status: ('A' for Active; 'I' for Inactive)
REMARK    1  A    between atoms: C_2  and  C_3
REMARK    2  A    between atoms: C_6  and  C_7
REMARK    3  A    between atoms: C_13  and  C_14
REMARK    4  A    between atoms: C_14  and  C_15
REMARK                            x       y       z     vdW  Elec       q    Type
REMARK                         _______ _______ _______ _____ _____    ______ ____
ROOT
ATOM      1  C   UNL     1       1.437   8.053  20.266  0.00  0.00    +0.000 A 
ATOM      2  N   UNL     1       1.556   8.898  19.225  0.00  0.00    +0.000 NA
ATOM      3  C   UNL     1       1.032  10.129  19.334  0.00  0.00    +0.000 A 
ATOM      4  N   UNL     1       1.182  10.977  18.246  0.00  0.00    +0.000 N 
ATOM      5  C   UNL     1       0.385  10.501  20.522  0.00  0.00    +0.000 A 
ATOM      6  C   UNL     1      -0.229  11.718  20.974  0.00  0.00    +0.000 A 
ATOM      7  C   UNL     1      -0.710  11.634  22.267  0.00  0.00    +0.000 A 
ATOM      8  S   UNL     1      -0.496  10.056  22.903  0.00  0.00    +0.000 S 
ATOM      9  C   UNL     1       0.310   9.524  21.500  0.00  0.00    +0.000 A 
ATOM     10  N   UNL     1       0.806   8.279  21.428  0.00  0.00    +0.000 NA
ATOM     11  H   UNL     1       1.435  10.459  17.410  0.00  0.00    +0.000 HD
ATOM     12  H   UNL     1       0.487  11.698  18.139  0.00  0.00    +0.000 HD
ENDROOT
BRANCH   1  16
ATOM     13  C   UNL     1       2.390   4.645  20.690  0.00  0.00    +0.000 A 
ATOM     14  C   UNL     1       3.297   4.907  19.689  0.00  0.00    +0.000 A 
ATOM     15  C   UNL     1       3.110   6.270  19.345  0.00  0.00    +0.000 A 
ATOM     16  C   UNL     1       2.100   6.758  20.157  0.00  0.00    +0.000 A 
ATOM     17  O   UNL     1       1.663   5.756  20.987  0.00  0.00    +0.000 OA
BRANCH  13  19
ATOM     18  N   UNL     1       1.865   2.508  22.035  0.00  0.00    +0.000 NA
ATOM     19  C   UNL     1       2.108   3.459  21.419  0.00  0.00    +0.000 C 
ENDBRANCH  13  19
ENDBRANCH   1  16
BRANCH   7  20
ATOM     20  C   UNL     1      -1.390  12.696  23.080  0.00  0.00    +0.000 C 
BRANCH  20  21
ATOM     21  C   UNL     1      -2.901  12.683  22.993  0.00  0.00    +0.000 A 
ATOM     22  C   UNL     1      -3.687  12.656  24.155  0.00  0.00    +0.000 A 
ATOM     23  C   UNL     1      -5.078  12.766  24.074  0.00  0.00    +0.000 A 
ATOM     24  C   UNL     1      -5.698  12.893  22.832  0.00  0.00    +0.000 A 
ATOM     25  C   UNL     1      -4.931  12.875  21.668  0.00  0.00    +0.000 A 
ATOM     26  C   UNL     1      -3.541  12.760  21.747  0.00  0.00    +0.000 A 
ENDBRANCH  20  21
ENDBRANCH   7  20
TORSDOF 4
ENDMDL
MODEL 9
REMARK VINA RESULT:      -7.3      4.957      6.977
REMARK  Name = 
REMARK  4 active torsions:
REMARK  status: ('A' for Active; 'I' for Inactive)
REMARK    1  A    between atoms: C_2  and  C_3
REMARK    2  A    between atoms: C_6  and  C_7
REMARK    3  A    between atoms: C_13  and  C_14
REMARK    4  A    between atoms: C_14  and  C_15
REMARK                            x       y       z     vdW  Elec       q    Type
REMARK                         _______ _______ _______ _____ _____    ______ ____
ROOT
ATOM      1  C   UNL     1       2.498   6.938  19.335  0.00  0.00    +0.000 A 
ATOM      2  N   UNL     1       2.362   5.692  19.823  0.00  0.00    +0.000 NA
ATOM      3  C   UNL     1       3.188   4.732  19.376  0.00  0.00    +0.000 A 
ATOM      4  N   UNL     1       3.026   3.462  19.909  0.00  0.00    +0.000 N 
ATOM      5  C   UNL     1       4.167   5.054  18.424  0.00  0.00    +0.000 A 
ATOM      6  C   UNL     1       5.209   4.301  17.784  0.00  0.00    +0.000 A 
ATOM      7  C   UNL     1       5.979   5.063  16.926  0.00  0.00    +0.000 A 
ATOM      8  S   UNL     1       5.387   6.669  16.827  0.00  0.00    +0.000 S 
ATOM      9  C   UNL     1       4.175   6.367  17.986  0.00  0.00    +0.000 A 
ATOM     10  N   UNL     1       3.361   7.353  18.395  0.00  0.00    +0.000 NA
ATOM     11  H   UNL     1       2.126   3.369  20.370  0.00  0.00    +0.000 HD
ATOM     12  H   UNL     1       3.321   2.691  19.331  0.00  0.00    +0.000 HD
ENDROOT
BRANCH   1  16
ATOM     13  C   UNL     1       0.490   9.842  19.820  0.00  0.00    +0.000 A 
ATOM     14  C   UNL     1       0.323   9.358  21.097  0.00  0.00    +0.000 A 
ATOM     15  C   UNL     1       1.073   8.156  21.155  0.00  0.00    +0.000 A 
ATOM     16  C   UNL     1       1.653   7.979  19.910  0.00  0.00    +0.000 A 
ATOM     17  O   UNL     1       1.296   9.023  19.093  0.00  0.00    +0.000 OA
BRANCH  13  19
ATOM     18  N   UNL     1      -0.447  11.929  18.629  0.00  0.00    +0.000 NA
ATOM     19  C   UNL     1      -0.023  11.001  19.178  0.00  0.00    +0.000 C 
ENDBRANCH  13  19
ENDBRANCH   1  16
BRANCH   7  20
ATOM     20  C   UNL     1       7.159   4.637  16.103  0.00  0.00    +0.000 C 
BRANCH  20  21
ATOM     21  C   UNL     1       6.877   4.502  14.622  0.00  0.00    +0.000 A 
ATOM     22  C   UNL     1       7.689   5.143  13.675  0.00  0.00    +0.000 A 
ATOM     23  C   UNL     1       7.499   4.919  12.309  0.00  0.00    +0.000 A 
ATOM     24  C   UNL     1       6.490   4.062  11.874  0.00  0.00    +0.000 A 
ATOM     25  C   UNL     1       5.647   3.455  12.804  0.00  0.00    +0.000 A 
ATOM     26  C   UNL     1       5.833   3.681  14.170  0.00  0.00    +0.000 A 
ENDBRANCH  20  21
ENDBRANCH   7  20
TORSDOF 4
ENDMDL
