MODEL 1
REMARK VINA RESULT:      -8.0      0.000      0.000
REMARK  Name = 
REMARK  6 active torsions:
REMARK  status: ('A' for Active; 'I' for Inactive)
REMARK    1  A    between atoms: C_1  and  C_2
REMARK    2  A    between atoms: C_5  and  C_6
REMARK    3  A    between atoms: C_6  and  N_7
REMARK    4  A    between atoms: C_14  and  C_15
REMARK    5  A    between atoms: N_17  and  C_18
REMARK    6  A    between atoms: N_17  and  C_19
REMARK                            x       y       z     vdW  Elec       q    Type
REMARK                         _______ _______ _______ _____ _____    ______ ____
ROOT
ATOM      1  N   UNL     1       6.863   5.814  16.429  0.00  0.00    +0.000 NA
ATOM      2  C   UNL     1       5.665   6.427  15.855  0.00  0.00    +0.000 C 
ATOM      3  C   UNL     1       4.355   5.899  16.435  0.00  0.00    +0.000 C 
ATOM      4  C   UNL     1       4.319   5.895  17.970  0.00  0.00    +0.000 C 
ATOM      5  C   UNL     1       5.656   5.513  18.630  0.00  0.00    +0.000 C 
ATOM      6  C   UNL     1       6.892   6.001  17.874  0.00  0.00    +0.000 C 
ATOM      7  O   UNL     1       3.972   7.232  18.436  0.00  0.00    +0.000 OA
ATOM      8  C   UNL     1       2.897   7.176  19.416  0.00  0.00    +0.000 C 
ATOM      9  C   UNL     1       2.447   5.756  19.410  0.00  0.00    +0.000 A 
ATOM     10  C   UNL     1       1.417   5.156  20.125  0.00  0.00    +0.000 A 
ATOM     11  C   UNL     1       1.096   3.828  19.843  0.00  0.00    +0.000 A 
ATOM     12  C   UNL     1       1.806   3.123  18.865  0.00  0.00    +0.000 A 
ATOM     13  C   UNL     1       2.879   3.721  18.200  0.00  0.00    +0.000 A 
ATOM     14  C   UNL     1       3.207   5.037  18.502  0.00  0.00    +0.000 A 
ENDROOT
BRANCH   8  15
ATOM     15  C   UNL     1       1.777   8.175  19.026  0.00  0.00    +0.000 C 
ATOM     16  O   UNL     1       1.457   8.387  17.850  0.00  0.00    +0.000 OA
ATOM     17  N   UNL     1       1.112   8.830  20.064  0.00  0.00    +0.000 N 
ATOM     18  C   UNL     1       1.289   8.538  21.482  0.00  0.00    +0.000 C 
ATOM     19  C   UNL     1       0.197   9.914  19.753  0.00  0.00    +0.000 C 
ENDBRANCH   8  15
BRANCH   1  20
ATOM     20  C   UNL     1       7.140   4.445  15.955  0.00  0.00    +0.000 C 
BRANCH  20  25
ATOM     21  C   UNL     1       5.216   2.821  11.745  0.00  0.00    +0.000 C 
ATOM     22  C   UNL     1       6.115   3.654  12.573  0.00  0.00    +0.000 A 
ATOM     23  C   UNL     1       7.108   4.544  12.230  0.00  0.00    +0.000 A 
ATOM     24  C   UNL     1       7.704   4.957  13.438  0.00  0.00    +0.000 A 
ATOM     25  C   UNL     1       6.991   4.364  14.462  0.00  0.00    +0.000 A 
ATOM     26  O   UNL     1       6.017   3.553  13.936  0.00  0.00    +0.000 OA
ENDBRANCH  20  25
ENDBRANCH   1  20
TORSDOF 3
ENDMDL
MODEL 2
REMARK VINA RESULT:      -7.9      0.846      1.238
REMARK  Name = 
REMARK  6 active torsions:
REMARK  status: ('A' for Active; 'I' for Inactive)
REMARK    1  A    between atoms: C_1  and  C_2
REMARK    2  A    between atoms: C_5  and  C_6
REMARK    3  A    between atoms: C_6  and  N_7
REMARK    4  A    between atoms: C_14  and  C_15
REMARK    5  A    between atoms: N_17  and  C_18
REMARK    6  A    between atoms: N_17  and  C_19
REMARK                            x       y       z     vdW  Elec       q    Type
REMARK                         _______ _______ _______ _____ _____    ______ ____
ROOT
ATOM      1  N   UNL     1       6.865   5.777  17.157  0.00  0.00    +0.000 NA
ATOM      2  C   UNL     1       5.731   6.451  16.526  0.00  0.00    +0.000 C 
ATOM      3  C   UNL     1       4.368   5.920  16.962  0.00  0.00    +0.000 C 
ATOM      4  C   UNL     1       4.204   5.823  18.486  0.00  0.00    +0.000 C 
ATOM      5  C   UNL     1       5.474   5.371  19.229  0.00  0.00    +0.000 C 
ATOM      6  C   UNL     1       6.777   5.876  18.609  0.00  0.00    +0.000 C 
ATOM      7  O   UNL     1       3.843   7.138  19.004  0.00  0.00    +0.000 OA
ATOM      8  C   UNL     1       2.688   7.047  19.886  0.00  0.00    +0.000 C 
ATOM      9  C   UNL     1       2.216   5.641  19.755  0.00  0.00    +0.000 A 
ATOM     10  C   UNL     1       1.118   5.023  20.344  0.00  0.00    +0.000 A 
ATOM     11  C   UNL     1       0.798   3.722  19.955  0.00  0.00    +0.000 A 
ATOM     12  C   UNL     1       1.575   3.062  18.996  0.00  0.00    +0.000 A 
ATOM     13  C   UNL     1       2.711   3.674  18.461  0.00  0.00    +0.000 A 
ATOM     14  C   UNL     1       3.035   4.961  18.869  0.00  0.00    +0.000 A 
ENDROOT
BRANCH   8  15
ATOM     15  C   UNL     1       1.624   8.094  19.468  0.00  0.00    +0.000 C 
ATOM     16  O   UNL     1       1.292   8.268  18.289  0.00  0.00    +0.000 OA
ATOM     17  N   UNL     1       1.023   8.839  20.484  0.00  0.00    +0.000 N 
ATOM     18  C   UNL     1       1.212   8.605  21.911  0.00  0.00    +0.000 C 
ATOM     19  C   UNL     1       0.169   9.960  20.137  0.00  0.00    +0.000 C 
ENDBRANCH   8  15
BRANCH   1  20
ATOM     20  C   UNL     1       7.156   4.433  16.624  0.00  0.00    +0.000 C 
BRANCH  20  25
ATOM     21  C   UNL     1       8.116   5.887  12.038  0.00  0.00    +0.000 C 
ATOM     22  C   UNL     1       7.460   5.053  13.069  0.00  0.00    +0.000 A 
ATOM     23  C   UNL     1       6.498   4.073  12.974  0.00  0.00    +0.000 A 
ATOM     24  C   UNL     1       6.175   3.705  14.295  0.00  0.00    +0.000 A 
ATOM     25  C   UNL     1       7.016   4.418  15.128  0.00  0.00    +0.000 A 
ATOM     26  O   UNL     1       7.803   5.257  14.380  0.00  0.00    +0.000 OA
ENDBRANCH  20  25
ENDBRANCH   1  20
TORSDOF 3
ENDMDL
MODEL 3
REMARK VINA RESULT:      -7.2      2.863      7.267
REMARK  Name = 
REMARK  6 active torsions:
REMARK  status: ('A' for Active; 'I' for Inactive)
REMARK    1  A    between atoms: C_1  and  C_2
REMARK    2  A    between atoms: C_5  and  C_6
REMARK    3  A    between atoms: C_6  and  N_7
REMARK    4  A    between atoms: C_14  and  C_15
REMARK    5  A    between atoms: N_17  and  C_18
REMARK    6  A    between atoms: N_17  and  C_19
REMARK                            x       y       z     vdW  Elec       q    Type
REMARK                         _______ _______ _______ _____ _____    ______ ____
ROOT
ATOM      1  N   UNL     1       1.135   9.441  19.279  0.00  0.00    +0.000 NA
ATOM      2  C   UNL     1       1.933   8.743  20.287  0.00  0.00    +0.000 C 
ATOM      3  C   UNL     1       2.128   7.255  20.006  0.00  0.00    +0.000 C 
ATOM      4  C   UNL     1       2.612   6.955  18.580  0.00  0.00    +0.000 C 
ATOM      5  C   UNL     1       1.992   7.862  17.501  0.00  0.00    +0.000 C 
ATOM      6  C   UNL     1       1.736   9.297  17.959  0.00  0.00    +0.000 C 
ATOM      7  O   UNL     1       4.057   7.141  18.526  0.00  0.00    +0.000 OA
ATOM      8  C   UNL     1       4.704   5.994  17.904  0.00  0.00    +0.000 C 
ATOM      9  C   UNL     1       3.619   4.987  17.739  0.00  0.00    +0.000 A 
ATOM     10  C   UNL     1       3.690   3.692  17.238  0.00  0.00    +0.000 A 
ATOM     11  C   UNL     1       2.554   2.885  17.312  0.00  0.00    +0.000 A 
ATOM     12  C   UNL     1       1.373   3.382  17.876  0.00  0.00    +0.000 A 
ATOM     13  C   UNL     1       1.300   4.705  18.318  0.00  0.00    +0.000 A 
ATOM     14  C   UNL     1       2.430   5.509  18.220  0.00  0.00    +0.000 A 
ENDROOT
BRANCH   8  15
ATOM     15  C   UNL     1       5.869   5.500  18.799  0.00  0.00    +0.000 C 
ATOM     16  O   UNL     1       5.712   4.649  19.684  0.00  0.00    +0.000 OA
ATOM     17  N   UNL     1       7.134   6.039  18.561  0.00  0.00    +0.000 N 
ATOM     18  C   UNL     1       7.468   6.917  17.444  0.00  0.00    +0.000 C 
ATOM     19  C   UNL     1       8.215   5.761  19.489  0.00  0.00    +0.000 C 
ENDBRANCH   8  15
BRANCH   1  20
ATOM     20  C   UNL     1      -0.314   9.181  19.354  0.00  0.00    +0.000 C 
BRANCH  20  25
ATOM     21  C   UNL     1      -2.865  10.662  15.434  0.00  0.00    +0.000 C 
ATOM     22  C   UNL     1      -2.235  10.827  16.762  0.00  0.00    +0.000 A 
ATOM     23  C   UNL     1      -2.102  11.927  17.580  0.00  0.00    +0.000 A 
ATOM     24  C   UNL     1      -1.312  11.517  18.671  0.00  0.00    +0.000 A 
ATOM     25  C   UNL     1      -1.071  10.166  18.509  0.00  0.00    +0.000 A 
ATOM     26  O   UNL     1      -1.629   9.737  17.331  0.00  0.00    +0.000 OA
ENDBRANCH  20  25
ENDBRANCH   1  20
TORSDOF 3
ENDMDL
MODEL 4
REMARK VINA RESULT:      -7.0      4.378      6.693
REMARK  Name = 
REMARK  6 active torsions:
REMARK  status: ('A' for Active; 'I' for Inactive)
REMARK    1  A    between atoms: C_1  and  C_2
REMARK    2  A    between atoms: C_5  and  C_6
REMARK    3  A    between atoms: C_6  and  N_7
REMARK    4  A    between atoms: C_14  and  C_15
REMARK    5  A    between atoms: N_17  and  C_18
REMARK    6  A    between atoms: N_17  and  C_19
REMARK                            x       y       z     vdW  Elec       q    Type
REMARK                         _______ _______ _______ _____ _____    ______ ____
ROOT
ATOM      1  N   UNL     1       2.556   7.212  19.076  0.00  0.00    +0.000 NA
ATOM      2  C   UNL     1       2.934   8.249  18.116  0.00  0.00    +0.000 C 
ATOM      3  C   UNL     1       1.775   9.137  17.670  0.00  0.00    +0.000 C 
ATOM      4  C   UNL     1       0.950   9.704  18.834  0.00  0.00    +0.000 C 
ATOM      5  C   UNL     1       0.754   8.723  20.004  0.00  0.00    +0.000 C 
ATOM      6  C   UNL     1       1.950   7.806  20.261  0.00  0.00    +0.000 C 
ATOM      7  O   UNL     1       1.631  10.881  19.363  0.00  0.00    +0.000 OA
ATOM      8  C   UNL     1       0.708  12.000  19.489  0.00  0.00    +0.000 C 
ATOM      9  C   UNL     1      -0.547  11.536  18.836  0.00  0.00    +0.000 A 
ATOM     10  C   UNL     1      -1.739  12.222  18.634  0.00  0.00    +0.000 A 
ATOM     11  C   UNL     1      -2.735  11.617  17.867  0.00  0.00    +0.000 A 
ATOM     12  C   UNL     1      -2.530  10.343  17.324  0.00  0.00    +0.000 A 
ATOM     13  C   UNL     1      -1.352   9.641  17.589  0.00  0.00    +0.000 A 
ATOM     14  C   UNL     1      -0.374  10.243  18.372  0.00  0.00    +0.000 A 
ENDROOT
BRANCH   8  15
ATOM     15  C   UNL     1       1.317  13.260  18.822  0.00  0.00    +0.000 C 
ATOM     16  O   UNL     1       1.982  13.204  17.780  0.00  0.00    +0.000 OA
ATOM     17  N   UNL     1       1.072  14.490  19.434  0.00  0.00    +0.000 N 
ATOM     18  C   UNL     1       0.170  14.695  20.562  0.00  0.00    +0.000 C 
ATOM     19  C   UNL     1       1.774  15.672  18.966  0.00  0.00    +0.000 C 
ENDBRANCH   8  15
BRANCH   1  20
ATOM     20  C   UNL     1       1.831   6.068  18.492  0.00  0.00    +0.000 C 
BRANCH  20  25
ATOM     21  C   UNL     1       4.311   2.187  20.181  0.00  0.00    +0.000 C 
ATOM     22  C   UNL     1       3.154   3.105  20.100  0.00  0.00    +0.000 A 
ATOM     23  C   UNL     1       1.919   3.072  20.707  0.00  0.00    +0.000 A 
ATOM     24  C   UNL     1       1.185   4.148  20.169  0.00  0.00    +0.000 A 
ATOM     25  C   UNL     1       2.036   4.834  19.325  0.00  0.00    +0.000 A 
ATOM     26  O   UNL     1       3.247   4.192  19.271  0.00  0.00    +0.000 OA
ENDBRANCH  20  25
ENDBRANCH   1  20
TORSDOF 3
ENDMDL
MODEL 5
REMARK VINA RESULT:      -6.9      3.269      6.135
REMARK  Name = 
REMARK  6 active torsions:
REMARK  status: ('A' for Active; 'I' for Inactive)
REMARK    1  A    between atoms: C_1  and  C_2
REMARK    2  A    between atoms: C_5  and  C_6
REMARK    3  A    between atoms: C_6  and  N_7
REMARK    4  A    between atoms: C_14  and  C_15
REMARK    5  A    between atoms: N_17  and  C_18
REMARK    6  A    between atoms: N_17  and  C_19
REMARK                            x       y       z     vdW  Elec       q    Type
REMARK                         _______ _______ _______ _____ _____    ______ ____
ROOT
ATOM      1  N   UNL     1       2.503   7.411  18.908  0.00  0.00    +0.000 NA
ATOM      2  C   UNL     1       2.775   8.578  18.068  0.00  0.00    +0.000 C 
ATOM      3  C   UNL     1       1.549   9.442  17.785  0.00  0.00    +0.000 C 
ATOM      4  C   UNL     1       0.753   9.812  19.045  0.00  0.00    +0.000 C 
ATOM      5  C   UNL     1       0.670   8.686  20.091  0.00  0.00    +0.000 C 
ATOM      6  C   UNL     1       1.925   7.819  20.182  0.00  0.00    +0.000 C 
ATOM      7  O   UNL     1       1.393  10.955  19.686  0.00  0.00    +0.000 OA
ATOM      8  C   UNL     1       0.417  11.992  19.990  0.00  0.00    +0.000 C 
ATOM      9  C   UNL     1      -0.841  11.535  19.339  0.00  0.00    +0.000 A 
ATOM     10  C   UNL     1      -2.078  12.167  19.274  0.00  0.00    +0.000 A 
ATOM     11  C   UNL     1      -3.076  11.600  18.481  0.00  0.00    +0.000 A 
ATOM     12  C   UNL     1      -2.828  10.417  17.776  0.00  0.00    +0.000 A 
ATOM     13  C   UNL     1      -1.601   9.761  17.901  0.00  0.00    +0.000 A 
ATOM     14  C   UNL     1      -0.620  10.321  18.710  0.00  0.00    +0.000 A 
ENDROOT
BRANCH   8  15
ATOM     15  C   UNL     1       0.922  13.358  19.459  0.00  0.00    +0.000 C 
ATOM     16  O   UNL     1       1.220  13.540  18.272  0.00  0.00    +0.000 OA
ATOM     17  N   UNL     1       1.013  14.408  20.375  0.00  0.00    +0.000 N 
ATOM     18  C   UNL     1       0.534  14.356  21.752  0.00  0.00    +0.000 C 
ATOM     19  C   UNL     1       1.660  15.646  19.979  0.00  0.00    +0.000 C 
ENDBRANCH   8  15
BRANCH   1  20
ATOM     20  C   UNL     1       1.814   6.305  18.218  0.00  0.00    +0.000 C 
BRANCH  20  25
ATOM     21  C   UNL     1       3.445   1.678  18.262  0.00  0.00    +0.000 C 
ATOM     22  C   UNL     1       3.501   3.114  17.912  0.00  0.00    +0.000 A 
ATOM     23  C   UNL     1       4.462   3.861  17.268  0.00  0.00    +0.000 A 
ATOM     24  C   UNL     1       4.024   5.198  17.317  0.00  0.00    +0.000 A 
ATOM     25  C   UNL     1       2.778   5.192  17.913  0.00  0.00    +0.000 A 
ATOM     26  O   UNL     1       2.454   3.913  18.290  0.00  0.00    +0.000 OA
ENDBRANCH  20  25
ENDBRANCH   1  20
TORSDOF 3
ENDMDL
MODEL 6
REMARK VINA RESULT:      -6.9      2.832      7.993
REMARK  Name = 
REMARK  6 active torsions:
REMARK  status: ('A' for Active; 'I' for Inactive)
REMARK    1  A    between atoms: C_1  and  C_2
REMARK    2  A    between atoms: C_5  and  C_6
REMARK    3  A    between atoms: C_6  and  N_7
REMARK    4  A    between atoms: C_14  and  C_15
REMARK    5  A    between atoms: N_17  and  C_18
REMARK    6  A    between atoms: N_17  and  C_19
REMARK                            x       y       z     vdW  Elec       q    Type
REMARK                         _______ _______ _______ _____ _____    ______ ____
ROOT
ATOM      1  N   UNL     1       1.328   9.342  19.335  0.00  0.00    +0.000 NA
ATOM      2  C   UNL     1       2.241   8.689  20.274  0.00  0.00    +0.000 C 
ATOM      3  C   UNL     1       2.350   7.178  20.089  0.00  0.00    +0.000 C 
ATOM      4  C   UNL     1       2.617   6.754  18.637  0.00  0.00    +0.000 C 
ATOM      5  C   UNL     1       1.877   7.601  17.587  0.00  0.00    +0.000 C 
ATOM      6  C   UNL     1       1.730   9.076  17.960  0.00  0.00    +0.000 C 
ATOM      7  O   UNL     1       4.045   6.877  18.366  0.00  0.00    +0.000 OA
ATOM      8  C   UNL     1       4.562   5.662  17.753  0.00  0.00    +0.000 C 
ATOM      9  C   UNL     1       3.436   4.690  17.822  0.00  0.00    +0.000 A 
ATOM     10  C   UNL     1       3.397   3.359  17.421  0.00  0.00    +0.000 A 
ATOM     11  C   UNL     1       2.260   2.606  17.717  0.00  0.00    +0.000 A 
ATOM     12  C   UNL     1       1.187   3.191  18.400  0.00  0.00    +0.000 A 
ATOM     13  C   UNL     1       1.216   4.545  18.740  0.00  0.00    +0.000 A 
ATOM     14  C   UNL     1       2.343   5.293  18.422  0.00  0.00    +0.000 A 
ENDROOT
BRANCH   8  15
ATOM     15  C   UNL     1       5.828   5.189  18.513  0.00  0.00    +0.000 C 
ATOM     16  O   UNL     1       5.833   4.184  19.234  0.00  0.00    +0.000 OA
ATOM     17  N   UNL     1       6.995   5.935  18.341  0.00  0.00    +0.000 N 
ATOM     18  C   UNL     1       7.149   7.033  17.393  0.00  0.00    +0.000 C 
ATOM     19  C   UNL     1       8.151   5.656  19.175  0.00  0.00    +0.000 C 
ENDBRANCH   8  15
BRANCH   1  20
ATOM     20  C   UNL     1      -0.103   9.147  19.633  0.00  0.00    +0.000 C 
BRANCH  20  25
ATOM     21  C   UNL     1      -1.283  12.570  22.943  0.00  0.00    +0.000 C 
ATOM     22  C   UNL     1      -0.982  11.195  22.487  0.00  0.00    +0.000 A 
ATOM     23  C   UNL     1      -0.856  10.011  23.179  0.00  0.00    +0.000 A 
ATOM     24  C   UNL     1      -0.451   9.044  22.238  0.00  0.00    +0.000 A 
ATOM     25  C   UNL     1      -0.431   9.666  21.005  0.00  0.00    +0.000 A 
ATOM     26  O   UNL     1      -0.748  10.992  21.153  0.00  0.00    +0.000 OA
ENDBRANCH  20  25
ENDBRANCH   1  20
TORSDOF 3
ENDMDL
MODEL 7
REMARK VINA RESULT:      -6.8      4.160      6.783
REMARK  Name = 
REMARK  6 active torsions:
REMARK  status: ('A' for Active; 'I' for Inactive)
REMARK    1  A    between atoms: C_1  and  C_2
REMARK    2  A    between atoms: C_5  and  C_6
REMARK    3  A    between atoms: C_6  and  N_7
REMARK    4  A    between atoms: C_14  and  C_15
REMARK    5  A    between atoms: N_17  and  C_18
REMARK    6  A    between atoms: N_17  and  C_19
REMARK                            x       y       z     vdW  Elec       q    Type
REMARK                         _______ _______ _______ _____ _____    ______ ____
ROOT
ATOM      1  N   UNL     1       2.491   7.470  18.959  0.00  0.00    +0.000 NA
ATOM      2  C   UNL     1       2.740   8.606  18.071  0.00  0.00    +0.000 C 
ATOM      3  C   UNL     1       1.497   9.434  17.756  0.00  0.00    +0.000 C 
ATOM      4  C   UNL     1       0.696   9.841  19.001  0.00  0.00    +0.000 C 
ATOM      5  C   UNL     1       0.635   8.758  20.093  0.00  0.00    +0.000 C 
ATOM      6  C   UNL     1       1.906   7.919  20.216  0.00  0.00    +0.000 C 
ATOM      7  O   UNL     1       1.316  11.021  19.593  0.00  0.00    +0.000 OA
ATOM      8  C   UNL     1       0.321  12.052  19.855  0.00  0.00    +0.000 C 
ATOM      9  C   UNL     1      -0.930  11.545  19.226  0.00  0.00    +0.000 A 
ATOM     10  C   UNL     1      -2.178  12.151  19.137  0.00  0.00    +0.000 A 
ATOM     11  C   UNL     1      -3.166  11.533  18.371  0.00  0.00    +0.000 A 
ATOM     12  C   UNL     1      -2.897  10.326  17.715  0.00  0.00    +0.000 A 
ATOM     13  C   UNL     1      -1.658   9.699  17.865  0.00  0.00    +0.000 A 
ATOM     14  C   UNL     1      -0.687  10.310  18.648  0.00  0.00    +0.000 A 
ENDROOT
BRANCH   8  15
ATOM     15  C   UNL     1       0.799  13.404  19.267  0.00  0.00    +0.000 C 
ATOM     16  O   UNL     1       1.330  13.493  18.153  0.00  0.00    +0.000 OA
ATOM     17  N   UNL     1       0.592  14.548  20.040  0.00  0.00    +0.000 N 
ATOM     18  C   UNL     1      -0.168  14.586  21.285  0.00  0.00    +0.000 C 
ATOM     19  C   UNL     1       1.191  15.805  19.629  0.00  0.00    +0.000 C 
ENDBRANCH   8  15
BRANCH   1  20
ATOM     20  C   UNL     1       1.822   6.323  18.317  0.00  0.00    +0.000 C 
BRANCH  20  25
ATOM     21  C   UNL     1       1.476   2.661  21.563  0.00  0.00    +0.000 C 
ATOM     22  C   UNL     1       2.069   3.381  20.415  0.00  0.00    +0.000 A 
ATOM     23  C   UNL     1       3.189   3.126  19.657  0.00  0.00    +0.000 A 
ATOM     24  C   UNL     1       3.325   4.213  18.771  0.00  0.00    +0.000 A 
ATOM     25  C   UNL     1       2.234   5.036  18.974  0.00  0.00    +0.000 A 
ATOM     26  O   UNL     1       1.462   4.535  19.992  0.00  0.00    +0.000 OA
ENDBRANCH  20  25
ENDBRANCH   1  20
TORSDOF 3
ENDMDL
MODEL 8
REMARK VINA RESULT:      -6.7      2.937      6.026
REMARK  Name = 
REMARK  6 active torsions:
REMARK  status: ('A' for Active; 'I' for Inactive)
REMARK    1  A    between atoms: C_1  and  C_2
REMARK    2  A    between atoms: C_5  and  C_6
REMARK    3  A    between atoms: C_6  and  N_7
REMARK    4  A    between atoms: C_14  and  C_15
REMARK    5  A    between atoms: N_17  and  C_18
REMARK    6  A    between atoms: N_17  and  C_19
REMARK                            x       y       z     vdW  Elec       q    Type
REMARK                         _______ _______ _______ _____ _____    ______ ____
ROOT
ATOM      1  N   UNL     1       2.559   7.351  18.903  0.00  0.00    +0.000 NA
ATOM      2  C   UNL     1       2.852   8.493  18.037  0.00  0.00    +0.000 C 
ATOM      3  C   UNL     1       1.639   9.366  17.724  0.00  0.00    +0.000 C 
ATOM      4  C   UNL     1       0.839   9.777  18.969  0.00  0.00    +0.000 C 
ATOM      5  C   UNL     1       0.733   8.678  20.041  0.00  0.00    +0.000 C 
ATOM      6  C   UNL     1       1.976   7.797  20.162  0.00  0.00    +0.000 C 
ATOM      7  O   UNL     1       1.489  10.926  19.587  0.00  0.00    +0.000 OA
ATOM      8  C   UNL     1       0.525  11.983  19.858  0.00  0.00    +0.000 C 
ATOM      9  C   UNL     1      -0.735  11.527  19.208  0.00  0.00    +0.000 A 
ATOM     10  C   UNL     1      -1.963  12.173  19.119  0.00  0.00    +0.000 A 
ATOM     11  C   UNL     1      -2.962  11.600  18.332  0.00  0.00    +0.000 A 
ATOM     12  C   UNL     1      -2.724  10.397  17.658  0.00  0.00    +0.000 A 
ATOM     13  C   UNL     1      -1.507   9.728  17.808  0.00  0.00    +0.000 A 
ATOM     14  C   UNL     1      -0.525  10.295  18.611  0.00  0.00    +0.000 A 
ENDROOT
BRANCH   8  15
ATOM     15  C   UNL     1       1.051  13.330  19.298  0.00  0.00    +0.000 C 
ATOM     16  O   UNL     1       1.517  13.437  18.157  0.00  0.00    +0.000 OA
ATOM     17  N   UNL     1       0.965  14.447  20.130  0.00  0.00    +0.000 N 
ATOM     18  C   UNL     1       0.287  14.474  21.421  0.00  0.00    +0.000 C 
ATOM     19  C   UNL     1       1.616  15.683  19.734  0.00  0.00    +0.000 C 
ENDBRANCH   8  15
BRANCH   1  20
ATOM     20  C   UNL     1       1.860   6.237  18.235  0.00  0.00    +0.000 C 
BRANCH  20  25
ATOM     21  C   UNL     1       5.650   4.021  16.046  0.00  0.00    +0.000 C 
ATOM     22  C   UNL     1       4.524   4.117  17.000  0.00  0.00    +0.000 A 
ATOM     23  C   UNL     1       3.982   3.196  17.868  0.00  0.00    +0.000 A 
ATOM     24  C   UNL     1       2.854   3.811  18.444  0.00  0.00    +0.000 A 
ATOM     25  C   UNL     1       2.811   5.105  17.964  0.00  0.00    +0.000 A 
ATOM     26  O   UNL     1       3.832   5.297  17.068  0.00  0.00    +0.000 OA
ENDBRANCH  20  25
ENDBRANCH   1  20
TORSDOF 3
ENDMDL
MODEL 9
REMARK VINA RESULT:      -6.7      2.854      7.789
REMARK  Name = 
REMARK  6 active torsions:
REMARK  status: ('A' for Active; 'I' for Inactive)
REMARK    1  A    between atoms: C_1  and  C_2
REMARK    2  A    between atoms: C_5  and  C_6
REMARK    3  A    between atoms: C_6  and  N_7
REMARK    4  A    between atoms: C_14  and  C_15
REMARK    5  A    between atoms: N_17  and  C_18
REMARK    6  A    between atoms: N_17  and  C_19
REMARK                            x       y       z     vdW  Elec       q    Type
REMARK                         _______ _______ _______ _____ _____    ______ ____
ROOT
ATOM      1  N   UNL     1       1.177   9.331  19.355  0.00  0.00    +0.000 NA
ATOM      2  C   UNL     1       2.025   8.640  20.327  0.00  0.00    +0.000 C 
ATOM      3  C   UNL     1       2.211   7.152  20.046  0.00  0.00    +0.000 C 
ATOM      4  C   UNL     1       2.626   6.845  18.600  0.00  0.00    +0.000 C 
ATOM      5  C   UNL     1       1.953   7.743  17.547  0.00  0.00    +0.000 C 
ATOM      6  C   UNL     1       1.714   9.180  18.008  0.00  0.00    +0.000 C 
ATOM      7  O   UNL     1       4.067   7.035  18.474  0.00  0.00    +0.000 OA
ATOM      8  C   UNL     1       4.686   5.886  17.829  0.00  0.00    +0.000 C 
ATOM      9  C   UNL     1       3.598   4.875  17.722  0.00  0.00    +0.000 A 
ATOM     10  C   UNL     1       3.649   3.577  17.226  0.00  0.00    +0.000 A 
ATOM     11  C   UNL     1       2.521   2.767  17.360  0.00  0.00    +0.000 A 
ATOM     12  C   UNL     1       1.367   3.264  17.977  0.00  0.00    +0.000 A 
ATOM     13  C   UNL     1       1.311   4.589  18.414  0.00  0.00    +0.000 A 
ATOM     14  C   UNL     1       2.432   5.395  18.257  0.00  0.00    +0.000 A 
ENDROOT
BRANCH   8  15
ATOM     15  C   UNL     1       5.895   5.400  18.670  0.00  0.00    +0.000 C 
ATOM     16  O   UNL     1       5.813   4.459  19.468  0.00  0.00    +0.000 OA
ATOM     17  N   UNL     1       7.112   6.058  18.482  0.00  0.00    +0.000 N 
ATOM     18  C   UNL     1       7.366   7.063  17.455  0.00  0.00    +0.000 C 
ATOM     19  C   UNL     1       8.221   5.777  19.377  0.00  0.00    +0.000 C 
ENDBRANCH   8  15
BRANCH   1  20
ATOM     20  C   UNL     1      -0.266   9.066  19.501  0.00  0.00    +0.000 C 
BRANCH  20  25
ATOM     21  C   UNL     1      -2.040  13.553  20.387  0.00  0.00    +0.000 C 
ATOM     22  C   UNL     1      -1.841  12.326  19.585  0.00  0.00    +0.000 A 
ATOM     23  C   UNL     1      -2.363  11.933  18.373  0.00  0.00    +0.000 A 
ATOM     24  C   UNL     1      -1.907  10.618  18.154  0.00  0.00    +0.000 A 
ATOM     25  C   UNL     1      -1.062  10.305  19.201  0.00  0.00    +0.000 A 
ATOM     26  O   UNL     1      -1.024  11.349  20.090  0.00  0.00    +0.000 OA
ENDBRANCH  20  25
ENDBRANCH   1  20
TORSDOF 3
ENDMDL
