MODEL 1
REMARK VINA RESULT:      -6.2      0.000      0.000
REMARK  Name = 
REMARK  4 active torsions:
REMARK  status: ('A' for Active; 'I' for Inactive)
REMARK    1  A    between atoms: C_1  and  S_2
REMARK    2  A    between atoms: S_2  and  C_3
REMARK    3  A    between atoms: C_6  and  C_7
REMARK    4  A    between atoms: N_13  and  N_14
REMARK                            x       y       z     vdW  Elec       q    Type
REMARK                         _______ _______ _______ _____ _____    ______ ____
ROOT
ATOM      1  C   UNL     1       5.733   6.163  17.728  0.00  0.00    +0.000 A 
ATOM      2  N   UNL     1       4.831   7.018  17.309  0.00  0.00    +0.000 NA
ATOM      3  N   UNL     1       3.596   6.512  17.644  0.00  0.00    +0.000 NA
ATOM      4  C   UNL     1       3.764   5.366  18.292  0.00  0.00    +0.000 A 
ATOM      5  N   UNL     1       5.120   5.091  18.331  0.00  0.00    +0.000 N 
ENDROOT
BRANCH   4   6
ATOM      6  C   UNL     1       2.687   4.527  18.824  0.00  0.00    +0.000 A 
ATOM      7  C   UNL     1       2.240   4.723  20.140  0.00  0.00    +0.000 A 
ATOM      8  C   UNL     1       1.224   3.926  20.678  0.00  0.00    +0.000 A 
ATOM      9  C   UNL     1       0.643   2.922  19.901  0.00  0.00    +0.000 A 
ATOM     10  C   UNL     1       1.085   2.711  18.601  0.00  0.00    +0.000 A 
ATOM     11  C   UNL     1       2.104   3.498  18.068  0.00  0.00    +0.000 A 
ENDBRANCH   4   6
BRANCH   5  12
ATOM     12  N   UNL     1       5.764   3.891  18.825  0.00  0.00    +0.000 N 
ATOM     13  H   UNL     1       6.098   3.317  18.052  0.00  0.00    +0.000 HD
ATOM     14  H   UNL     1       6.599   4.140  19.357  0.00  0.00    +0.000 HD
ENDBRANCH   5  12
BRANCH   1  16
ATOM     15  C   UNL     1       7.661   8.076  17.573  0.00  0.00    +0.000 C 
ATOM     16  S   UNL     1       7.449   6.281  17.530  0.00  0.00    +0.000 S 
ENDBRANCH   1  16
TORSDOF 3
ENDMDL
MODEL 2
REMARK VINA RESULT:      -6.2      0.105      1.290
REMARK  Name = 
REMARK  4 active torsions:
REMARK  status: ('A' for Active; 'I' for Inactive)
REMARK    1  A    between atoms: C_1  and  S_2
REMARK    2  A    between atoms: S_2  and  C_3
REMARK    3  A    between atoms: C_6  and  C_7
REMARK    4  A    between atoms: N_13  and  N_14
REMARK                            x       y       z     vdW  Elec       q    Type
REMARK                         _______ _______ _______ _____ _____    ______ ____
ROOT
ATOM      1  C   UNL     1       5.673   6.189  17.649  0.00  0.00    +0.000 A 
ATOM      2  N   UNL     1       4.744   7.033  17.265  0.00  0.00    +0.000 NA
ATOM      3  N   UNL     1       3.531   6.521  17.665  0.00  0.00    +0.000 NA
ATOM      4  C   UNL     1       3.739   5.384  18.317  0.00  0.00    +0.000 A 
ATOM      5  N   UNL     1       5.098   5.119  18.293  0.00  0.00    +0.000 N 
ENDROOT
BRANCH   4   6
ATOM      6  C   UNL     1       2.696   4.543  18.909  0.00  0.00    +0.000 A 
ATOM      7  C   UNL     1       2.036   3.594  18.113  0.00  0.00    +0.000 A 
ATOM      8  C   UNL     1       1.025   2.788  18.648  0.00  0.00    +0.000 A 
ATOM      9  C   UNL     1       0.665   2.925  19.990  0.00  0.00    +0.000 A 
ATOM     10  C   UNL     1       1.303   3.869  20.785  0.00  0.00    +0.000 A 
ATOM     11  C   UNL     1       2.303   4.678  20.249  0.00  0.00    +0.000 A 
ENDBRANCH   4   6
BRANCH   5  12
ATOM     12  N   UNL     1       5.773   3.930  18.768  0.00  0.00    +0.000 N 
ATOM     13  H   UNL     1       5.104   3.182  18.948  0.00  0.00    +0.000 HD
ATOM     14  H   UNL     1       6.391   3.569  18.040  0.00  0.00    +0.000 HD
ENDBRANCH   5  12
BRANCH   1  16
ATOM     15  C   UNL     1       7.614   8.093  17.600  0.00  0.00    +0.000 C 
ATOM     16  S   UNL     1       7.376   6.317  17.366  0.00  0.00    +0.000 S 
ENDBRANCH   1  16
TORSDOF 3
ENDMDL
MODEL 3
REMARK VINA RESULT:      -6.1      2.637      5.647
REMARK  Name = 
REMARK  4 active torsions:
REMARK  status: ('A' for Active; 'I' for Inactive)
REMARK    1  A    between atoms: C_1  and  S_2
REMARK    2  A    between atoms: S_2  and  C_3
REMARK    3  A    between atoms: C_6  and  C_7
REMARK    4  A    between atoms: N_13  and  N_14
REMARK                            x       y       z     vdW  Elec       q    Type
REMARK                         _______ _______ _______ _____ _____    ______ ____
ROOT
ATOM      1  C   UNL     1       2.592   3.599  19.198  0.00  0.00    +0.000 A 
ATOM      2  N   UNL     1       3.129   2.793  18.313  0.00  0.00    +0.000 NA
ATOM      3  N   UNL     1       4.300   3.374  17.883  0.00  0.00    +0.000 NA
ATOM      4  C   UNL     1       4.477   4.515  18.536  0.00  0.00    +0.000 A 
ATOM      5  N   UNL     1       3.382   4.712  19.360  0.00  0.00    +0.000 N 
ENDROOT
BRANCH   4   6
ATOM      6  C   UNL     1       5.615   5.421  18.365  0.00  0.00    +0.000 A 
ATOM      7  C   UNL     1       5.565   6.420  17.380  0.00  0.00    +0.000 A 
ATOM      8  C   UNL     1       6.643   7.290  17.185  0.00  0.00    +0.000 A 
ATOM      9  C   UNL     1       7.786   7.168  17.978  0.00  0.00    +0.000 A 
ATOM     10  C   UNL     1       7.852   6.176  18.948  0.00  0.00    +0.000 A 
ATOM     11  C   UNL     1       6.782   5.304  19.136  0.00  0.00    +0.000 A 
ENDBRANCH   4   6
BRANCH   5  12
ATOM     12  N   UNL     1       3.080   5.878  20.163  0.00  0.00    +0.000 N 
ATOM     13  H   UNL     1       2.292   5.695  20.783  0.00  0.00    +0.000 HD
ATOM     14  H   UNL     1       3.866   6.085  20.781  0.00  0.00    +0.000 HD
ENDBRANCH   5  12
BRANCH   1  16
ATOM     15  C   UNL     1       1.674   2.680  21.587  0.00  0.00    +0.000 C 
ATOM     16  S   UNL     1       1.088   3.380  20.027  0.00  0.00    +0.000 S 
ENDBRANCH   1  16
TORSDOF 3
ENDMDL
MODEL 4
REMARK VINA RESULT:      -6.1      2.635      5.567
REMARK  Name = 
REMARK  4 active torsions:
REMARK  status: ('A' for Active; 'I' for Inactive)
REMARK    1  A    between atoms: C_1  and  S_2
REMARK    2  A    between atoms: S_2  and  C_3
REMARK    3  A    between atoms: C_6  and  C_7
REMARK    4  A    between atoms: N_13  and  N_14
REMARK                            x       y       z     vdW  Elec       q    Type
REMARK                         _______ _______ _______ _____ _____    ______ ____
ROOT
ATOM      1  C   UNL     1       2.549   3.619  19.148  0.00  0.00    +0.000 A 
ATOM      2  N   UNL     1       3.055   2.826  18.233  0.00  0.00    +0.000 NA
ATOM      3  N   UNL     1       4.228   3.397  17.796  0.00  0.00    +0.000 NA
ATOM      4  C   UNL     1       4.439   4.518  18.474  0.00  0.00    +0.000 A 
ATOM      5  N   UNL     1       3.363   4.713  19.323  0.00  0.00    +0.000 N 
ENDROOT
BRANCH   4   6
ATOM      6  C   UNL     1       5.590   5.408  18.305  0.00  0.00    +0.000 A 
ATOM      7  C   UNL     1       6.714   5.252  19.131  0.00  0.00    +0.000 A 
ATOM      8  C   UNL     1       7.821   6.098  19.002  0.00  0.00    +0.000 A 
ATOM      9  C   UNL     1       7.814   7.110  18.040  0.00  0.00    +0.000 A 
ATOM     10  C   UNL     1       6.703   7.281  17.225  0.00  0.00    +0.000 A 
ATOM     11  C   UNL     1       5.596   6.445  17.360  0.00  0.00    +0.000 A 
ENDBRANCH   4   6
BRANCH   5  12
ATOM     12  N   UNL     1       3.098   5.864  20.162  0.00  0.00    +0.000 N 
ATOM     13  H   UNL     1       2.606   6.586  19.637  0.00  0.00    +0.000 HD
ATOM     14  H   UNL     1       2.465   5.602  20.918  0.00  0.00    +0.000 HD
ENDBRANCH   5  12
BRANCH   1  16
ATOM     15  C   UNL     1       1.669   2.763  21.574  0.00  0.00    +0.000 C 
ATOM     16  S   UNL     1       1.057   3.406  20.000  0.00  0.00    +0.000 S 
ENDBRANCH   1  16
TORSDOF 3
ENDMDL
MODEL 5
REMARK VINA RESULT:      -6.0      2.661      5.686
REMARK  Name = 
REMARK  4 active torsions:
REMARK  status: ('A' for Active; 'I' for Inactive)
REMARK    1  A    between atoms: C_1  and  S_2
REMARK    2  A    between atoms: S_2  and  C_3
REMARK    3  A    between atoms: C_6  and  C_7
REMARK    4  A    between atoms: N_13  and  N_14
REMARK                            x       y       z     vdW  Elec       q    Type
REMARK                         _______ _______ _______ _____ _____    ______ ____
ROOT
ATOM      1  C   UNL     1       3.287   3.376  20.310  0.00  0.00    +0.000 A 
ATOM      2  N   UNL     1       4.119   2.442  19.915  0.00  0.00    +0.000 NA
ATOM      3  N   UNL     1       5.150   3.063  19.248  0.00  0.00    +0.000 NA
ATOM      4  C   UNL     1       4.948   4.374  19.272  0.00  0.00    +0.000 A 
ATOM      5  N   UNL     1       3.743   4.610  19.912  0.00  0.00    +0.000 N 
ENDROOT
BRANCH   4   6
ATOM      6  C   UNL     1       5.832   5.379  18.677  0.00  0.00    +0.000 A 
ATOM      7  C   UNL     1       7.100   5.606  19.236  0.00  0.00    +0.000 A 
ATOM      8  C   UNL     1       7.958   6.570  18.697  0.00  0.00    +0.000 A 
ATOM      9  C   UNL     1       7.555   7.320  17.590  0.00  0.00    +0.000 A 
ATOM     10  C   UNL     1       6.298   7.113  17.036  0.00  0.00    +0.000 A 
ATOM     11  C   UNL     1       5.439   6.158  17.578  0.00  0.00    +0.000 A 
ENDBRANCH   4   6
BRANCH   5  12
ATOM     12  N   UNL     1       3.056   5.876  20.061  0.00  0.00    +0.000 N 
ATOM     13  H   UNL     1       2.602   6.145  19.189  0.00  0.00    +0.000 HD
ATOM     14  H   UNL     1       2.300   5.782  20.741  0.00  0.00    +0.000 HD
ENDBRANCH   5  12
BRANCH   1  16
ATOM     15  C   UNL     1       0.643   3.048  19.769  0.00  0.00    +0.000 C 
ATOM     16  S   UNL     1       1.795   3.149  21.158  0.00  0.00    +0.000 S 
ENDBRANCH   1  16
TORSDOF 3
ENDMDL
MODEL 6
REMARK VINA RESULT:      -6.0      2.662      5.764
REMARK  Name = 
REMARK  4 active torsions:
REMARK  status: ('A' for Active; 'I' for Inactive)
REMARK    1  A    between atoms: C_1  and  S_2
REMARK    2  A    between atoms: S_2  and  C_3
REMARK    3  A    between atoms: C_6  and  C_7
REMARK    4  A    between atoms: N_13  and  N_14
REMARK                            x       y       z     vdW  Elec       q    Type
REMARK                         _______ _______ _______ _____ _____    ______ ____
ROOT
ATOM      1  C   UNL     1       3.241   3.408  20.329  0.00  0.00    +0.000 A 
ATOM      2  N   UNL     1       4.089   2.470  19.980  0.00  0.00    +0.000 NA
ATOM      3  N   UNL     1       5.141   3.083  19.340  0.00  0.00    +0.000 NA
ATOM      4  C   UNL     1       4.936   4.394  19.335  0.00  0.00    +0.000 A 
ATOM      5  N   UNL     1       3.708   4.637  19.926  0.00  0.00    +0.000 N 
ENDROOT
BRANCH   4   6
ATOM      6  C   UNL     1       5.838   5.392  18.755  0.00  0.00    +0.000 A 
ATOM      7  C   UNL     1       5.427   6.131  17.635  0.00  0.00    +0.000 A 
ATOM      8  C   UNL     1       6.274   7.079  17.052  0.00  0.00    +0.000 A 
ATOM      9  C   UNL     1       7.545   7.298  17.586  0.00  0.00    +0.000 A 
ATOM     10  C   UNL     1       7.967   6.564  18.687  0.00  0.00    +0.000 A 
ATOM     11  C   UNL     1       7.128   5.613  19.263  0.00  0.00    +0.000 A 
ENDBRANCH   4   6
BRANCH   5  12
ATOM     12  N   UNL     1       3.013   5.903  20.029  0.00  0.00    +0.000 N 
ATOM     13  H   UNL     1       2.641   6.186  19.123  0.00  0.00    +0.000 HD
ATOM     14  H   UNL     1       2.197   5.802  20.635  0.00  0.00    +0.000 HD
ENDBRANCH   5  12
BRANCH   1  16
ATOM     15  C   UNL     1       0.623   3.029  19.699  0.00  0.00    +0.000 C 
ATOM     16  S   UNL     1       1.719   3.191  21.127  0.00  0.00    +0.000 S 
ENDBRANCH   1  16
TORSDOF 3
ENDMDL
MODEL 7
REMARK VINA RESULT:      -6.0      0.958      1.137
REMARK  Name = 
REMARK  4 active torsions:
REMARK  status: ('A' for Active; 'I' for Inactive)
REMARK    1  A    between atoms: C_1  and  S_2
REMARK    2  A    between atoms: S_2  and  C_3
REMARK    3  A    between atoms: C_6  and  C_7
REMARK    4  A    between atoms: N_13  and  N_14
REMARK                            x       y       z     vdW  Elec       q    Type
REMARK                         _______ _______ _______ _____ _____    ______ ____
ROOT
ATOM      1  C   UNL     1       5.469   6.046  17.504  0.00  0.00    +0.000 A 
ATOM      2  N   UNL     1       4.506   6.902  17.258  0.00  0.00    +0.000 NA
ATOM      3  N   UNL     1       3.361   6.417  17.846  0.00  0.00    +0.000 NA
ATOM      4  C   UNL     1       3.648   5.283  18.472  0.00  0.00    +0.000 A 
ATOM      5  N   UNL     1       4.982   4.993  18.242  0.00  0.00    +0.000 N 
ENDROOT
BRANCH   4   6
ATOM      6  C   UNL     1       2.695   4.466  19.228  0.00  0.00    +0.000 A 
ATOM      7  C   UNL     1       2.713   4.501  20.631  0.00  0.00    +0.000 A 
ATOM      8  C   UNL     1       1.825   3.720  21.378  0.00  0.00    +0.000 A 
ATOM      9  C   UNL     1       0.906   2.895  20.726  0.00  0.00    +0.000 A 
ATOM     10  C   UNL     1       0.887   2.844  19.338  0.00  0.00    +0.000 A 
ATOM     11  C   UNL     1       1.778   3.614  18.594  0.00  0.00    +0.000 A 
ENDBRANCH   4   6
BRANCH   5  12
ATOM     12  N   UNL     1       5.704   3.795  18.622  0.00  0.00    +0.000 N 
ATOM     13  H   UNL     1       5.903   3.220  17.804  0.00  0.00    +0.000 HD
ATOM     14  H   UNL     1       6.616   4.048  19.003  0.00  0.00    +0.000 HD
ENDBRANCH   5  12
BRANCH   1  16
ATOM     15  C   UNL     1       7.048   5.024  15.541  0.00  0.00    +0.000 C 
ATOM     16  S   UNL     1       7.110   6.140  16.961  0.00  0.00    +0.000 S 
ENDBRANCH   1  16
TORSDOF 3
ENDMDL
MODEL 8
REMARK VINA RESULT:      -6.0      0.996      1.727
REMARK  Name = 
REMARK  4 active torsions:
REMARK  status: ('A' for Active; 'I' for Inactive)
REMARK    1  A    between atoms: C_1  and  S_2
REMARK    2  A    between atoms: S_2  and  C_3
REMARK    3  A    between atoms: C_6  and  C_7
REMARK    4  A    between atoms: N_13  and  N_14
REMARK                            x       y       z     vdW  Elec       q    Type
REMARK                         _______ _______ _______ _____ _____    ______ ____
ROOT
ATOM      1  C   UNL     1       5.466   5.937  17.359  0.00  0.00    +0.000 A 
ATOM      2  N   UNL     1       4.487   6.761  17.072  0.00  0.00    +0.000 NA
ATOM      3  N   UNL     1       3.356   6.294  17.702  0.00  0.00    +0.000 NA
ATOM      4  C   UNL     1       3.668   5.205  18.392  0.00  0.00    +0.000 A 
ATOM      5  N   UNL     1       5.005   4.923  18.165  0.00  0.00    +0.000 N 
ENDROOT
BRANCH   4   6
ATOM      6  C   UNL     1       2.737   4.422  19.207  0.00  0.00    +0.000 A 
ATOM      7  C   UNL     1       1.778   3.611  18.578  0.00  0.00    +0.000 A 
ATOM      8  C   UNL     1       0.867   2.864  19.332  0.00  0.00    +0.000 A 
ATOM      9  C   UNL     1       0.906   2.921  20.726  0.00  0.00    +0.000 A 
ATOM     10  C   UNL     1       1.842   3.728  21.359  0.00  0.00    +0.000 A 
ATOM     11  C   UNL     1       2.744   4.480  20.609  0.00  0.00    +0.000 A 
ENDBRANCH   4   6
BRANCH   5  12
ATOM     12  N   UNL     1       5.749   3.763  18.609  0.00  0.00    +0.000 N 
ATOM     13  H   UNL     1       5.615   3.608  19.607  0.00  0.00    +0.000 HD
ATOM     14  H   UNL     1       5.386   2.924  18.155  0.00  0.00    +0.000 HD
ENDBRANCH   5  12
BRANCH   1  16
ATOM     15  C   UNL     1       7.016   4.897  15.381  0.00  0.00    +0.000 C 
ATOM     16  S   UNL     1       7.100   6.023  16.793  0.00  0.00    +0.000 S 
ENDBRANCH   1  16
TORSDOF 3
ENDMDL
MODEL 9
REMARK VINA RESULT:      -6.0      1.689      1.985
REMARK  Name = 
REMARK  4 active torsions:
REMARK  status: ('A' for Active; 'I' for Inactive)
REMARK    1  A    between atoms: C_1  and  S_2
REMARK    2  A    between atoms: S_2  and  C_3
REMARK    3  A    between atoms: C_6  and  C_7
REMARK    4  A    between atoms: N_13  and  N_14
REMARK                            x       y       z     vdW  Elec       q    Type
REMARK                         _______ _______ _______ _____ _____    ______ ____
ROOT
ATOM      1  C   UNL     1       5.499   5.406  16.247  0.00  0.00    +0.000 A 
ATOM      2  N   UNL     1       4.969   6.602  16.349  0.00  0.00    +0.000 NA
ATOM      3  N   UNL     1       3.910   6.510  17.222  0.00  0.00    +0.000 NA
ATOM      4  C   UNL     1       3.826   5.263  17.666  0.00  0.00    +0.000 A 
ATOM      5  N   UNL     1       4.805   4.516  17.032  0.00  0.00    +0.000 N 
ENDROOT
BRANCH   4   6
ATOM      6  C   UNL     1       2.832   4.768  18.622  0.00  0.00    +0.000 A 
ATOM      7  C   UNL     1       2.936   5.122  19.976  0.00  0.00    +0.000 A 
ATOM      8  C   UNL     1       2.011   4.651  20.913  0.00  0.00    +0.000 A 
ATOM      9  C   UNL     1       0.967   3.819  20.502  0.00  0.00    +0.000 A 
ATOM     10  C   UNL     1       0.861   3.452  19.166  0.00  0.00    +0.000 A 
ATOM     11  C   UNL     1       1.789   3.913  18.234  0.00  0.00    +0.000 A 
ENDBRANCH   4   6
BRANCH   5  12
ATOM     12  N   UNL     1       5.011   3.085  17.108  0.00  0.00    +0.000 N 
ATOM     13  H   UNL     1       5.983   2.850  16.911  0.00  0.00    +0.000 HD
ATOM     14  H   UNL     1       4.843   2.762  18.062  0.00  0.00    +0.000 HD
ENDBRANCH   5  12
BRANCH   1  16
ATOM     15  C   UNL     1       5.964   4.038  13.943  0.00  0.00    +0.000 C 
ATOM     16  S   UNL     1       6.833   4.941  15.246  0.00  0.00    +0.000 S 
ENDBRANCH   1  16
TORSDOF 3
ENDMDL
