MODEL 1
REMARK VINA RESULT:      -6.6      0.000      0.000
REMARK  Name = 
REMARK  3 active torsions:
REMARK  status: ('A' for Active; 'I' for Inactive)
REMARK    1  A    between atoms: N_2  and  C_4
REMARK    2  A    between atoms: C_6  and  N_7
REMARK    3  A    between atoms: C_10  and  C_11
REMARK                            x       y       z     vdW  Elec       q    Type
REMARK                         _______ _______ _______ _____ _____    ______ ____
ROOT
ATOM      1  C   UNL     1       5.777   4.645  17.275  0.00  0.00    +0.000 A 
ATOM      2  C   UNL     1       4.663   4.156  16.631  0.00  0.00    +0.000 A 
ATOM      3  C   UNL     1       3.644   3.774  17.567  0.00  0.00    +0.000 A 
ATOM      4  C   UNL     1       4.045   3.943  18.881  0.00  0.00    +0.000 A 
ATOM      5  S   UNL     1       5.610   4.653  18.961  0.00  0.00    +0.000 S 
ENDROOT
BRANCH   4   6
ATOM      6  C   UNL     1       3.280   3.552  20.111  0.00  0.00    +0.000 A 
ATOM      7  C   UNL     1       2.198   4.256  20.693  0.00  0.00    +0.000 A 
ATOM      8  C   UNL     1       1.851   3.528  21.806  0.00  0.00    +0.000 A 
ATOM      9  N   UNL     1       2.703   2.464  21.835  0.00  0.00    +0.000 N 
ATOM     10  N   UNL     1       3.595   2.470  20.830  0.00  0.00    +0.000 NA
ATOM     11  H   UNL     1       2.739   1.706  22.509  0.00  0.00    +0.000 HD
ENDBRANCH   4   6
BRANCH   1  13
ATOM     12  O   UNL     1       7.999   4.430  16.837  0.00  0.00    +0.000 OA
ATOM     13  N   UNL     1       6.988   5.120  16.657  0.00  0.00    +0.000 N 
ATOM     14  O   UNL     1       6.939   6.169  16.002  0.00  0.00    +0.000 OA
ENDBRANCH   1  13
BRANCH   3  15
ATOM     15  N   UNL     1       2.364   3.273  17.155  0.00  0.00    +0.000 N 
ATOM     16  O   UNL     1       1.450   4.107  17.095  0.00  0.00    +0.000 OA
ATOM     17  O   UNL     1       2.252   2.046  17.052  0.00  0.00    +0.000 OA
ENDBRANCH   3  15
TORSDOF 3
ENDMDL
MODEL 2
REMARK VINA RESULT:      -6.3      0.886      1.209
REMARK  Name = 
REMARK  3 active torsions:
REMARK  status: ('A' for Active; 'I' for Inactive)
REMARK    1  A    between atoms: N_2  and  C_4
REMARK    2  A    between atoms: C_6  and  N_7
REMARK    3  A    between atoms: C_10  and  C_11
REMARK                            x       y       z     vdW  Elec       q    Type
REMARK                         _______ _______ _______ _____ _____    ______ ____
ROOT
ATOM      1  C   UNL     1       5.808   4.844  17.233  0.00  0.00    +0.000 A 
ATOM      2  C   UNL     1       4.735   4.259  16.598  0.00  0.00    +0.000 A 
ATOM      3  C   UNL     1       3.715   3.884  17.535  0.00  0.00    +0.000 A 
ATOM      4  C   UNL     1       4.074   4.155  18.844  0.00  0.00    +0.000 A 
ATOM      5  S   UNL     1       5.599   4.948  18.911  0.00  0.00    +0.000 S 
ENDROOT
BRANCH   4   6
ATOM      6  C   UNL     1       3.301   3.801  20.080  0.00  0.00    +0.000 A 
ATOM      7  C   UNL     1       3.209   2.523  20.682  0.00  0.00    +0.000 A 
ATOM      8  C   UNL     1       2.376   2.692  21.762  0.00  0.00    +0.000 A 
ATOM      9  N   UNL     1       2.027   4.010  21.760  0.00  0.00    +0.000 N 
ATOM     10  N   UNL     1       2.556   4.697  20.734  0.00  0.00    +0.000 NA
ATOM     11  H   UNL     1       1.430   4.502  22.416  0.00  0.00    +0.000 HD
ENDBRANCH   4   6
BRANCH   1  13
ATOM     12  O   UNL     1       7.097   6.572  16.507  0.00  0.00    +0.000 OA
ATOM     13  N   UNL     1       7.008   5.342  16.611  0.00  0.00    +0.000 N 
ATOM     14  O   UNL     1       7.852   4.523  16.226  0.00  0.00    +0.000 OA
ENDBRANCH   1  13
BRANCH   3  15
ATOM     15  N   UNL     1       2.472   3.291  17.128  0.00  0.00    +0.000 N 
ATOM     16  O   UNL     1       1.504   4.061  17.060  0.00  0.00    +0.000 OA
ATOM     17  O   UNL     1       2.444   2.058  17.040  0.00  0.00    +0.000 OA
ENDBRANCH   3  15
TORSDOF 3
ENDMDL
MODEL 3
REMARK VINA RESULT:      -6.3      2.588      2.853
REMARK  Name = 
REMARK  3 active torsions:
REMARK  status: ('A' for Active; 'I' for Inactive)
REMARK    1  A    between atoms: N_2  and  C_4
REMARK    2  A    between atoms: C_6  and  N_7
REMARK    3  A    between atoms: C_10  and  C_11
REMARK                            x       y       z     vdW  Elec       q    Type
REMARK                         _______ _______ _______ _____ _____    ______ ____
ROOT
ATOM      1  C   UNL     1       5.770   4.828  15.532  0.00  0.00    +0.000 A 
ATOM      2  C   UNL     1       5.064   3.742  15.998  0.00  0.00    +0.000 A 
ATOM      3  C   UNL     1       4.103   4.132  16.991  0.00  0.00    +0.000 A 
ATOM      4  C   UNL     1       4.154   5.486  17.272  0.00  0.00    +0.000 A 
ATOM      5  S   UNL     1       5.294   6.282  16.260  0.00  0.00    +0.000 S 
ENDROOT
BRANCH   4   6
ATOM      6  C   UNL     1       3.373   6.216  18.325  0.00  0.00    +0.000 A 
ATOM      7  C   UNL     1       2.623   7.404  18.149  0.00  0.00    +0.000 A 
ATOM      8  C   UNL     1       2.115   7.697  19.392  0.00  0.00    +0.000 A 
ATOM      9  N   UNL     1       2.562   6.710  20.219  0.00  0.00    +0.000 N 
ATOM     10  N   UNL     1       3.347   5.813  19.599  0.00  0.00    +0.000 NA
ATOM     11  H   UNL     1       2.380   6.591  21.210  0.00  0.00    +0.000 HD
ENDBRANCH   4   6
BRANCH   1  13
ATOM     12  O   UNL     1       7.809   5.499  14.780  0.00  0.00    +0.000 OA
ATOM     13  N   UNL     1       6.809   4.813  14.534  0.00  0.00    +0.000 N 
ATOM     14  O   UNL     1       6.635   4.132  13.516  0.00  0.00    +0.000 OA
ENDBRANCH   1  13
BRANCH   3  15
ATOM     15  N   UNL     1       3.207   3.196  17.609  0.00  0.00    +0.000 N 
ATOM     16  O   UNL     1       2.042   3.207  17.191  0.00  0.00    +0.000 OA
ATOM     17  O   UNL     1       3.632   2.585  18.597  0.00  0.00    +0.000 OA
ENDBRANCH   3  15
TORSDOF 3
ENDMDL
MODEL 4
REMARK VINA RESULT:      -6.3      2.111      2.242
REMARK  Name = 
REMARK  3 active torsions:
REMARK  status: ('A' for Active; 'I' for Inactive)
REMARK    1  A    between atoms: N_2  and  C_4
REMARK    2  A    between atoms: C_6  and  N_7
REMARK    3  A    between atoms: C_10  and  C_11
REMARK                            x       y       z     vdW  Elec       q    Type
REMARK                         _______ _______ _______ _____ _____    ______ ____
ROOT
ATOM      1  C   UNL     1       5.693   4.934  16.510  0.00  0.00    +0.000 A 
ATOM      2  C   UNL     1       4.708   3.972  16.500  0.00  0.00    +0.000 A 
ATOM      3  C   UNL     1       3.621   4.328  17.367  0.00  0.00    +0.000 A 
ATOM      4  C   UNL     1       3.847   5.518  18.035  0.00  0.00    +0.000 A 
ATOM      5  S   UNL     1       5.326   6.237  17.530  0.00  0.00    +0.000 S 
ENDROOT
BRANCH   4   6
ATOM      6  C   UNL     1       2.977   6.135  19.091  0.00  0.00    +0.000 A 
ATOM      7  C   UNL     1       2.423   7.438  19.073  0.00  0.00    +0.000 A 
ATOM      8  C   UNL     1       1.732   7.552  20.256  0.00  0.00    +0.000 A 
ATOM      9  N   UNL     1       1.894   6.360  20.898  0.00  0.00    +0.000 N 
ATOM     10  N   UNL     1       2.667   5.494  20.221  0.00  0.00    +0.000 NA
ATOM     11  H   UNL     1       1.518   6.074  21.796  0.00  0.00    +0.000 HD
ENDBRANCH   4   6
BRANCH   1  13
ATOM     12  O   UNL     1       7.917   4.480  16.362  0.00  0.00    +0.000 OA
ATOM     13  N   UNL     1       6.924   4.912  15.763  0.00  0.00    +0.000 N 
ATOM     14  O   UNL     1       6.909   5.323  14.596  0.00  0.00    +0.000 OA
ENDBRANCH   1  13
BRANCH   3  15
ATOM     15  N   UNL     1       2.446   3.515  17.507  0.00  0.00    +0.000 N 
ATOM     16  O   UNL     1       1.371   4.069  17.237  0.00  0.00    +0.000 OA
ATOM     17  O   UNL     1       2.594   2.404  18.028  0.00  0.00    +0.000 OA
ENDBRANCH   3  15
TORSDOF 3
ENDMDL
MODEL 5
REMARK VINA RESULT:      -6.2      2.887      3.164
REMARK  Name = 
REMARK  3 active torsions:
REMARK  status: ('A' for Active; 'I' for Inactive)
REMARK    1  A    between atoms: N_2  and  C_4
REMARK    2  A    between atoms: C_6  and  N_7
REMARK    3  A    between atoms: C_10  and  C_11
REMARK                            x       y       z     vdW  Elec       q    Type
REMARK                         _______ _______ _______ _____ _____    ______ ____
ROOT
ATOM      1  C   UNL     1       5.531   4.758  16.592  0.00  0.00    +0.000 A 
ATOM      2  C   UNL     1       4.512   3.908  16.958  0.00  0.00    +0.000 A 
ATOM      3  C   UNL     1       3.440   4.621  17.592  0.00  0.00    +0.000 A 
ATOM      4  C   UNL     1       3.709   5.972  17.723  0.00  0.00    +0.000 A 
ATOM      5  S   UNL     1       5.212   6.375  16.990  0.00  0.00    +0.000 S 
ENDROOT
BRANCH   4   6
ATOM      6  C   UNL     1       2.863   6.993  18.426  0.00  0.00    +0.000 A 
ATOM      7  C   UNL     1       2.367   8.201  17.878  0.00  0.00    +0.000 A 
ATOM      8  C   UNL     1       1.677   8.805  18.902  0.00  0.00    +0.000 A 
ATOM      9  N   UNL     1       1.784   7.963  19.970  0.00  0.00    +0.000 N 
ATOM     10  N   UNL     1       2.520   6.870  19.712  0.00  0.00    +0.000 NA
ATOM     11  H   UNL     1       1.392   8.075  20.899  0.00  0.00    +0.000 HD
ENDBRANCH   4   6
BRANCH   1  13
ATOM     12  O   UNL     1       7.780   4.421  16.634  0.00  0.00    +0.000 OA
ATOM     13  N   UNL     1       6.760   4.395  15.934  0.00  0.00    +0.000 N 
ATOM     14  O   UNL     1       6.716   4.089  14.736  0.00  0.00    +0.000 OA
ENDBRANCH   1  13
BRANCH   3  15
ATOM     15  N   UNL     1       2.236   3.975  18.033  0.00  0.00    +0.000 N 
ATOM     16  O   UNL     1       1.250   4.108  17.296  0.00  0.00    +0.000 OA
ATOM     17  O   UNL     1       2.249   3.486  19.169  0.00  0.00    +0.000 OA
ENDBRANCH   3  15
TORSDOF 3
ENDMDL
MODEL 6
REMARK VINA RESULT:      -6.2      2.217      5.055
REMARK  Name = 
REMARK  3 active torsions:
REMARK  status: ('A' for Active; 'I' for Inactive)
REMARK    1  A    between atoms: N_2  and  C_4
REMARK    2  A    between atoms: C_6  and  N_7
REMARK    3  A    between atoms: C_10  and  C_11
REMARK                            x       y       z     vdW  Elec       q    Type
REMARK                         _______ _______ _______ _____ _____    ______ ____
ROOT
ATOM      1  C   UNL     1       2.650   3.890  18.508  0.00  0.00    +0.000 A 
ATOM      2  C   UNL     1       3.135   3.850  17.221  0.00  0.00    +0.000 A 
ATOM      3  C   UNL     1       4.474   4.363  17.151  0.00  0.00    +0.000 A 
ATOM      4  C   UNL     1       4.931   4.814  18.377  0.00  0.00    +0.000 A 
ATOM      5  S   UNL     1       3.770   4.520  19.612  0.00  0.00    +0.000 S 
ENDROOT
BRANCH   4   6
ATOM      6  C   UNL     1       6.235   5.503  18.653  0.00  0.00    +0.000 A 
ATOM      7  C   UNL     1       6.839   6.512  17.865  0.00  0.00    +0.000 A 
ATOM      8  C   UNL     1       8.022   6.806  18.501  0.00  0.00    +0.000 A 
ATOM      9  N   UNL     1       8.065   5.997  19.598  0.00  0.00    +0.000 N 
ATOM     10  N   UNL     1       7.004   5.180  19.697  0.00  0.00    +0.000 NA
ATOM     11  H   UNL     1       8.786   5.942  20.310  0.00  0.00    +0.000 HD
ENDBRANCH   4   6
BRANCH   1  13
ATOM     12  O   UNL     1       0.762   2.654  18.214  0.00  0.00    +0.000 OA
ATOM     13  N   UNL     1       1.348   3.457  18.950  0.00  0.00    +0.000 N 
ATOM     14  O   UNL     1       0.910   3.912  20.014  0.00  0.00    +0.000 OA
ENDBRANCH   1  13
BRANCH   3  15
ATOM     15  N   UNL     1       5.228   4.394  15.930  0.00  0.00    +0.000 N 
ATOM     16  O   UNL     1       6.011   3.451  15.754  0.00  0.00    +0.000 OA
ATOM     17  O   UNL     1       5.146   5.423  15.249  0.00  0.00    +0.000 OA
ENDBRANCH   3  15
TORSDOF 3
ENDMDL
MODEL 7
REMARK VINA RESULT:      -6.2      2.295      6.123
REMARK  Name = 
REMARK  3 active torsions:
REMARK  status: ('A' for Active; 'I' for Inactive)
REMARK    1  A    between atoms: N_2  and  C_4
REMARK    2  A    between atoms: C_6  and  N_7
REMARK    3  A    between atoms: C_10  and  C_11
REMARK                            x       y       z     vdW  Elec       q    Type
REMARK                         _______ _______ _______ _____ _____    ______ ____
ROOT
ATOM      1  C   UNL     1       4.085   4.294  18.884  0.00  0.00    +0.000 A 
ATOM      2  C   UNL     1       5.346   4.622  19.329  0.00  0.00    +0.000 A 
ATOM      3  C   UNL     1       6.236   4.875  18.232  0.00  0.00    +0.000 A 
ATOM      4  C   UNL     1       5.629   4.683  17.003  0.00  0.00    +0.000 A 
ATOM      5  S   UNL     1       3.964   4.293  17.194  0.00  0.00    +0.000 S 
ENDROOT
BRANCH   4   6
ATOM      6  C   UNL     1       6.285   4.755  15.656  0.00  0.00    +0.000 A 
ATOM      7  C   UNL     1       6.014   3.928  14.539  0.00  0.00    +0.000 A 
ATOM      8  C   UNL     1       6.874   4.355  13.556  0.00  0.00    +0.000 A 
ATOM      9  N   UNL     1       7.587   5.379  14.106  0.00  0.00    +0.000 N 
ATOM     10  N   UNL     1       7.264   5.623  15.387  0.00  0.00    +0.000 NA
ATOM     11  H   UNL     1       8.310   5.945  13.673  0.00  0.00    +0.000 HD
ENDBRANCH   4   6
BRANCH   1  13
ATOM     12  O   UNL     1       3.075   3.030  20.484  0.00  0.00    +0.000 OA
ATOM     13  N   UNL     1       2.940   3.978  19.700  0.00  0.00    +0.000 N 
ATOM     14  O   UNL     1       1.917   4.661  19.564  0.00  0.00    +0.000 OA
ENDBRANCH   1  13
BRANCH   3  15
ATOM     15  N   UNL     1       7.601   5.278  18.422  0.00  0.00    +0.000 N 
ATOM     16  O   UNL     1       8.435   4.363  18.452  0.00  0.00    +0.000 OA
ATOM     17  O   UNL     1       7.799   6.468  18.694  0.00  0.00    +0.000 OA
ENDBRANCH   3  15
TORSDOF 3
ENDMDL
MODEL 8
REMARK VINA RESULT:      -6.2      2.714      3.008
REMARK  Name = 
REMARK  3 active torsions:
REMARK  status: ('A' for Active; 'I' for Inactive)
REMARK    1  A    between atoms: N_2  and  C_4
REMARK    2  A    between atoms: C_6  and  N_7
REMARK    3  A    between atoms: C_10  and  C_11
REMARK                            x       y       z     vdW  Elec       q    Type
REMARK                         _______ _______ _______ _____ _____    ______ ____
ROOT
ATOM      1  C   UNL     1       5.528   4.642  16.494  0.00  0.00    +0.000 A 
ATOM      2  C   UNL     1       4.496   3.775  16.774  0.00  0.00    +0.000 A 
ATOM      3  C   UNL     1       3.445   4.431  17.499  0.00  0.00    +0.000 A 
ATOM      4  C   UNL     1       3.744   5.753  17.781  0.00  0.00    +0.000 A 
ATOM      5  S   UNL     1       5.247   6.207  17.080  0.00  0.00    +0.000 S 
ENDROOT
BRANCH   4   6
ATOM      6  C   UNL     1       2.927   6.702  18.607  0.00  0.00    +0.000 A 
ATOM      7  C   UNL     1       2.407   7.952  18.191  0.00  0.00    +0.000 A 
ATOM      8  C   UNL     1       1.760   8.458  19.293  0.00  0.00    +0.000 A 
ATOM      9  N   UNL     1       1.911   7.524  20.275  0.00  0.00    +0.000 N 
ATOM     10  N   UNL     1       2.637   6.462  19.890  0.00  0.00    +0.000 NA
ATOM     11  H   UNL     1       1.558   7.550  21.226  0.00  0.00    +0.000 HD
ENDBRANCH   4   6
BRANCH   1  13
ATOM     12  O   UNL     1       6.607   3.947  14.616  0.00  0.00    +0.000 OA
ATOM     13  N   UNL     1       6.742   4.332  15.784  0.00  0.00    +0.000 N 
ATOM     14  O   UNL     1       7.820   4.467  16.378  0.00  0.00    +0.000 OA
ENDBRANCH   1  13
BRANCH   3  15
ATOM     15  N   UNL     1       2.233   3.762  17.878  0.00  0.00    +0.000 N 
ATOM     16  O   UNL     1       2.364   2.808  18.657  0.00  0.00    +0.000 OA
ATOM     17  O   UNL     1       1.203   4.090  17.279  0.00  0.00    +0.000 OA
ENDBRANCH   3  15
TORSDOF 3
ENDMDL
MODEL 9
REMARK VINA RESULT:      -6.2      1.873      2.098
REMARK  Name = 
REMARK  3 active torsions:
REMARK  status: ('A' for Active; 'I' for Inactive)
REMARK    1  A    between atoms: N_2  and  C_4
REMARK    2  A    between atoms: C_6  and  N_7
REMARK    3  A    between atoms: C_10  and  C_11
REMARK                            x       y       z     vdW  Elec       q    Type
REMARK                         _______ _______ _______ _____ _____    ______ ____
ROOT
ATOM      1  C   UNL     1       5.931   4.509  16.981  0.00  0.00    +0.000 A 
ATOM      2  C   UNL     1       4.874   3.677  16.690  0.00  0.00    +0.000 A 
ATOM      3  C   UNL     1       3.717   4.010  17.469  0.00  0.00    +0.000 A 
ATOM      4  C   UNL     1       3.956   5.048  18.353  0.00  0.00    +0.000 A 
ATOM      5  S   UNL     1       5.548   5.668  18.157  0.00  0.00    +0.000 S 
ENDROOT
BRANCH   4   6
ATOM      6  C   UNL     1       3.010   5.583  19.388  0.00  0.00    +0.000 A 
ATOM      7  C   UNL     1       2.319   4.832  20.369  0.00  0.00    +0.000 A 
ATOM      8  C   UNL     1       1.562   5.750  21.058  0.00  0.00    +0.000 A 
ATOM      9  N   UNL     1       1.829   6.958  20.484  0.00  0.00    +0.000 N 
ATOM     10  N   UNL     1       2.686   6.878  19.453  0.00  0.00    +0.000 NA
ATOM     11  H   UNL     1       1.459   7.868  20.736  0.00  0.00    +0.000 HD
ENDBRANCH   4   6
BRANCH   1  13
ATOM     12  O   UNL     1       7.309   4.726  15.184  0.00  0.00    +0.000 OA
ATOM     13  N   UNL     1       7.246   4.469  16.393  0.00  0.00    +0.000 N 
ATOM     14  O   UNL     1       8.205   4.183  17.121  0.00  0.00    +0.000 OA
ENDBRANCH   1  13
BRANCH   3  15
ATOM     15  N   UNL     1       2.465   3.321  17.328  0.00  0.00    +0.000 N 
ATOM     16  O   UNL     1       1.482   4.033  17.079  0.00  0.00    +0.000 OA
ATOM     17  O   UNL     1       2.452   2.120  17.620  0.00  0.00    +0.000 OA
ENDBRANCH   3  15
TORSDOF 3
ENDMDL
