MODEL 1
REMARK VINA RESULT:      -6.5      0.000      0.000
REMARK  Name = 
REMARK  7 active torsions:
REMARK  status: ('A' for Active; 'I' for Inactive)
REMARK    1  A    between atoms: C_1  and  N_2
REMARK    2  A    between atoms: N_2  and  C_3
REMARK    3  A    between atoms: N_2  and  C_4
REMARK    4  A    between atoms: C_4  and  C_5
REMARK    5  A    between atoms: C_10  and  C_11
REMARK    6  A    between atoms: C_11  and  N_12
REMARK    7  A    between atoms: C_13  and  C_15
REMARK                            x       y       z     vdW  Elec       q    Type
REMARK                         _______ _______ _______ _____ _____    ______ ____
ROOT
ATOM      1  C   UNL     1       5.304   5.435  18.029  0.00  0.00    +0.000 A 
ATOM      2  C   UNL     1       5.998   5.167  19.232  0.00  0.00    +0.000 A 
ATOM      3  C   UNL     1       7.243   5.727  19.492  0.00  0.00    +0.000 A 
ATOM      4  C   UNL     1       7.827   6.560  18.552  0.00  0.00    +0.000 A 
ATOM      5  C   UNL     1       7.183   6.799  17.333  0.00  0.00    +0.000 A 
ATOM      6  C   UNL     1       5.936   6.216  17.035  0.00  0.00    +0.000 A 
ENDROOT
BRANCH   1   7
ATOM      7  C   UNL     1       3.880   4.908  17.928  0.00  0.00    +0.000 C 
BRANCH   7   9
ATOM      8  C   UNL     1       2.480   4.085  19.737  0.00  0.00    +0.000 C 
ATOM      9  N   UNL     1       3.651   3.817  18.899  0.00  0.00    +0.000 NA
ATOM     10  C   UNL     1       3.526   2.520  18.247  0.00  0.00    +0.000 C 
ENDBRANCH   7   9
ENDBRANCH   1   7
BRANCH   6  11
ATOM     11  C   UNL     1       5.379   6.418  15.644  0.00  0.00    +0.000 C 
BRANCH  11  12
ATOM     12  N   UNL     1       5.320   5.219  14.841  0.00  0.00    +0.000 N 
ATOM     13  C   UNL     1       6.461   4.791  14.195  0.00  0.00    +0.000 C 
ATOM     14  O   UNL     1       7.542   5.356  14.278  0.00  0.00    +0.000 OA
ATOM     15  H   UNL     1       4.423   4.827  14.597  0.00  0.00    +0.000 HD
BRANCH  13  16
ATOM     16  C   UNL     1       6.293   3.563  13.365  0.00  0.00    +0.000 C 
ATOM     17  C   UNL     1       5.241   3.489  12.283  0.00  0.00    +0.000 C 
ATOM     18  C   UNL     1       6.687   3.588  11.900  0.00  0.00    +0.000 C 
ENDBRANCH  13  16
ENDBRANCH  11  12
ENDBRANCH   6  11
TORSDOF 5
ENDMDL
MODEL 2
REMARK VINA RESULT:      -6.5      2.110      5.622
REMARK  Name = 
REMARK  7 active torsions:
REMARK  status: ('A' for Active; 'I' for Inactive)
REMARK    1  A    between atoms: C_1  and  N_2
REMARK    2  A    between atoms: N_2  and  C_3
REMARK    3  A    between atoms: N_2  and  C_4
REMARK    4  A    between atoms: C_4  and  C_5
REMARK    5  A    between atoms: C_10  and  C_11
REMARK    6  A    between atoms: C_11  and  N_12
REMARK    7  A    between atoms: C_13  and  C_15
REMARK                            x       y       z     vdW  Elec       q    Type
REMARK                         _______ _______ _______ _____ _____    ______ ____
ROOT
ATOM      1  C   UNL     1       5.901   5.467  16.451  0.00  0.00    +0.000 A 
ATOM      2  C   UNL     1       6.923   6.304  16.957  0.00  0.00    +0.000 A 
ATOM      3  C   UNL     1       7.299   6.262  18.294  0.00  0.00    +0.000 A 
ATOM      4  C   UNL     1       6.657   5.389  19.157  0.00  0.00    +0.000 A 
ATOM      5  C   UNL     1       5.609   4.588  18.690  0.00  0.00    +0.000 A 
ATOM      6  C   UNL     1       5.190   4.638  17.347  0.00  0.00    +0.000 A 
ENDROOT
BRANCH   1   7
ATOM      7  C   UNL     1       5.694   5.476  14.943  0.00  0.00    +0.000 C 
BRANCH   7   9
ATOM      8  C   UNL     1       5.864   3.606  13.399  0.00  0.00    +0.000 C 
ATOM      9  N   UNL     1       6.600   4.515  14.280  0.00  0.00    +0.000 NA
ATOM     10  C   UNL     1       7.667   5.185  13.546  0.00  0.00    +0.000 C 
ENDBRANCH   7   9
ENDBRANCH   1   7
BRANCH   6  11
ATOM     11  C   UNL     1       3.964   3.841  16.963  0.00  0.00    +0.000 C 
BRANCH  11  12
ATOM     12  N   UNL     1       3.211   3.321  18.080  0.00  0.00    +0.000 N 
ATOM     13  C   UNL     1       1.858   3.578  18.152  0.00  0.00    +0.000 C 
ATOM     14  O   UNL     1       1.240   4.208  17.306  0.00  0.00    +0.000 OA
ATOM     15  H   UNL     1       3.700   2.958  18.884  0.00  0.00    +0.000 HD
BRANCH  13  16
ATOM     16  C   UNL     1       1.174   3.027  19.358  0.00  0.00    +0.000 C 
ATOM     17  C   UNL     1       1.944   2.725  20.623  0.00  0.00    +0.000 C 
ATOM     18  C   UNL     1       1.010   3.897  20.590  0.00  0.00    +0.000 C 
ENDBRANCH  13  16
ENDBRANCH  11  12
ENDBRANCH   6  11
TORSDOF 5
ENDMDL
MODEL 3
REMARK VINA RESULT:      -6.5      1.576      2.427
REMARK  Name = 
REMARK  7 active torsions:
REMARK  status: ('A' for Active; 'I' for Inactive)
REMARK    1  A    between atoms: C_1  and  N_2
REMARK    2  A    between atoms: N_2  and  C_3
REMARK    3  A    between atoms: N_2  and  C_4
REMARK    4  A    between atoms: C_4  and  C_5
REMARK    5  A    between atoms: C_10  and  C_11
REMARK    6  A    between atoms: C_11  and  N_12
REMARK    7  A    between atoms: C_13  and  C_15
REMARK                            x       y       z     vdW  Elec       q    Type
REMARK                         _______ _______ _______ _____ _____    ______ ____
ROOT
ATOM      1  C   UNL     1       4.155   5.480  18.550  0.00  0.00    +0.000 A 
ATOM      2  C   UNL     1       3.196   5.748  19.554  0.00  0.00    +0.000 A 
ATOM      3  C   UNL     1       2.378   6.870  19.496  0.00  0.00    +0.000 A 
ATOM      4  C   UNL     1       2.507   7.755  18.437  0.00  0.00    +0.000 A 
ATOM      5  C   UNL     1       3.483   7.537  17.459  0.00  0.00    +0.000 A 
ATOM      6  C   UNL     1       4.344   6.425  17.515  0.00  0.00    +0.000 A 
ENDROOT
BRANCH   1   7
ATOM      7  C   UNL     1       4.871   4.139  18.628  0.00  0.00    +0.000 C 
BRANCH   7   9
ATOM      8  C   UNL     1       3.541   2.249  17.875  0.00  0.00    +0.000 C 
ATOM      9  N   UNL     1       3.936   3.065  19.024  0.00  0.00    +0.000 NA
ATOM     10  C   UNL     1       4.484   2.225  20.082  0.00  0.00    +0.000 C 
ENDBRANCH   7   9
ENDBRANCH   1   7
BRANCH   6  11
ATOM     11  C   UNL     1       5.456   6.343  16.495  0.00  0.00    +0.000 C 
BRANCH  11  12
ATOM     12  N   UNL     1       5.344   5.238  15.572  0.00  0.00    +0.000 N 
ATOM     13  C   UNL     1       6.464   4.830  14.877  0.00  0.00    +0.000 C 
ATOM     14  O   UNL     1       7.569   5.338  15.011  0.00  0.00    +0.000 OA
ATOM     15  H   UNL     1       4.431   4.911  15.295  0.00  0.00    +0.000 HD
BRANCH  13  16
ATOM     16  C   UNL     1       6.242   3.704  13.926  0.00  0.00    +0.000 C 
ATOM     17  C   UNL     1       5.165   3.776  12.867  0.00  0.00    +0.000 C 
ATOM     18  C   UNL     1       6.605   3.875  12.462  0.00  0.00    +0.000 C 
ENDBRANCH  13  16
ENDBRANCH  11  12
ENDBRANCH   6  11
TORSDOF 5
ENDMDL
MODEL 4
REMARK VINA RESULT:      -6.4      0.876      1.160
REMARK  Name = 
REMARK  7 active torsions:
REMARK  status: ('A' for Active; 'I' for Inactive)
REMARK    1  A    between atoms: C_1  and  N_2
REMARK    2  A    between atoms: N_2  and  C_3
REMARK    3  A    between atoms: N_2  and  C_4
REMARK    4  A    between atoms: C_4  and  C_5
REMARK    5  A    between atoms: C_10  and  C_11
REMARK    6  A    between atoms: C_11  and  N_12
REMARK    7  A    between atoms: C_13  and  C_15
REMARK                            x       y       z     vdW  Elec       q    Type
REMARK                         _______ _______ _______ _____ _____    ______ ____
ROOT
ATOM      1  C   UNL     1       5.592   5.257  18.067  0.00  0.00    +0.000 A 
ATOM      2  C   UNL     1       6.412   5.066  19.204  0.00  0.00    +0.000 A 
ATOM      3  C   UNL     1       7.554   5.829  19.413  0.00  0.00    +0.000 A 
ATOM      4  C   UNL     1       7.907   6.796  18.486  0.00  0.00    +0.000 A 
ATOM      5  C   UNL     1       7.140   6.970  17.329  0.00  0.00    +0.000 A 
ATOM      6  C   UNL     1       5.998   6.185  17.081  0.00  0.00    +0.000 A 
ENDROOT
BRANCH   1   7
ATOM      7  C   UNL     1       4.280   4.486  18.032  0.00  0.00    +0.000 C 
BRANCH   7   9
ATOM      8  C   UNL     1       1.864   4.705  17.883  0.00  0.00    +0.000 C 
ATOM      9  N   UNL     1       3.126   5.404  18.132  0.00  0.00    +0.000 NA
ATOM     10  C   UNL     1       3.083   6.093  19.416  0.00  0.00    +0.000 C 
ENDBRANCH   7   9
ENDBRANCH   1   7
BRANCH   6  11
ATOM     11  C   UNL     1       5.310   6.345  15.744  0.00  0.00    +0.000 C 
BRANCH  11  12
ATOM     12  N   UNL     1       5.320   5.161  14.918  0.00  0.00    +0.000 N 
ATOM     13  C   UNL     1       6.489   4.799  14.282  0.00  0.00    +0.000 C 
ATOM     14  O   UNL     1       7.541   5.413  14.393  0.00  0.00    +0.000 OA
ATOM     15  H   UNL     1       4.447   4.731  14.653  0.00  0.00    +0.000 HD
BRANCH  13  16
ATOM     16  C   UNL     1       6.393   3.581  13.427  0.00  0.00    +0.000 C 
ATOM     17  C   UNL     1       5.358   3.477  12.330  0.00  0.00    +0.000 C 
ATOM     18  C   UNL     1       6.802   3.655  11.968  0.00  0.00    +0.000 C 
ENDBRANCH  13  16
ENDBRANCH  11  12
ENDBRANCH   6  11
TORSDOF 5
ENDMDL
MODEL 5
REMARK VINA RESULT:      -6.4      2.938      5.134
REMARK  Name = 
REMARK  7 active torsions:
REMARK  status: ('A' for Active; 'I' for Inactive)
REMARK    1  A    between atoms: C_1  and  N_2
REMARK    2  A    between atoms: N_2  and  C_3
REMARK    3  A    between atoms: N_2  and  C_4
REMARK    4  A    between atoms: C_4  and  C_5
REMARK    5  A    between atoms: C_10  and  C_11
REMARK    6  A    between atoms: C_11  and  N_12
REMARK    7  A    between atoms: C_13  and  C_15
REMARK                            x       y       z     vdW  Elec       q    Type
REMARK                         _______ _______ _______ _____ _____    ______ ____
ROOT
ATOM      1  C   UNL     1       2.274   4.338  19.330  0.00  0.00    +0.000 A 
ATOM      2  C   UNL     1       1.281   4.285  20.336  0.00  0.00    +0.000 A 
ATOM      3  C   UNL     1       1.360   3.380  21.387  0.00  0.00    +0.000 A 
ATOM      4  C   UNL     1       2.429   2.501  21.452  0.00  0.00    +0.000 A 
ATOM      5  C   UNL     1       3.397   2.501  20.442  0.00  0.00    +0.000 A 
ATOM      6  C   UNL     1       3.319   3.387  19.350  0.00  0.00    +0.000 A 
ENDROOT
BRANCH   1   7
ATOM      7  C   UNL     1       2.173   5.480  18.329  0.00  0.00    +0.000 C 
BRANCH   7   9
ATOM      8  C   UNL     1       3.353   7.506  17.686  0.00  0.00    +0.000 C 
ATOM      9  N   UNL     1       2.919   6.665  18.803  0.00  0.00    +0.000 NA
ATOM     10  C   UNL     1       2.152   7.448  19.763  0.00  0.00    +0.000 C 
ENDBRANCH   7   9
ENDBRANCH   1   7
BRANCH   6  11
ATOM     11  C   UNL     1       4.330   3.225  18.238  0.00  0.00    +0.000 C 
BRANCH  11  12
ATOM     12  N   UNL     1       5.627   3.796  18.517  0.00  0.00    +0.000 N 
ATOM     13  C   UNL     1       6.150   4.726  17.643  0.00  0.00    +0.000 C 
ATOM     14  O   UNL     1       5.567   5.122  16.643  0.00  0.00    +0.000 OA
ATOM     15  H   UNL     1       6.217   3.373  19.218  0.00  0.00    +0.000 HD
BRANCH  13  16
ATOM     16  C   UNL     1       7.506   5.234  17.998  0.00  0.00    +0.000 C 
ATOM     17  C   UNL     1       7.771   6.714  18.150  0.00  0.00    +0.000 C 
ATOM     18  C   UNL     1       7.745   5.841  19.368  0.00  0.00    +0.000 C 
ENDBRANCH  13  16
ENDBRANCH  11  12
ENDBRANCH   6  11
TORSDOF 5
ENDMDL
MODEL 6
REMARK VINA RESULT:      -6.4      1.801      2.340
REMARK  Name = 
REMARK  7 active torsions:
REMARK  status: ('A' for Active; 'I' for Inactive)
REMARK    1  A    between atoms: C_1  and  N_2
REMARK    2  A    between atoms: N_2  and  C_3
REMARK    3  A    between atoms: N_2  and  C_4
REMARK    4  A    between atoms: C_4  and  C_5
REMARK    5  A    between atoms: C_10  and  C_11
REMARK    6  A    between atoms: C_11  and  N_12
REMARK    7  A    between atoms: C_13  and  C_15
REMARK                            x       y       z     vdW  Elec       q    Type
REMARK                         _______ _______ _______ _____ _____    ______ ____
ROOT
ATOM      1  C   UNL     1       3.376   4.634  17.369  0.00  0.00    +0.000 A 
ATOM      2  C   UNL     1       2.542   5.598  17.983  0.00  0.00    +0.000 A 
ATOM      3  C   UNL     1       2.893   6.942  18.022  0.00  0.00    +0.000 A 
ATOM      4  C   UNL     1       4.090   7.351  17.457  0.00  0.00    +0.000 A 
ATOM      5  C   UNL     1       4.954   6.409  16.889  0.00  0.00    +0.000 A 
ATOM      6  C   UNL     1       4.634   5.038  16.868  0.00  0.00    +0.000 A 
ENDROOT
BRANCH   1   7
ATOM      7  C   UNL     1       2.810   3.227  17.234  0.00  0.00    +0.000 C 
BRANCH   7   9
ATOM      8  C   UNL     1       1.287   2.189  18.819  0.00  0.00    +0.000 C 
ATOM      9  N   UNL     1       2.672   2.585  18.558  0.00  0.00    +0.000 NA
ATOM     10  C   UNL     1       3.566   1.443  18.709  0.00  0.00    +0.000 C 
ENDBRANCH   7   9
ENDBRANCH   1   7
BRANCH   6  11
ATOM     11  C   UNL     1       5.684   4.077  16.360  0.00  0.00    +0.000 C 
BRANCH  11  12
ATOM     12  N   UNL     1       5.633   3.829  14.938  0.00  0.00    +0.000 N 
ATOM     13  C   UNL     1       6.571   4.425  14.121  0.00  0.00    +0.000 C 
ATOM     14  O   UNL     1       7.472   5.144  14.532  0.00  0.00    +0.000 OA
ATOM     15  H   UNL     1       4.814   3.399  14.536  0.00  0.00    +0.000 HD
BRANCH  13  16
ATOM     16  C   UNL     1       6.418   4.136  12.666  0.00  0.00    +0.000 C 
ATOM     17  C   UNL     1       6.300   2.716  12.161  0.00  0.00    +0.000 C 
ATOM     18  C   UNL     1       5.095   3.609  12.142  0.00  0.00    +0.000 C 
ENDBRANCH  13  16
ENDBRANCH  11  12
ENDBRANCH   6  11
TORSDOF 5
ENDMDL
MODEL 7
REMARK VINA RESULT:      -6.3      2.290      4.417
REMARK  Name = 
REMARK  7 active torsions:
REMARK  status: ('A' for Active; 'I' for Inactive)
REMARK    1  A    between atoms: C_1  and  N_2
REMARK    2  A    between atoms: N_2  and  C_3
REMARK    3  A    between atoms: N_2  and  C_4
REMARK    4  A    between atoms: C_4  and  C_5
REMARK    5  A    between atoms: C_10  and  C_11
REMARK    6  A    between atoms: C_11  and  N_12
REMARK    7  A    between atoms: C_13  and  C_15
REMARK                            x       y       z     vdW  Elec       q    Type
REMARK                         _______ _______ _______ _____ _____    ______ ____
ROOT
ATOM      1  C   UNL     1       2.671   4.676  19.448  0.00  0.00    +0.000 A 
ATOM      2  C   UNL     1       1.304   4.317  19.508  0.00  0.00    +0.000 A 
ATOM      3  C   UNL     1       0.904   2.987  19.552  0.00  0.00    +0.000 A 
ATOM      4  C   UNL     1       1.861   1.985  19.528  0.00  0.00    +0.000 A 
ATOM      5  C   UNL     1       3.217   2.315  19.418  0.00  0.00    +0.000 A 
ATOM      6  C   UNL     1       3.642   3.655  19.339  0.00  0.00    +0.000 A 
ENDROOT
BRANCH   1   7
ATOM      7  C   UNL     1       2.996   6.157  19.578  0.00  0.00    +0.000 C 
BRANCH   7   9
ATOM      8  C   UNL     1       2.055   8.181  18.614  0.00  0.00    +0.000 C 
ATOM      9  N   UNL     1       2.668   6.881  18.332  0.00  0.00    +0.000 NA
ATOM     10  C   UNL     1       3.832   7.042  17.469  0.00  0.00    +0.000 C 
ENDBRANCH   7   9
ENDBRANCH   1   7
BRANCH   6  11
ATOM     11  C   UNL     1       5.110   3.913  19.083  0.00  0.00    +0.000 C 
BRANCH  11  12
ATOM     12  N   UNL     1       5.478   3.957  17.687  0.00  0.00    +0.000 N 
ATOM     13  C   UNL     1       6.757   4.342  17.345  0.00  0.00    +0.000 C 
ATOM     14  O   UNL     1       7.621   4.632  18.160  0.00  0.00    +0.000 OA
ATOM     15  H   UNL     1       4.759   3.905  16.981  0.00  0.00    +0.000 HD
BRANCH  13  16
ATOM     16  C   UNL     1       7.032   4.387  15.880  0.00  0.00    +0.000 C 
ATOM     17  C   UNL     1       6.006   3.912  14.877  0.00  0.00    +0.000 C 
ATOM     18  C   UNL     1       6.287   5.379  15.006  0.00  0.00    +0.000 C 
ENDBRANCH  13  16
ENDBRANCH  11  12
ENDBRANCH   6  11
TORSDOF 5
ENDMDL
MODEL 8
REMARK VINA RESULT:      -6.2      3.659      7.044
REMARK  Name = 
REMARK  7 active torsions:
REMARK  status: ('A' for Active; 'I' for Inactive)
REMARK    1  A    between atoms: C_1  and  N_2
REMARK    2  A    between atoms: N_2  and  C_3
REMARK    3  A    between atoms: N_2  and  C_4
REMARK    4  A    between atoms: C_4  and  C_5
REMARK    5  A    between atoms: C_10  and  C_11
REMARK    6  A    between atoms: C_11  and  N_12
REMARK    7  A    between atoms: C_13  and  C_15
REMARK                            x       y       z     vdW  Elec       q    Type
REMARK                         _______ _______ _______ _____ _____    ______ ____
ROOT
ATOM      1  C   UNL     1       3.963   4.669  17.506  0.00  0.00    +0.000 A 
ATOM      2  C   UNL     1       3.972   3.259  17.395  0.00  0.00    +0.000 A 
ATOM      3  C   UNL     1       2.846   2.500  17.689  0.00  0.00    +0.000 A 
ATOM      4  C   UNL     1       1.688   3.132  18.111  0.00  0.00    +0.000 A 
ATOM      5  C   UNL     1       1.670   4.522  18.277  0.00  0.00    +0.000 A 
ATOM      6  C   UNL     1       2.809   5.307  18.015  0.00  0.00    +0.000 A 
ENDROOT
BRANCH   1   7
ATOM      7  C   UNL     1       5.193   5.404  16.993  0.00  0.00    +0.000 C 
BRANCH   7   9
ATOM      8  C   UNL     1       6.754   4.545  15.339  0.00  0.00    +0.000 C 
ATOM      9  N   UNL     1       6.299   4.460  16.728  0.00  0.00    +0.000 NA
ATOM     10  C   UNL     1       7.417   4.654  17.644  0.00  0.00    +0.000 C 
ENDBRANCH   7   9
ENDBRANCH   1   7
BRANCH   6  11
ATOM     11  C   UNL     1       2.742   6.779  18.353  0.00  0.00    +0.000 C 
BRANCH  11  12
ATOM     12  N   UNL     1       2.276   7.068  19.689  0.00  0.00    +0.000 N 
ATOM     13  C   UNL     1       1.655   8.275  19.934  0.00  0.00    +0.000 C 
ATOM     14  O   UNL     1       1.449   9.120  19.075  0.00  0.00    +0.000 OA
ATOM     15  H   UNL     1       2.582   6.491  20.458  0.00  0.00    +0.000 HD
BRANCH  13  16
ATOM     16  C   UNL     1       1.239   8.495  21.349  0.00  0.00    +0.000 C 
ATOM     17  C   UNL     1       0.523   9.759  21.765  0.00  0.00    +0.000 C 
ATOM     18  C   UNL     1      -0.234   8.466  21.711  0.00  0.00    +0.000 C 
ENDBRANCH  13  16
ENDBRANCH  11  12
ENDBRANCH   6  11
TORSDOF 5
ENDMDL
MODEL 9
REMARK VINA RESULT:      -6.2      2.133      4.249
REMARK  Name = 
REMARK  7 active torsions:
REMARK  status: ('A' for Active; 'I' for Inactive)
REMARK    1  A    between atoms: C_1  and  N_2
REMARK    2  A    between atoms: N_2  and  C_3
REMARK    3  A    between atoms: N_2  and  C_4
REMARK    4  A    between atoms: C_4  and  C_5
REMARK    5  A    between atoms: C_10  and  C_11
REMARK    6  A    between atoms: C_11  and  N_12
REMARK    7  A    between atoms: C_13  and  C_15
REMARK                            x       y       z     vdW  Elec       q    Type
REMARK                         _______ _______ _______ _____ _____    ______ ____
ROOT
ATOM      1  C   UNL     1       2.674   4.555  19.405  0.00  0.00    +0.000 A 
ATOM      2  C   UNL     1       1.341   4.283  19.792  0.00  0.00    +0.000 A 
ATOM      3  C   UNL     1       0.817   2.997  19.737  0.00  0.00    +0.000 A 
ATOM      4  C   UNL     1       1.611   1.955  19.286  0.00  0.00    +0.000 A 
ATOM      5  C   UNL     1       2.917   2.208  18.850  0.00  0.00    +0.000 A 
ATOM      6  C   UNL     1       3.457   3.508  18.866  0.00  0.00    +0.000 A 
ENDROOT
BRANCH   1   7
ATOM      7  C   UNL     1       3.190   5.962  19.670  0.00  0.00    +0.000 C 
BRANCH   7   9
ATOM      8  C   UNL     1       1.844   7.916  20.198  0.00  0.00    +0.000 C 
ATOM      9  N   UNL     1       2.249   6.976  19.151  0.00  0.00    +0.000 NA
ATOM     10  C   UNL     1       2.792   7.692  18.004  0.00  0.00    +0.000 C 
ENDBRANCH   7   9
ENDBRANCH   1   7
BRANCH   6  11
ATOM     11  C   UNL     1       4.823   3.711  18.251  0.00  0.00    +0.000 C 
BRANCH  11  12
ATOM     12  N   UNL     1       4.803   4.122  16.867  0.00  0.00    +0.000 N 
ATOM     13  C   UNL     1       5.994   4.429  16.243  0.00  0.00    +0.000 C 
ATOM     14  O   UNL     1       7.086   4.353  16.788  0.00  0.00    +0.000 OA
ATOM     15  H   UNL     1       3.926   4.373  16.435  0.00  0.00    +0.000 HD
BRANCH  13  16
ATOM     16  C   UNL     1       5.868   4.874  14.825  0.00  0.00    +0.000 C 
ATOM     17  C   UNL     1       7.054   4.846  13.890  0.00  0.00    +0.000 C 
ATOM     18  C   UNL     1       5.948   3.851  13.708  0.00  0.00    +0.000 C 
ENDBRANCH  13  16
ENDBRANCH  11  12
ENDBRANCH   6  11
TORSDOF 5
ENDMDL
