MODEL 1
REMARK VINA RESULT:      -7.2      0.000      0.000
REMARK  Name = 
REMARK  3 active torsions:
REMARK  status: ('A' for Active; 'I' for Inactive)
REMARK    1  A    between atoms: C_1  and  O_2
REMARK    2  A    between atoms: O_2  and  C_3
REMARK    3  A    between atoms: C_13  and  C_14
REMARK                            x       y       z     vdW  Elec       q    Type
REMARK                         _______ _______ _______ _____ _____    ______ ____
ROOT
ATOM      1  C   UNL     1       3.958   2.470  20.596  0.00  0.00    +0.000 A 
ATOM      2  C   UNL     1       2.930   2.144  21.485  0.00  0.00    +0.000 A 
ATOM      3  C   UNL     1       1.806   2.957  21.570  0.00  0.00    +0.000 A 
ATOM      4  C   UNL     1       1.716   4.093  20.768  0.00  0.00    +0.000 A 
ATOM      5  C   UNL     1       2.733   4.442  19.892  0.00  0.00    +0.000 A 
ATOM      6  N   UNL     1       2.609   5.564  19.161  0.00  0.00    +0.000 NA
ATOM      7  C   UNL     1       3.622   5.902  18.343  0.00  0.00    +0.000 A 
ATOM      8  C   UNL     1       3.512   7.082  17.618  0.00  0.00    +0.000 A 
ATOM      9  C   UNL     1       4.526   7.513  16.771  0.00  0.00    +0.000 A 
ATOM     10  C   UNL     1       5.667   6.735  16.633  0.00  0.00    +0.000 A 
ATOM     11  C   UNL     1       5.791   5.529  17.345  0.00  0.00    +0.000 A 
ATOM     12  C   UNL     1       4.777   5.101  18.219  0.00  0.00    +0.000 A 
ATOM     13  N   UNL     1       4.872   3.963  18.950  0.00  0.00    +0.000 NA
ATOM     14  C   UNL     1       3.875   3.625  19.799  0.00  0.00    +0.000 A 
ENDROOT
BRANCH  11  15
ATOM     15  C   UNL     1       7.044   4.746  17.124  0.00  0.00    +0.000 C 
ATOM     16  N   UNL     1       7.752   4.331  18.212  0.00  0.00    +0.000 N 
ATOM     17  O   UNL     1       7.432   4.472  15.991  0.00  0.00    +0.000 OA
ATOM     18  H   UNL     1       7.467   4.589  19.155  0.00  0.00    +0.000 HD
ATOM     19  H   UNL     1       8.614   3.822  18.078  0.00  0.00    +0.000 HD
ENDBRANCH  11  15
BRANCH   1  21
ATOM     20  C   UNL     1       5.421   0.837  21.535  0.00  0.00    +0.000 C 
ATOM     21  O   UNL     1       5.122   1.742  20.480  0.00  0.00    +0.000 OA
ENDBRANCH   1  21
TORSDOF 2
ENDMDL
MODEL 2
REMARK VINA RESULT:      -7.2      1.036      1.053
REMARK  Name = 
REMARK  3 active torsions:
REMARK  status: ('A' for Active; 'I' for Inactive)
REMARK    1  A    between atoms: C_1  and  O_2
REMARK    2  A    between atoms: O_2  and  C_3
REMARK    3  A    between atoms: C_13  and  C_14
REMARK                            x       y       z     vdW  Elec       q    Type
REMARK                         _______ _______ _______ _____ _____    ______ ____
ROOT
ATOM      1  C   UNL     1       3.611   2.684  20.658  0.00  0.00    +0.000 A 
ATOM      2  C   UNL     1       2.323   2.330  21.070  0.00  0.00    +0.000 A 
ATOM      3  C   UNL     1       1.223   3.000  20.547  0.00  0.00    +0.000 A 
ATOM      4  C   UNL     1       1.415   4.020  19.618  0.00  0.00    +0.000 A 
ATOM      5  C   UNL     1       2.687   4.396  19.209  0.00  0.00    +0.000 A 
ATOM      6  N   UNL     1       2.818   5.406  18.332  0.00  0.00    +0.000 NA
ATOM      7  C   UNL     1       4.061   5.777  17.974  0.00  0.00    +0.000 A 
ATOM      8  C   UNL     1       4.199   6.847  17.099  0.00  0.00    +0.000 A 
ATOM      9  C   UNL     1       5.450   7.306  16.702  0.00  0.00    +0.000 A 
ATOM     10  C   UNL     1       6.586   6.668  17.180  0.00  0.00    +0.000 A 
ATOM     11  C   UNL     1       6.467   5.573  18.054  0.00  0.00    +0.000 A 
ATOM     12  C   UNL     1       5.205   5.120  18.474  0.00  0.00    +0.000 A 
ATOM     13  N   UNL     1       5.049   4.090  19.342  0.00  0.00    +0.000 NA
ATOM     14  C   UNL     1       3.807   3.725  19.732  0.00  0.00    +0.000 A 
ENDROOT
BRANCH  11  15
ATOM     15  C   UNL     1       7.741   4.935  18.504  0.00  0.00    +0.000 C 
ATOM     16  N   UNL     1       8.224   5.248  19.739  0.00  0.00    +0.000 N 
ATOM     17  O   UNL     1       8.343   4.140  17.786  0.00  0.00    +0.000 OA
ATOM     18  H   UNL     1       7.760   5.939  20.326  0.00  0.00    +0.000 HD
ATOM     19  H   UNL     1       9.097   4.844  20.048  0.00  0.00    +0.000 HD
ENDBRANCH  11  15
BRANCH   1  21
ATOM     20  C   UNL     1       5.127   0.843  20.606  0.00  0.00    +0.000 C 
ATOM     21  O   UNL     1       4.756   2.100  21.156  0.00  0.00    +0.000 OA
ENDBRANCH   1  21
TORSDOF 2
ENDMDL
MODEL 3
REMARK VINA RESULT:      -7.2      0.977      4.969
REMARK  Name = 
REMARK  3 active torsions:
REMARK  status: ('A' for Active; 'I' for Inactive)
REMARK    1  A    between atoms: C_1  and  O_2
REMARK    2  A    between atoms: O_2  and  C_3
REMARK    3  A    between atoms: C_13  and  C_14
REMARK                            x       y       z     vdW  Elec       q    Type
REMARK                         _______ _______ _______ _____ _____    ______ ____
ROOT
ATOM      1  C   UNL     1       5.586   5.414  17.157  0.00  0.00    +0.000 A 
ATOM      2  C   UNL     1       5.541   6.575  16.380  0.00  0.00    +0.000 A 
ATOM      3  C   UNL     1       4.506   7.485  16.559  0.00  0.00    +0.000 A 
ATOM      4  C   UNL     1       3.521   7.231  17.511  0.00  0.00    +0.000 A 
ATOM      5  C   UNL     1       3.540   6.076  18.280  0.00  0.00    +0.000 A 
ATOM      6  N   UNL     1       2.551   5.864  19.164  0.00  0.00    +0.000 NA
ATOM      7  C   UNL     1       2.569   4.723  19.876  0.00  0.00    +0.000 A 
ATOM      8  C   UNL     1       1.525   4.485  20.761  0.00  0.00    +0.000 A 
ATOM      9  C   UNL     1       1.461   3.318  21.513  0.00  0.00    +0.000 A 
ATOM     10  C   UNL     1       2.473   2.377  21.388  0.00  0.00    +0.000 A 
ATOM     11  C   UNL     1       3.547   2.606  20.510  0.00  0.00    +0.000 A 
ATOM     12  C   UNL     1       3.605   3.775  19.732  0.00  0.00    +0.000 A 
ATOM     13  N   UNL     1       4.604   4.018  18.849  0.00  0.00    +0.000 NA
ATOM     14  C   UNL     1       4.583   5.147  18.106  0.00  0.00    +0.000 A 
ENDROOT
BRANCH  11  15
ATOM     15  C   UNL     1       4.602   1.549  20.452  0.00  0.00    +0.000 C 
ATOM     16  N   UNL     1       4.676   0.766  19.339  0.00  0.00    +0.000 N 
ATOM     17  O   UNL     1       5.392   1.387  21.378  0.00  0.00    +0.000 OA
ATOM     18  H   UNL     1       4.000   0.859  18.583  0.00  0.00    +0.000 HD
ATOM     19  H   UNL     1       5.368   0.031  19.295  0.00  0.00    +0.000 HD
ENDBRANCH  11  15
BRANCH   1  21
ATOM     20  C   UNL     1       7.775   4.644  17.711  0.00  0.00    +0.000 C 
ATOM     21  O   UNL     1       6.552   4.441  17.015  0.00  0.00    +0.000 OA
ENDBRANCH   1  21
TORSDOF 2
ENDMDL
MODEL 4
REMARK VINA RESULT:      -7.0      2.159      5.013
REMARK  Name = 
REMARK  3 active torsions:
REMARK  status: ('A' for Active; 'I' for Inactive)
REMARK    1  A    between atoms: C_1  and  O_2
REMARK    2  A    between atoms: O_2  and  C_3
REMARK    3  A    between atoms: C_13  and  C_14
REMARK                            x       y       z     vdW  Elec       q    Type
REMARK                         _______ _______ _______ _____ _____    ______ ____
ROOT
ATOM      1  C   UNL     1       6.911   5.779  19.084  0.00  0.00    +0.000 A 
ATOM      2  C   UNL     1       7.600   6.718  18.312  0.00  0.00    +0.000 A 
ATOM      3  C   UNL     1       6.984   7.285  17.202  0.00  0.00    +0.000 A 
ATOM      4  C   UNL     1       5.684   6.909  16.869  0.00  0.00    +0.000 A 
ATOM      5  C   UNL     1       4.991   5.965  17.614  0.00  0.00    +0.000 A 
ATOM      6  N   UNL     1       3.750   5.617  17.233  0.00  0.00    +0.000 NA
ATOM      7  C   UNL     1       3.108   4.676  17.948  0.00  0.00    +0.000 A 
ATOM      8  C   UNL     1       1.842   4.286  17.531  0.00  0.00    +0.000 A 
ATOM      9  C   UNL     1       1.125   3.302  18.203  0.00  0.00    +0.000 A 
ATOM     10  C   UNL     1       1.683   2.710  19.328  0.00  0.00    +0.000 A 
ATOM     11  C   UNL     1       2.956   3.102  19.776  0.00  0.00    +0.000 A 
ATOM     12  C   UNL     1       3.693   4.081  19.087  0.00  0.00    +0.000 A 
ATOM     13  N   UNL     1       4.937   4.463  19.465  0.00  0.00    +0.000 NA
ATOM     14  C   UNL     1       5.606   5.386  18.739  0.00  0.00    +0.000 A 
ENDROOT
BRANCH  11  15
ATOM     15  C   UNL     1       3.472   2.426  21.004  0.00  0.00    +0.000 C 
ATOM     16  N   UNL     1       4.700   1.837  20.955  0.00  0.00    +0.000 N 
ATOM     17  O   UNL     1       2.814   2.401  22.041  0.00  0.00    +0.000 OA
ATOM     18  H   UNL     1       5.237   1.811  20.090  0.00  0.00    +0.000 HD
ATOM     19  H   UNL     1       5.052   1.355  21.770  0.00  0.00    +0.000 HD
ENDBRANCH  11  15
BRANCH   1  21
ATOM     20  C   UNL     1       8.880   5.159  20.280  0.00  0.00    +0.000 C 
ATOM     21  O   UNL     1       7.463   5.140  20.173  0.00  0.00    +0.000 OA
ENDBRANCH   1  21
TORSDOF 2
ENDMDL
MODEL 5
REMARK VINA RESULT:      -6.9      2.475      5.378
REMARK  Name = 
REMARK  3 active torsions:
REMARK  status: ('A' for Active; 'I' for Inactive)
REMARK    1  A    between atoms: C_1  and  O_2
REMARK    2  A    between atoms: O_2  and  C_3
REMARK    3  A    between atoms: C_13  and  C_14
REMARK                            x       y       z     vdW  Elec       q    Type
REMARK                         _______ _______ _______ _____ _____    ______ ____
ROOT
ATOM      1  C   UNL     1       6.452   4.963  18.410  0.00  0.00    +0.000 A 
ATOM      2  C   UNL     1       7.384   5.023  17.370  0.00  0.00    +0.000 A 
ATOM      3  C   UNL     1       7.070   4.481  16.129  0.00  0.00    +0.000 A 
ATOM      4  C   UNL     1       5.828   3.881  15.934  0.00  0.00    +0.000 A 
ATOM      5  C   UNL     1       4.896   3.797  16.960  0.00  0.00    +0.000 A 
ATOM      6  N   UNL     1       3.724   3.182  16.728  0.00  0.00    +0.000 NA
ATOM      7  C   UNL     1       2.848   3.082  17.744  0.00  0.00    +0.000 A 
ATOM      8  C   UNL     1       1.654   2.411  17.516  0.00  0.00    +0.000 A 
ATOM      9  C   UNL     1       0.710   2.244  18.523  0.00  0.00    +0.000 A 
ATOM     10  C   UNL     1       0.961   2.776  19.779  0.00  0.00    +0.000 A 
ATOM     11  C   UNL     1       2.157   3.473  20.026  0.00  0.00    +0.000 A 
ATOM     12  C   UNL     1       3.123   3.625  19.017  0.00  0.00    +0.000 A 
ATOM     13  N   UNL     1       4.303   4.260  19.223  0.00  0.00    +0.000 NA
ATOM     14  C   UNL     1       5.205   4.342  18.219  0.00  0.00    +0.000 A 
ENDROOT
BRANCH  11  15
ATOM     15  C   UNL     1       2.337   4.028  21.402  0.00  0.00    +0.000 C 
ATOM     16  N   UNL     1       2.366   5.381  21.557  0.00  0.00    +0.000 N 
ATOM     17  O   UNL     1       2.451   3.289  22.376  0.00  0.00    +0.000 OA
ATOM     18  H   UNL     1       2.318   6.005  20.753  0.00  0.00    +0.000 HD
ATOM     19  H   UNL     1       2.512   5.772  22.477  0.00  0.00    +0.000 HD
ENDBRANCH  11  15
BRANCH   1  21
ATOM     20  C   UNL     1       8.061   5.619  20.045  0.00  0.00    +0.000 C 
ATOM     21  O   UNL     1       6.699   5.439  19.680  0.00  0.00    +0.000 OA
ENDBRANCH   1  21
TORSDOF 2
ENDMDL
MODEL 6
REMARK VINA RESULT:      -6.8      3.635      5.477
REMARK  Name = 
REMARK  3 active torsions:
REMARK  status: ('A' for Active; 'I' for Inactive)
REMARK    1  A    between atoms: C_1  and  O_2
REMARK    2  A    between atoms: O_2  and  C_3
REMARK    3  A    between atoms: C_13  and  C_14
REMARK                            x       y       z     vdW  Elec       q    Type
REMARK                         _______ _______ _______ _____ _____    ______ ____
ROOT
ATOM      1  C   UNL     1       2.798   4.714  20.128  0.00  0.00    +0.000 A 
ATOM      2  C   UNL     1       3.422   3.727  19.360  0.00  0.00    +0.000 A 
ATOM      3  C   UNL     1       3.847   4.021  18.071  0.00  0.00    +0.000 A 
ATOM      4  C   UNL     1       3.647   5.300  17.554  0.00  0.00    +0.000 A 
ATOM      5  C   UNL     1       3.016   6.289  18.295  0.00  0.00    +0.000 A 
ATOM      6  N   UNL     1       2.821   7.497  17.740  0.00  0.00    +0.000 NA
ATOM      7  C   UNL     1       2.177   8.431  18.462  0.00  0.00    +0.000 A 
ATOM      8  C   UNL     1       1.940   9.667  17.874  0.00  0.00    +0.000 A 
ATOM      9  C   UNL     1       1.259  10.674  18.547  0.00  0.00    +0.000 A 
ATOM     10  C   UNL     1       0.821  10.444  19.844  0.00  0.00    +0.000 A 
ATOM     11  C   UNL     1       1.065   9.206  20.463  0.00  0.00    +0.000 A 
ATOM     12  C   UNL     1       1.735   8.177  19.778  0.00  0.00    +0.000 A 
ATOM     13  N   UNL     1       1.960   6.958  20.327  0.00  0.00    +0.000 NA
ATOM     14  C   UNL     1       2.580   6.000  19.602  0.00  0.00    +0.000 A 
ENDROOT
BRANCH  11  15
ATOM     15  C   UNL     1       0.576   9.050  21.866  0.00  0.00    +0.000 C 
ATOM     16  N   UNL     1      -0.578   8.358  22.079  0.00  0.00    +0.000 N 
ATOM     17  O   UNL     1       1.196   9.527  22.813  0.00  0.00    +0.000 OA
ATOM     18  H   UNL     1      -1.127   7.996  21.300  0.00  0.00    +0.000 HD
ATOM     19  H   UNL     1      -0.936   8.265  23.019  0.00  0.00    +0.000 HD
ENDBRANCH  11  15
BRANCH   1  21
ATOM     20  C   UNL     1       1.886   3.173  21.703  0.00  0.00    +0.000 C 
ATOM     21  O   UNL     1       2.310   4.494  21.398  0.00  0.00    +0.000 OA
ENDBRANCH   1  21
TORSDOF 2
ENDMDL
MODEL 7
REMARK VINA RESULT:      -6.7      2.880      5.676
REMARK  Name = 
REMARK  3 active torsions:
REMARK  status: ('A' for Active; 'I' for Inactive)
REMARK    1  A    between atoms: C_1  and  O_2
REMARK    2  A    between atoms: O_2  and  C_3
REMARK    3  A    between atoms: C_13  and  C_14
REMARK                            x       y       z     vdW  Elec       q    Type
REMARK                         _______ _______ _______ _____ _____    ______ ____
ROOT
ATOM      1  C   UNL     1       1.545   7.872  20.005  0.00  0.00    +0.000 A 
ATOM      2  C   UNL     1       1.586   9.146  19.433  0.00  0.00    +0.000 A 
ATOM      3  C   UNL     1       2.205   9.331  18.202  0.00  0.00    +0.000 A 
ATOM      4  C   UNL     1       2.781   8.243  17.550  0.00  0.00    +0.000 A 
ATOM      5  C   UNL     1       2.764   6.973  18.110  0.00  0.00    +0.000 A 
ATOM      6  N   UNL     1       3.360   5.963  17.453  0.00  0.00    +0.000 NA
ATOM      7  C   UNL     1       3.362   4.747  18.028  0.00  0.00    +0.000 A 
ATOM      8  C   UNL     1       4.012   3.711  17.369  0.00  0.00    +0.000 A 
ATOM      9  C   UNL     1       4.080   2.433  17.911  0.00  0.00    +0.000 A 
ATOM     10  C   UNL     1       3.468   2.184  19.132  0.00  0.00    +0.000 A 
ATOM     11  C   UNL     1       2.792   3.214  19.807  0.00  0.00    +0.000 A 
ATOM     12  C   UNL     1       2.739   4.513  19.273  0.00  0.00    +0.000 A 
ATOM     13  N   UNL     1       2.126   5.542  19.908  0.00  0.00    +0.000 NA
ATOM     14  C   UNL     1       2.141   6.776  19.355  0.00  0.00    +0.000 A 
ENDROOT
BRANCH  11  15
ATOM     15  C   UNL     1       2.146   2.853  21.106  0.00  0.00    +0.000 C 
ATOM     16  N   UNL     1       0.788   2.907  21.193  0.00  0.00    +0.000 N 
ATOM     17  O   UNL     1       2.817   2.508  22.075  0.00  0.00    +0.000 OA
ATOM     18  H   UNL     1       0.222   3.234  20.412  0.00  0.00    +0.000 HD
ATOM     19  H   UNL     1       0.337   2.690  22.071  0.00  0.00    +0.000 HD
ENDBRANCH  11  15
BRANCH   1  21
ATOM     20  C   UNL     1      -0.071   8.458  21.658  0.00  0.00    +0.000 C 
ATOM     21  O   UNL     1       0.989   7.610  21.238  0.00  0.00    +0.000 OA
ENDBRANCH   1  21
TORSDOF 2
ENDMDL
MODEL 8
REMARK VINA RESULT:      -6.7      2.758      5.750
REMARK  Name = 
REMARK  3 active torsions:
REMARK  status: ('A' for Active; 'I' for Inactive)
REMARK    1  A    between atoms: C_1  and  O_2
REMARK    2  A    between atoms: O_2  and  C_3
REMARK    3  A    between atoms: C_13  and  C_14
REMARK                            x       y       z     vdW  Elec       q    Type
REMARK                         _______ _______ _______ _____ _____    ______ ____
ROOT
ATOM      1  C   UNL     1       6.103   6.098  16.757  0.00  0.00    +0.000 A 
ATOM      2  C   UNL     1       7.080   5.692  15.843  0.00  0.00    +0.000 A 
ATOM      3  C   UNL     1       6.992   4.438  15.251  0.00  0.00    +0.000 A 
ATOM      4  C   UNL     1       5.932   3.595  15.576  0.00  0.00    +0.000 A 
ATOM      5  C   UNL     1       4.962   3.974  16.494  0.00  0.00    +0.000 A 
ATOM      6  N   UNL     1       3.975   3.112  16.793  0.00  0.00    +0.000 NA
ATOM      7  C   UNL     1       3.064   3.485  17.710  0.00  0.00    +0.000 A 
ATOM      8  C   UNL     1       2.067   2.579  18.050  0.00  0.00    +0.000 A 
ATOM      9  C   UNL     1       1.105   2.881  19.007  0.00  0.00    +0.000 A 
ATOM     10  C   UNL     1       1.132   4.125  19.623  0.00  0.00    +0.000 A 
ATOM     11  C   UNL     1       2.123   5.062  19.281  0.00  0.00    +0.000 A 
ATOM     12  C   UNL     1       3.110   4.752  18.330  0.00  0.00    +0.000 A 
ATOM     13  N   UNL     1       4.103   5.614  17.997  0.00  0.00    +0.000 NA
ATOM     14  C   UNL     1       5.041   5.241  17.099  0.00  0.00    +0.000 A 
ENDROOT
BRANCH  11  15
ATOM     15  C   UNL     1       2.066   6.382  19.980  0.00  0.00    +0.000 C 
ATOM     16  N   UNL     1       2.311   7.510  19.257  0.00  0.00    +0.000 N 
ATOM     17  O   UNL     1       1.800   6.457  21.176  0.00  0.00    +0.000 OA
ATOM     18  H   UNL     1       2.577   7.460  18.275  0.00  0.00    +0.000 HD
ATOM     19  H   UNL     1       2.301   8.408  19.720  0.00  0.00    +0.000 HD
ENDBRANCH  11  15
BRANCH   1  21
ATOM     20  C   UNL     1       7.408   7.929  17.555  0.00  0.00    +0.000 C 
ATOM     21  O   UNL     1       6.137   7.306  17.419  0.00  0.00    +0.000 OA
ENDBRANCH   1  21
TORSDOF 2
ENDMDL
MODEL 9
REMARK VINA RESULT:      -6.7      1.536      1.633
REMARK  Name = 
REMARK  3 active torsions:
REMARK  status: ('A' for Active; 'I' for Inactive)
REMARK    1  A    between atoms: C_1  and  O_2
REMARK    2  A    between atoms: O_2  and  C_3
REMARK    3  A    between atoms: C_13  and  C_14
REMARK                            x       y       z     vdW  Elec       q    Type
REMARK                         _______ _______ _______ _____ _____    ______ ____
ROOT
ATOM      1  C   UNL     1       3.532   2.239  19.246  0.00  0.00    +0.000 A 
ATOM      2  C   UNL     1       2.211   1.789  19.317  0.00  0.00    +0.000 A 
ATOM      3  C   UNL     1       1.189   2.562  18.779  0.00  0.00    +0.000 A 
ATOM      4  C   UNL     1       1.491   3.781  18.175  0.00  0.00    +0.000 A 
ATOM      5  C   UNL     1       2.795   4.251  18.111  0.00  0.00    +0.000 A 
ATOM      6  N   UNL     1       3.030   5.447  17.543  0.00  0.00    +0.000 NA
ATOM      7  C   UNL     1       4.296   5.900  17.520  0.00  0.00    +0.000 A 
ATOM      8  C   UNL     1       4.534   7.153  16.970  0.00  0.00    +0.000 A 
ATOM      9  C   UNL     1       5.811   7.701  16.933  0.00  0.00    +0.000 A 
ATOM     10  C   UNL     1       6.875   6.970  17.443  0.00  0.00    +0.000 A 
ATOM     11  C   UNL     1       6.658   5.693  17.989  0.00  0.00    +0.000 A 
ATOM     12  C   UNL     1       5.366   5.144  18.047  0.00  0.00    +0.000 A 
ATOM     13  N   UNL     1       5.109   3.932  18.597  0.00  0.00    +0.000 NA
ATOM     14  C   UNL     1       3.837   3.476  18.653  0.00  0.00    +0.000 A 
ENDROOT
BRANCH  11  15
ATOM     15  C   UNL     1       7.862   4.968  18.497  0.00  0.00    +0.000 C 
ATOM     16  N   UNL     1       8.326   5.272  19.742  0.00  0.00    +0.000 N 
ATOM     17  O   UNL     1       8.424   4.113  17.818  0.00  0.00    +0.000 OA
ATOM     18  H   UNL     1       7.897   6.010  20.298  0.00  0.00    +0.000 HD
ATOM     19  H   UNL     1       9.153   4.809  20.090  0.00  0.00    +0.000 HD
ENDBRANCH  11  15
BRANCH   1  21
ATOM     20  C   UNL     1       4.639   1.451  21.207  0.00  0.00    +0.000 C 
ATOM     21  O   UNL     1       4.598   1.554  19.790  0.00  0.00    +0.000 OA
ENDBRANCH   1  21
TORSDOF 2
ENDMDL
