MODEL 1
REMARK VINA RESULT:      -7.5      0.000      0.000
REMARK  Name = 
REMARK  2 active torsions:
REMARK  status: ('A' for Active; 'I' for Inactive)
REMARK    1  A    between atoms: C_2  and  C_3
REMARK    2  A    between atoms: C_14  and  C_15
REMARK                            x       y       z     vdW  Elec       q    Type
REMARK                         _______ _______ _______ _____ _____    ______ ____
ROOT
ATOM      1  O   UNL     1       3.703   7.088  17.197  0.00  0.00    +0.000 OA
ATOM      2  C   UNL     1       2.965   6.610  18.054  0.00  0.00    +0.000 C 
ATOM      3  N   UNL     1       2.717   5.228  18.181  0.00  0.00    +0.000 N 
ATOM      4  C   UNL     1       1.536   4.651  18.772  0.00  0.00    +0.000 C 
ATOM      5  C   UNL     1       1.492   3.247  18.215  0.00  0.00    +0.000 C 
ATOM      6  N   UNL     1       2.860   2.978  17.755  0.00  0.00    +0.000 NA
ATOM      7  C   UNL     1       3.472   4.129  17.729  0.00  0.00    +0.000 C 
ENDROOT
BRANCH   2   8
ATOM      8  C   UNL     1       2.222   7.573  18.929  0.00  0.00    +0.000 A 
ATOM      9  C   UNL     1       1.699   8.744  18.360  0.00  0.00    +0.000 A 
ATOM     10  C   UNL     1       0.945   9.636  19.135  0.00  0.00    +0.000 A 
ATOM     11  C   UNL     1       0.697   9.348  20.476  0.00  0.00    +0.000 A 
ATOM     12 CL   UNL     1      -0.287  10.395  21.419  0.00  0.00    +0.000 Cl
ATOM     13  C   UNL     1       1.256   8.220  21.064  0.00  0.00    +0.000 A 
ATOM     14  C   UNL     1       2.060   7.368  20.305  0.00  0.00    +0.000 A 
ENDBRANCH   2   8
BRANCH   7  15
ATOM     15  C   UNL     1       4.887   4.215  17.302  0.00  0.00    +0.000 A 
ATOM     16  C   UNL     1       5.855   4.487  18.281  0.00  0.00    +0.000 A 
ATOM     17  C   UNL     1       7.190   4.688  17.924  0.00  0.00    +0.000 A 
ATOM     18  C   UNL     1       7.571   4.615  16.587  0.00  0.00    +0.000 A 
ATOM     19  C   UNL     1       6.612   4.357  15.606  0.00  0.00    +0.000 A 
ATOM     20  C   UNL     1       5.274   4.177  15.960  0.00  0.00    +0.000 A 
ENDBRANCH   7  15
TORSDOF 2
ENDMDL
MODEL 2
REMARK VINA RESULT:      -7.5      0.220      1.099
REMARK  Name = 
REMARK  2 active torsions:
REMARK  status: ('A' for Active; 'I' for Inactive)
REMARK    1  A    between atoms: C_2  and  C_3
REMARK    2  A    between atoms: C_14  and  C_15
REMARK                            x       y       z     vdW  Elec       q    Type
REMARK                         _______ _______ _______ _____ _____    ______ ____
ROOT
ATOM      1  O   UNL     1       3.647   7.351  17.274  0.00  0.00    +0.000 OA
ATOM      2  C   UNL     1       2.925   6.818  18.112  0.00  0.00    +0.000 C 
ATOM      3  N   UNL     1       2.716   5.426  18.183  0.00  0.00    +0.000 N 
ATOM      4  C   UNL     1       1.554   4.792  18.753  0.00  0.00    +0.000 C 
ATOM      5  C   UNL     1       1.547   3.412  18.139  0.00  0.00    +0.000 C 
ATOM      6  N   UNL     1       2.921   3.200  17.666  0.00  0.00    +0.000 NA
ATOM      7  C   UNL     1       3.501   4.368  17.685  0.00  0.00    +0.000 C 
ENDROOT
BRANCH   2   8
ATOM      8  C   UNL     1       2.159   7.724  19.026  0.00  0.00    +0.000 A 
ATOM      9  C   UNL     1       1.614   8.910  18.510  0.00  0.00    +0.000 A 
ATOM     10  C   UNL     1       0.839   9.748  19.322  0.00  0.00    +0.000 A 
ATOM     11  C   UNL     1       0.590   9.393  20.646  0.00  0.00    +0.000 A 
ATOM     12 CL   UNL     1      -0.420  10.375  21.631  0.00  0.00    +0.000 Cl
ATOM     13  C   UNL     1       1.169   8.250  21.184  0.00  0.00    +0.000 A 
ATOM     14  C   UNL     1       1.994   7.451  20.390  0.00  0.00    +0.000 A 
ENDBRANCH   2   8
BRANCH   7  15
ATOM     15  C   UNL     1       4.911   4.510  17.259  0.00  0.00    +0.000 A 
ATOM     16  C   UNL     1       5.206   4.360  15.895  0.00  0.00    +0.000 A 
ATOM     17  C   UNL     1       6.528   4.375  15.447  0.00  0.00    +0.000 A 
ATOM     18  C   UNL     1       7.568   4.543  16.357  0.00  0.00    +0.000 A 
ATOM     19  C   UNL     1       7.285   4.680  17.717  0.00  0.00    +0.000 A 
ATOM     20  C   UNL     1       5.964   4.644  18.168  0.00  0.00    +0.000 A 
ENDBRANCH   7  15
TORSDOF 2
ENDMDL
MODEL 3
REMARK VINA RESULT:      -7.3      0.229      1.102
REMARK  Name = 
REMARK  2 active torsions:
REMARK  status: ('A' for Active; 'I' for Inactive)
REMARK    1  A    between atoms: C_2  and  C_3
REMARK    2  A    between atoms: C_14  and  C_15
REMARK                            x       y       z     vdW  Elec       q    Type
REMARK                         _______ _______ _______ _____ _____    ______ ____
ROOT
ATOM      1  O   UNL     1       3.812   7.159  17.169  0.00  0.00    +0.000 OA
ATOM      2  C   UNL     1       3.012   6.704  17.982  0.00  0.00    +0.000 C 
ATOM      3  N   UNL     1       2.745   5.327  18.119  0.00  0.00    +0.000 N 
ATOM      4  C   UNL     1       1.522   4.769  18.639  0.00  0.00    +0.000 C 
ATOM      5  C   UNL     1       1.506   3.354  18.110  0.00  0.00    +0.000 C 
ATOM      6  N   UNL     1       2.901   3.067  17.751  0.00  0.00    +0.000 NA
ATOM      7  C   UNL     1       3.522   4.214  17.744  0.00  0.00    +0.000 C 
ENDROOT
BRANCH   2   8
ATOM      8  C   UNL     1       2.218   7.689  18.783  0.00  0.00    +0.000 A 
ATOM      9  C   UNL     1       2.014   7.449  20.150  0.00  0.00    +0.000 A 
ATOM     10  C   UNL     1       1.330   8.381  20.942  0.00  0.00    +0.000 A 
ATOM     11  C   UNL     1       0.864   9.564  20.371  0.00  0.00    +0.000 A 
ATOM     12 CL   UNL     1       0.088  10.749  21.345  0.00  0.00    +0.000 Cl
ATOM     13  C   UNL     1       1.011   9.789  19.008  0.00  0.00    +0.000 A 
ATOM     14  C   UNL     1       1.636   8.828  18.211  0.00  0.00    +0.000 A 
ENDBRANCH   2   8
BRANCH   7  15
ATOM     15  C   UNL     1       4.963   4.282  17.415  0.00  0.00    +0.000 A 
ATOM     16  C   UNL     1       5.862   4.583  18.450  0.00  0.00    +0.000 A 
ATOM     17  C   UNL     1       7.220   4.769  18.182  0.00  0.00    +0.000 A 
ATOM     18  C   UNL     1       7.694   4.652  16.878  0.00  0.00    +0.000 A 
ATOM     19  C   UNL     1       6.804   4.364  15.841  0.00  0.00    +0.000 A 
ATOM     20  C   UNL     1       5.443   4.200  16.105  0.00  0.00    +0.000 A 
ENDBRANCH   7  15
TORSDOF 2
ENDMDL
MODEL 4
REMARK VINA RESULT:      -7.3      0.275      1.548
REMARK  Name = 
REMARK  2 active torsions:
REMARK  status: ('A' for Active; 'I' for Inactive)
REMARK    1  A    between atoms: C_2  and  C_3
REMARK    2  A    between atoms: C_14  and  C_15
REMARK                            x       y       z     vdW  Elec       q    Type
REMARK                         _______ _______ _______ _____ _____    ______ ____
ROOT
ATOM      1  O   UNL     1       3.658   7.395  17.263  0.00  0.00    +0.000 OA
ATOM      2  C   UNL     1       2.914   6.873  18.088  0.00  0.00    +0.000 C 
ATOM      3  N   UNL     1       2.695   5.482  18.163  0.00  0.00    +0.000 N 
ATOM      4  C   UNL     1       1.517   4.859  18.711  0.00  0.00    +0.000 C 
ATOM      5  C   UNL     1       1.516   3.474  18.107  0.00  0.00    +0.000 C 
ATOM      6  N   UNL     1       2.899   3.251  17.666  0.00  0.00    +0.000 NA
ATOM      7  C   UNL     1       3.485   4.416  17.691  0.00  0.00    +0.000 C 
ENDROOT
BRANCH   2   8
ATOM      8  C   UNL     1       2.133   7.789  18.978  0.00  0.00    +0.000 A 
ATOM      9  C   UNL     1       1.974   7.451  20.331  0.00  0.00    +0.000 A 
ATOM     10  C   UNL     1       1.303   8.316  21.206  0.00  0.00    +0.000 A 
ATOM     11  C   UNL     1       0.805   9.529  20.733  0.00  0.00    +0.000 A 
ATOM     12 CL   UNL     1       0.044  10.632  21.810  0.00  0.00    +0.000 Cl
ATOM     13  C   UNL     1       0.907   9.849  19.385  0.00  0.00    +0.000 A 
ATOM     14  C   UNL     1       1.519   8.955  18.504  0.00  0.00    +0.000 A 
ENDBRANCH   2   8
BRANCH   7  15
ATOM     15  C   UNL     1       4.905   4.548  17.296  0.00  0.00    +0.000 A 
ATOM     16  C   UNL     1       5.229   4.393  15.939  0.00  0.00    +0.000 A 
ATOM     17  C   UNL     1       6.561   4.397  15.521  0.00  0.00    +0.000 A 
ATOM     18  C   UNL     1       7.582   4.559  16.453  0.00  0.00    +0.000 A 
ATOM     19  C   UNL     1       7.269   4.701  17.806  0.00  0.00    +0.000 A 
ATOM     20  C   UNL     1       5.939   4.676  18.228  0.00  0.00    +0.000 A 
ENDBRANCH   7  15
TORSDOF 2
ENDMDL
MODEL 5
REMARK VINA RESULT:      -7.1      1.263      1.715
REMARK  Name = 
REMARK  2 active torsions:
REMARK  status: ('A' for Active; 'I' for Inactive)
REMARK    1  A    between atoms: C_2  and  C_3
REMARK    2  A    between atoms: C_14  and  C_15
REMARK                            x       y       z     vdW  Elec       q    Type
REMARK                         _______ _______ _______ _____ _____    ______ ____
ROOT
ATOM      1  O   UNL     1       3.143   7.156  17.752  0.00  0.00    +0.000 OA
ATOM      2  C   UNL     1       2.671   6.969  18.870  0.00  0.00    +0.000 C 
ATOM      3  N   UNL     1       2.788   5.749  19.566  0.00  0.00    +0.000 N 
ATOM      4  C   UNL     1       1.879   5.288  20.585  0.00  0.00    +0.000 C 
ATOM      5  C   UNL     1       2.101   3.795  20.630  0.00  0.00    +0.000 C 
ATOM      6  N   UNL     1       3.416   3.587  20.009  0.00  0.00    +0.000 NA
ATOM      7  C   UNL     1       3.719   4.704  19.408  0.00  0.00    +0.000 C 
ENDROOT
BRANCH   2   8
ATOM      8  C   UNL     1       1.845   8.073  19.455  0.00  0.00    +0.000 A 
ATOM      9  C   UNL     1       1.414   9.116  18.621  0.00  0.00    +0.000 A 
ATOM     10  C   UNL     1       0.588  10.131  19.121  0.00  0.00    +0.000 A 
ATOM     11  C   UNL     1       0.175  10.095  20.452  0.00  0.00    +0.000 A 
ATOM     12 CL   UNL     1      -0.897  11.293  21.060  0.00  0.00    +0.000 Cl
ATOM     13  C   UNL     1       0.640   9.098  21.302  0.00  0.00    +0.000 A 
ATOM     14  C   UNL     1       1.516   8.125  20.815  0.00  0.00    +0.000 A 
ENDBRANCH   2   8
BRANCH   7  15
ATOM     15  C   UNL     1       4.996   4.835  18.671  0.00  0.00    +0.000 A 
ATOM     16  C   UNL     1       5.069   4.294  17.378  0.00  0.00    +0.000 A 
ATOM     17  C   UNL     1       6.276   4.289  16.677  0.00  0.00    +0.000 A 
ATOM     18  C   UNL     1       7.421   4.827  17.258  0.00  0.00    +0.000 A 
ATOM     19  C   UNL     1       7.359   5.357  18.549  0.00  0.00    +0.000 A 
ATOM     20  C   UNL     1       6.157   5.343  19.259  0.00  0.00    +0.000 A 
ENDBRANCH   7  15
TORSDOF 2
ENDMDL
MODEL 6
REMARK VINA RESULT:      -7.1      1.201      1.284
REMARK  Name = 
REMARK  2 active torsions:
REMARK  status: ('A' for Active; 'I' for Inactive)
REMARK    1  A    between atoms: C_2  and  C_3
REMARK    2  A    between atoms: C_14  and  C_15
REMARK                            x       y       z     vdW  Elec       q    Type
REMARK                         _______ _______ _______ _____ _____    ______ ____
ROOT
ATOM      1  O   UNL     1       3.245   7.001  17.753  0.00  0.00    +0.000 OA
ATOM      2  C   UNL     1       2.732   6.808  18.852  0.00  0.00    +0.000 C 
ATOM      3  N   UNL     1       2.776   5.568  19.520  0.00  0.00    +0.000 N 
ATOM      4  C   UNL     1       1.818   5.122  20.501  0.00  0.00    +0.000 C 
ATOM      5  C   UNL     1       1.975   3.620  20.516  0.00  0.00    +0.000 C 
ATOM      6  N   UNL     1       3.298   3.370  19.928  0.00  0.00    +0.000 NA
ATOM      7  C   UNL     1       3.666   4.487  19.364  0.00  0.00    +0.000 C 
ENDROOT
BRANCH   2   8
ATOM      8  C   UNL     1       1.937   7.932  19.440  0.00  0.00    +0.000 A 
ATOM      9  C   UNL     1       1.539   8.992  18.610  0.00  0.00    +0.000 A 
ATOM     10  C   UNL     1       0.741  10.028  19.114  0.00  0.00    +0.000 A 
ATOM     11  C   UNL     1       0.323   9.997  20.442  0.00  0.00    +0.000 A 
ATOM     12 CL   UNL     1      -0.716  11.222  21.052  0.00  0.00    +0.000 Cl
ATOM     13  C   UNL     1       0.755   8.982  21.288  0.00  0.00    +0.000 A 
ATOM     14  C   UNL     1       1.603   7.986  20.799  0.00  0.00    +0.000 A 
ENDBRANCH   2   8
BRANCH   7  15
ATOM     15  C   UNL     1       4.968   4.580  18.668  0.00  0.00    +0.000 A 
ATOM     16  C   UNL     1       6.018   5.245  19.321  0.00  0.00    +0.000 A 
ATOM     17  C   UNL     1       7.236   5.461  18.673  0.00  0.00    +0.000 A 
ATOM     18  C   UNL     1       7.418   5.011  17.368  0.00  0.00    +0.000 A 
ATOM     19  C   UNL     1       6.375   4.360  16.707  0.00  0.00    +0.000 A 
ATOM     20  C   UNL     1       5.150   4.163  17.347  0.00  0.00    +0.000 A 
ENDBRANCH   7  15
TORSDOF 2
ENDMDL
MODEL 7
REMARK VINA RESULT:      -7.0      3.516      6.521
REMARK  Name = 
REMARK  2 active torsions:
REMARK  status: ('A' for Active; 'I' for Inactive)
REMARK    1  A    between atoms: C_2  and  C_3
REMARK    2  A    between atoms: C_14  and  C_15
REMARK                            x       y       z     vdW  Elec       q    Type
REMARK                         _______ _______ _______ _____ _____    ______ ____
ROOT
ATOM      1  O   UNL     1       3.270   3.531  17.015  0.00  0.00    +0.000 OA
ATOM      2  C   UNL     1       3.886   4.594  17.006  0.00  0.00    +0.000 C 
ATOM      3  N   UNL     1       3.478   5.731  17.732  0.00  0.00    +0.000 N 
ATOM      4  C   UNL     1       3.813   7.092  17.395  0.00  0.00    +0.000 C 
ATOM      5  C   UNL     1       2.764   7.917  18.101  0.00  0.00    +0.000 C 
ATOM      6  N   UNL     1       2.227   7.035  19.146  0.00  0.00    +0.000 NA
ATOM      7  C   UNL     1       2.637   5.832  18.857  0.00  0.00    +0.000 C 
ENDROOT
BRANCH   2   8
ATOM      8  C   UNL     1       5.065   4.692  16.089  0.00  0.00    +0.000 A 
ATOM      9  C   UNL     1       4.893   4.406  14.726  0.00  0.00    +0.000 A 
ATOM     10  C   UNL     1       5.960   4.548  13.829  0.00  0.00    +0.000 A 
ATOM     11  C   UNL     1       7.197   4.995  14.290  0.00  0.00    +0.000 A 
ATOM     12 CL   UNL     1       8.493   5.245  13.189  0.00  0.00    +0.000 Cl
ATOM     13  C   UNL     1       7.395   5.229  15.646  0.00  0.00    +0.000 A 
ATOM     14  C   UNL     1       6.347   5.023  16.545  0.00  0.00    +0.000 A 
ENDBRANCH   2   8
BRANCH   7  15
ATOM     15  C   UNL     1       2.266   4.688  19.720  0.00  0.00    +0.000 A 
ATOM     16  C   UNL     1       1.107   3.965  19.394  0.00  0.00    +0.000 A 
ATOM     17  C   UNL     1       0.645   2.947  20.230  0.00  0.00    +0.000 A 
ATOM     18  C   UNL     1       1.338   2.637  21.397  0.00  0.00    +0.000 A 
ATOM     19  C   UNL     1       2.484   3.359  21.735  0.00  0.00    +0.000 A 
ATOM     20  C   UNL     1       2.934   4.392  20.911  0.00  0.00    +0.000 A 
ENDBRANCH   7  15
TORSDOF 2
ENDMDL
MODEL 8
REMARK VINA RESULT:      -7.0      1.208      1.979
REMARK  Name = 
REMARK  2 active torsions:
REMARK  status: ('A' for Active; 'I' for Inactive)
REMARK    1  A    between atoms: C_2  and  C_3
REMARK    2  A    between atoms: C_14  and  C_15
REMARK                            x       y       z     vdW  Elec       q    Type
REMARK                         _______ _______ _______ _____ _____    ______ ____
ROOT
ATOM      1  O   UNL     1       3.150   7.224  17.855  0.00  0.00    +0.000 OA
ATOM      2  C   UNL     1       2.663   6.961  18.951  0.00  0.00    +0.000 C 
ATOM      3  N   UNL     1       2.735   5.685  19.545  0.00  0.00    +0.000 N 
ATOM      4  C   UNL     1       1.803   5.171  20.517  0.00  0.00    +0.000 C 
ATOM      5  C   UNL     1       1.977   3.672  20.441  0.00  0.00    +0.000 C 
ATOM      6  N   UNL     1       3.291   3.474  19.814  0.00  0.00    +0.000 NA
ATOM      7  C   UNL     1       3.634   4.627  19.308  0.00  0.00    +0.000 C 
ENDROOT
BRANCH   2   8
ATOM      8  C   UNL     1       1.867   8.039  19.620  0.00  0.00    +0.000 A 
ATOM      9  C   UNL     1       1.602   7.936  20.994  0.00  0.00    +0.000 A 
ATOM     10  C   UNL     1       0.915   8.957  21.664  0.00  0.00    +0.000 A 
ATOM     11  C   UNL     1       0.507  10.092  20.965  0.00  0.00    +0.000 A 
ATOM     12 CL   UNL     1      -0.272  11.384  21.788  0.00  0.00    +0.000 Cl
ATOM     13  C   UNL     1       0.714  10.180  19.593  0.00  0.00    +0.000 A 
ATOM     14  C   UNL     1       1.342   9.131  18.918  0.00  0.00    +0.000 A 
ENDBRANCH   2   8
BRANCH   7  15
ATOM     15  C   UNL     1       4.920   4.776  18.593  0.00  0.00    +0.000 A 
ATOM     16  C   UNL     1       5.014   4.264  17.289  0.00  0.00    +0.000 A 
ATOM     17  C   UNL     1       6.230   4.276  16.605  0.00  0.00    +0.000 A 
ATOM     18  C   UNL     1       7.365   4.805  17.214  0.00  0.00    +0.000 A 
ATOM     19  C   UNL     1       7.284   5.306  18.515  0.00  0.00    +0.000 A 
ATOM     20  C   UNL     1       6.072   5.274  19.208  0.00  0.00    +0.000 A 
ENDBRANCH   7  15
TORSDOF 2
ENDMDL
MODEL 9
REMARK VINA RESULT:      -7.0      3.530      6.409
REMARK  Name = 
REMARK  2 active torsions:
REMARK  status: ('A' for Active; 'I' for Inactive)
REMARK    1  A    between atoms: C_2  and  C_3
REMARK    2  A    between atoms: C_14  and  C_15
REMARK                            x       y       z     vdW  Elec       q    Type
REMARK                         _______ _______ _______ _____ _____    ______ ____
ROOT
ATOM      1  O   UNL     1       3.265   3.467  17.121  0.00  0.00    +0.000 OA
ATOM      2  C   UNL     1       3.877   4.530  17.079  0.00  0.00    +0.000 C 
ATOM      3  N   UNL     1       3.494   5.674  17.808  0.00  0.00    +0.000 N 
ATOM      4  C   UNL     1       3.813   7.032  17.444  0.00  0.00    +0.000 C 
ATOM      5  C   UNL     1       2.790   7.863  18.181  0.00  0.00    +0.000 C 
ATOM      6  N   UNL     1       2.294   6.991  19.254  0.00  0.00    +0.000 NA
ATOM      7  C   UNL     1       2.696   5.785  18.963  0.00  0.00    +0.000 C 
ENDROOT
BRANCH   2   8
ATOM      8  C   UNL     1       5.022   4.621  16.117  0.00  0.00    +0.000 A 
ATOM      9  C   UNL     1       4.794   4.344  14.760  0.00  0.00    +0.000 A 
ATOM     10  C   UNL     1       5.828   4.480  13.824  0.00  0.00    +0.000 A 
ATOM     11  C   UNL     1       7.086   4.912  14.239  0.00  0.00    +0.000 A 
ATOM     12 CL   UNL     1       8.341   5.154  13.091  0.00  0.00    +0.000 Cl
ATOM     13  C   UNL     1       7.338   5.136  15.587  0.00  0.00    +0.000 A 
ATOM     14  C   UNL     1       6.324   4.936  16.525  0.00  0.00    +0.000 A 
ENDBRANCH   2   8
BRANCH   7  15
ATOM     15  C   UNL     1       2.360   4.649  19.850  0.00  0.00    +0.000 A 
ATOM     16  C   UNL     1       3.416   3.940  20.442  0.00  0.00    +0.000 A 
ATOM     17  C   UNL     1       3.168   2.794  21.200  0.00  0.00    +0.000 A 
ATOM     18  C   UNL     1       1.861   2.347  21.377  0.00  0.00    +0.000 A 
ATOM     19  C   UNL     1       0.805   3.040  20.782  0.00  0.00    +0.000 A 
ATOM     20  C   UNL     1       1.055   4.174  20.006  0.00  0.00    +0.000 A 
ENDBRANCH   7  15
TORSDOF 2
ENDMDL
