MODEL 1
REMARK VINA RESULT:      -9.0      0.000      0.000
REMARK  Name = 
REMARK  7 active torsions:
REMARK  status: ('A' for Active; 'I' for Inactive)
REMARK    1  A    between atoms: C_1  and  C_2
REMARK    2  A    between atoms: C_5  and  N_6
REMARK    3  A    between atoms: N_6  and  C_7
REMARK    4  A    between atoms: C_10  and  C_11
REMARK    5  A    between atoms: C_14  and  C_15
REMARK    6  A    between atoms: C_16  and  S_17
REMARK    7  A    between atoms: S_17  and  N_18
REMARK                            x       y       z     vdW  Elec       q    Type
REMARK                         _______ _______ _______ _____ _____    ______ ____
ROOT
ATOM      1  C   UNL     1       4.729   5.390  17.900  0.00  0.00    +0.000 A 
ATOM      2  N   UNL     1       4.650   6.622  17.351  0.00  0.00    +0.000 NA
ATOM      3  N   UNL     1       3.675   7.494  17.725  0.00  0.00    +0.000 NA
ATOM      4  C   UNL     1       2.732   7.127  18.623  0.00  0.00    +0.000 A 
ATOM      5  C   UNL     1       2.751   5.843  19.214  0.00  0.00    +0.000 A 
ATOM      6  C   UNL     1       1.741   5.355  20.091  0.00  0.00    +0.000 A 
ATOM      7  C   UNL     1       1.822   4.131  20.742  0.00  0.00    +0.000 A 
ATOM      8  C   UNL     1       2.913   3.322  20.487  0.00  0.00    +0.000 A 
ATOM      9  C   UNL     1       3.887   3.730  19.567  0.00  0.00    +0.000 A 
ATOM     10  C   UNL     1       3.825   4.981  18.898  0.00  0.00    +0.000 A 
ENDROOT
BRANCH   4  11
ATOM     11  C   UNL     1       1.767   8.204  18.941  0.00  0.00    +0.000 A 
ATOM     12  C   UNL     1       1.167   8.962  17.925  0.00  0.00    +0.000 A 
ATOM     13  C   UNL     1       0.312  10.032  18.210  0.00  0.00    +0.000 A 
ATOM     14  C   UNL     1      -0.009  10.371  19.529  0.00  0.00    +0.000 A 
ATOM     15  C   UNL     1      -0.888  11.560  19.770  0.00  0.00    +0.000 C 
ATOM     16  C   UNL     1       0.546   9.600  20.551  0.00  0.00    +0.000 A 
ATOM     17  C   UNL     1       1.451   8.571  20.253  0.00  0.00    +0.000 A 
BRANCH  16  18
ATOM     18  S   UNL     1       0.249   9.881  22.271  0.00  0.00    +0.000 S 
ATOM     19  O   UNL     1       0.182  11.289  22.564  0.00  0.00    +0.000 OA
ATOM     20  O   UNL     1      -0.765   8.953  22.740  0.00  0.00    +0.000 OA
BRANCH  18  21
ATOM     21  N   UNL     1       1.710   9.314  22.862  0.00  0.00    +0.000 NA
ATOM     22  H   UNL     1       2.450  10.011  22.871  0.00  0.00    +0.000 HD
ATOM     23  H   UNL     1       1.624   8.693  23.666  0.00  0.00    +0.000 HD
ENDBRANCH  18  21
ENDBRANCH  16  18
ENDBRANCH   4  11
BRANCH   1  24
ATOM     24  N   UNL     1       5.754   4.526  17.440  0.00  0.00    +0.000 N 
ATOM     25  H   UNL     1       6.544   4.582  18.072  0.00  0.00    +0.000 HD
BRANCH  24  30
ATOM     26  C   UNL     1       7.062   4.324  11.857  0.00  0.00    +0.000 C 
ATOM     27  C   UNL     1       6.745   4.312  13.322  0.00  0.00    +0.000 A 
ATOM     28  C   UNL     1       5.594   3.691  13.817  0.00  0.00    +0.000 A 
ATOM     29  C   UNL     1       5.290   3.743  15.183  0.00  0.00    +0.000 A 
ATOM     30  C   UNL     1       6.143   4.383  16.087  0.00  0.00    +0.000 A 
ATOM     31  C   UNL     1       7.300   4.995  15.582  0.00  0.00    +0.000 A 
ATOM     32  C   UNL     1       7.598   4.963  14.217  0.00  0.00    +0.000 A 
ENDBRANCH  24  30
ENDBRANCH   1  24
TORSDOF 5
ENDMDL
MODEL 2
REMARK VINA RESULT:      -9.0      1.952      2.246
REMARK  Name = 
REMARK  7 active torsions:
REMARK  status: ('A' for Active; 'I' for Inactive)
REMARK    1  A    between atoms: C_1  and  C_2
REMARK    2  A    between atoms: C_5  and  N_6
REMARK    3  A    between atoms: N_6  and  C_7
REMARK    4  A    between atoms: C_10  and  C_11
REMARK    5  A    between atoms: C_14  and  C_15
REMARK    6  A    between atoms: C_16  and  S_17
REMARK    7  A    between atoms: S_17  and  N_18
REMARK                            x       y       z     vdW  Elec       q    Type
REMARK                         _______ _______ _______ _____ _____    ______ ____
ROOT
ATOM      1  C   UNL     1       4.168   4.568  18.123  0.00  0.00    +0.000 A 
ATOM      2  N   UNL     1       4.071   5.825  17.636  0.00  0.00    +0.000 NA
ATOM      3  N   UNL     1       3.321   6.765  18.272  0.00  0.00    +0.000 NA
ATOM      4  C   UNL     1       2.617   6.449  19.382  0.00  0.00    +0.000 A 
ATOM      5  C   UNL     1       2.662   5.143  19.923  0.00  0.00    +0.000 A 
ATOM      6  C   UNL     1       1.875   4.712  21.029  0.00  0.00    +0.000 A 
ATOM      7  C   UNL     1       2.002   3.459  21.614  0.00  0.00    +0.000 A 
ATOM      8  C   UNL     1       2.901   2.565  21.063  0.00  0.00    +0.000 A 
ATOM      9  C   UNL     1       3.634   2.922  19.925  0.00  0.00    +0.000 A 
ATOM     10  C   UNL     1       3.523   4.201  19.318  0.00  0.00    +0.000 A 
ENDROOT
BRANCH   4  11
ATOM     11  C   UNL     1       1.882   7.594  19.964  0.00  0.00    +0.000 A 
ATOM     12  C   UNL     1       1.228   7.483  21.200  0.00  0.00    +0.000 A 
ATOM     13  C   UNL     1       0.466   8.530  21.729  0.00  0.00    +0.000 A 
ATOM     14  C   UNL     1       0.350   9.752  21.058  0.00  0.00    +0.000 A 
ATOM     15  C   UNL     1      -0.524  10.815  21.649  0.00  0.00    +0.000 C 
ATOM     16  C   UNL     1       1.028   9.894  19.846  0.00  0.00    +0.000 A 
ATOM     17  C   UNL     1       1.737   8.815  19.298  0.00  0.00    +0.000 A 
BRANCH  16  18
ATOM     18  S   UNL     1       0.999  11.365  18.866  0.00  0.00    +0.000 S 
ATOM     19  O   UNL     1      -0.307  11.587  18.300  0.00  0.00    +0.000 OA
ATOM     20  O   UNL     1       1.721  12.417  19.559  0.00  0.00    +0.000 OA
BRANCH  18  21
ATOM     21  N   UNL     1       2.001  10.847  17.628  0.00  0.00    +0.000 NA
ATOM     22  H   UNL     1       1.631  11.024  16.697  0.00  0.00    +0.000 HD
ATOM     23  H   UNL     1       2.993  11.018  17.792  0.00  0.00    +0.000 HD
ENDBRANCH  18  21
ENDBRANCH  16  18
ENDBRANCH   4  11
BRANCH   1  24
ATOM     24  N   UNL     1       4.945   3.635  17.392  0.00  0.00    +0.000 N 
ATOM     25  H   UNL     1       5.430   3.026  18.039  0.00  0.00    +0.000 HD
BRANCH  24  30
ATOM     26  C   UNL     1       7.835   5.307  12.725  0.00  0.00    +0.000 C 
ATOM     27  C   UNL     1       7.105   4.806  13.935  0.00  0.00    +0.000 A 
ATOM     28  C   UNL     1       5.891   4.120  13.825  0.00  0.00    +0.000 A 
ATOM     29  C   UNL     1       5.198   3.712  14.972  0.00  0.00    +0.000 A 
ATOM     30  C   UNL     1       5.718   3.947  16.249  0.00  0.00    +0.000 A 
ATOM     31  C   UNL     1       6.941   4.628  16.348  0.00  0.00    +0.000 A 
ATOM     32  C   UNL     1       7.626   5.054  15.206  0.00  0.00    +0.000 A 
ENDBRANCH  24  30
ENDBRANCH   1  24
TORSDOF 5
ENDMDL
MODEL 3
REMARK VINA RESULT:      -8.9      2.012      2.526
REMARK  Name = 
REMARK  7 active torsions:
REMARK  status: ('A' for Active; 'I' for Inactive)
REMARK    1  A    between atoms: C_1  and  C_2
REMARK    2  A    between atoms: C_5  and  N_6
REMARK    3  A    between atoms: N_6  and  C_7
REMARK    4  A    between atoms: C_10  and  C_11
REMARK    5  A    between atoms: C_14  and  C_15
REMARK    6  A    between atoms: C_16  and  S_17
REMARK    7  A    between atoms: S_17  and  N_18
REMARK                            x       y       z     vdW  Elec       q    Type
REMARK                         _______ _______ _______ _____ _____    ______ ____
ROOT
ATOM      1  C   UNL     1       4.668   4.488  17.342  0.00  0.00    +0.000 A 
ATOM      2  N   UNL     1       4.949   5.801  17.493  0.00  0.00    +0.000 NA
ATOM      3  N   UNL     1       4.121   6.617  18.200  0.00  0.00    +0.000 NA
ATOM      4  C   UNL     1       2.971   6.141  18.728  0.00  0.00    +0.000 A 
ATOM      5  C   UNL     1       2.614   4.780  18.582  0.00  0.00    +0.000 A 
ATOM      6  C   UNL     1       1.378   4.230  19.027  0.00  0.00    +0.000 A 
ATOM      7  C   UNL     1       1.080   2.874  18.967  0.00  0.00    +0.000 A 
ATOM      8  C   UNL     1       2.010   2.022  18.402  0.00  0.00    +0.000 A 
ATOM      9  C   UNL     1       3.203   2.536  17.879  0.00  0.00    +0.000 A 
ATOM     10  C   UNL     1       3.527   3.918  17.937  0.00  0.00    +0.000 A 
ENDROOT
BRANCH   4  11
ATOM     11  C   UNL     1       2.205   7.152  19.491  0.00  0.00    +0.000 A 
ATOM     12  C   UNL     1       1.695   6.865  20.765  0.00  0.00    +0.000 A 
ATOM     13  C   UNL     1       0.905   7.781  21.467  0.00  0.00    +0.000 A 
ATOM     14  C   UNL     1       0.616   9.044  20.938  0.00  0.00    +0.000 A 
ATOM     15  C   UNL     1      -0.279   9.959  21.715  0.00  0.00    +0.000 C 
ATOM     16  C   UNL     1       1.151   9.361  19.688  0.00  0.00    +0.000 A 
ATOM     17  C   UNL     1       1.888   8.410  18.969  0.00  0.00    +0.000 A 
BRANCH  16  18
ATOM     18  S   UNL     1       0.894  10.907  18.871  0.00  0.00    +0.000 S 
ATOM     19  O   UNL     1      -0.434  10.992  18.322  0.00  0.00    +0.000 OA
ATOM     20  O   UNL     1       1.458  11.976  19.677  0.00  0.00    +0.000 OA
BRANCH  18  21
ATOM     21  N   UNL     1       1.952  10.680  17.592  0.00  0.00    +0.000 NA
ATOM     22  H   UNL     1       1.754   9.853  17.035  0.00  0.00    +0.000 HD
ATOM     23  H   UNL     1       2.211  11.537  17.104  0.00  0.00    +0.000 HD
ENDBRANCH  18  21
ENDBRANCH  16  18
ENDBRANCH   4  11
BRANCH   1  24
ATOM     24  N   UNL     1       5.561   3.706  16.570  0.00  0.00    +0.000 N 
ATOM     25  H   UNL     1       6.337   3.414  17.152  0.00  0.00    +0.000 HD
BRANCH  24  30
ATOM     26  C   UNL     1       7.465   4.549  11.222  0.00  0.00    +0.000 C 
ATOM     27  C   UNL     1       6.937   4.391  12.617  0.00  0.00    +0.000 A 
ATOM     28  C   UNL     1       7.573   4.986  13.711  0.00  0.00    +0.000 A 
ATOM     29  C   UNL     1       7.095   4.776  15.011  0.00  0.00    +0.000 A 
ATOM     30  C   UNL     1       5.954   4.001  15.242  0.00  0.00    +0.000 A 
ATOM     31  C   UNL     1       5.317   3.417  14.136  0.00  0.00    +0.000 A 
ATOM     32  C   UNL     1       5.803   3.608  12.840  0.00  0.00    +0.000 A 
ENDBRANCH  24  30
ENDBRANCH   1  24
TORSDOF 5
ENDMDL
MODEL 4
REMARK VINA RESULT:      -8.8      1.869      2.338
REMARK  Name = 
REMARK  7 active torsions:
REMARK  status: ('A' for Active; 'I' for Inactive)
REMARK    1  A    between atoms: C_1  and  C_2
REMARK    2  A    between atoms: C_5  and  N_6
REMARK    3  A    between atoms: N_6  and  C_7
REMARK    4  A    between atoms: C_10  and  C_11
REMARK    5  A    between atoms: C_14  and  C_15
REMARK    6  A    between atoms: C_16  and  S_17
REMARK    7  A    between atoms: S_17  and  N_18
REMARK                            x       y       z     vdW  Elec       q    Type
REMARK                         _______ _______ _______ _____ _____    ______ ____
ROOT
ATOM      1  C   UNL     1       4.242   4.909  18.222  0.00  0.00    +0.000 A 
ATOM      2  N   UNL     1       4.339   6.232  17.963  0.00  0.00    +0.000 NA
ATOM      3  N   UNL     1       3.518   7.126  18.578  0.00  0.00    +0.000 NA
ATOM      4  C   UNL     1       2.553   6.705  19.426  0.00  0.00    +0.000 A 
ATOM      5  C   UNL     1       2.391   5.331  19.718  0.00  0.00    +0.000 A 
ATOM      6  C   UNL     1       1.340   4.807  20.524  0.00  0.00    +0.000 A 
ATOM      7  C   UNL     1       1.249   3.469  20.883  0.00  0.00    +0.000 A 
ATOM      8  C   UNL     1       2.197   2.591  20.393  0.00  0.00    +0.000 A 
ATOM      9  C   UNL     1       3.198   3.053  19.530  0.00  0.00    +0.000 A 
ATOM     10  C   UNL     1       3.312   4.419  19.158  0.00  0.00    +0.000 A 
ENDROOT
BRANCH   4  11
ATOM     11  C   UNL     1       1.772   7.808  20.030  0.00  0.00    +0.000 A 
ATOM     12  C   UNL     1       1.128   7.649  21.266  0.00  0.00    +0.000 A 
ATOM     13  C   UNL     1       0.324   8.653  21.814  0.00  0.00    +0.000 A 
ATOM     14  C   UNL     1       0.153   9.880  21.164  0.00  0.00    +0.000 A 
ATOM     15  C   UNL     1      -0.763  10.895  21.775  0.00  0.00    +0.000 C 
ATOM     16  C   UNL     1       0.820  10.071  19.952  0.00  0.00    +0.000 A 
ATOM     17  C   UNL     1       1.572   9.033  19.384  0.00  0.00    +0.000 A 
BRANCH  16  18
ATOM     18  S   UNL     1       0.724  11.556  18.997  0.00  0.00    +0.000 S 
ATOM     19  O   UNL     1      -0.563  11.684  18.364  0.00  0.00    +0.000 OA
ATOM     20  O   UNL     1       1.321  12.647  19.746  0.00  0.00    +0.000 OA
BRANCH  18  21
ATOM     21  N   UNL     1       1.829  11.146  17.807  0.00  0.00    +0.000 NA
ATOM     22  H   UNL     1       1.507  10.414  17.179  0.00  0.00    +0.000 HD
ATOM     23  H   UNL     1       2.326  11.940  17.404  0.00  0.00    +0.000 HD
ENDBRANCH  18  21
ENDBRANCH  16  18
ENDBRANCH   4  11
BRANCH   1  24
ATOM     24  N   UNL     1       5.111   4.034  17.524  0.00  0.00    +0.000 N 
ATOM     25  H   UNL     1       5.811   3.679  18.165  0.00  0.00    +0.000 HD
BRANCH  24  30
ATOM     26  C   UNL     1       7.416   4.577  12.297  0.00  0.00    +0.000 C 
ATOM     27  C   UNL     1       6.799   4.503  13.662  0.00  0.00    +0.000 A 
ATOM     28  C   UNL     1       7.502   4.896  14.805  0.00  0.00    +0.000 A 
ATOM     29  C   UNL     1       6.926   4.763  16.075  0.00  0.00    +0.000 A 
ATOM     30  C   UNL     1       5.625   4.272  16.227  0.00  0.00    +0.000 A 
ATOM     31  C   UNL     1       4.925   3.890  15.073  0.00  0.00    +0.000 A 
ATOM     32  C   UNL     1       5.504   4.002  13.806  0.00  0.00    +0.000 A 
ENDBRANCH  24  30
ENDBRANCH   1  24
TORSDOF 5
ENDMDL
MODEL 5
REMARK VINA RESULT:      -8.7      4.022      8.439
REMARK  Name = 
REMARK  7 active torsions:
REMARK  status: ('A' for Active; 'I' for Inactive)
REMARK    1  A    between atoms: C_1  and  C_2
REMARK    2  A    between atoms: C_5  and  N_6
REMARK    3  A    between atoms: N_6  and  C_7
REMARK    4  A    between atoms: C_10  and  C_11
REMARK    5  A    between atoms: C_14  and  C_15
REMARK    6  A    between atoms: C_16  and  S_17
REMARK    7  A    between atoms: S_17  and  N_18
REMARK                            x       y       z     vdW  Elec       q    Type
REMARK                         _______ _______ _______ _____ _____    ______ ____
ROOT
ATOM      1  C   UNL     1       0.370  10.211  18.561  0.00  0.00    +0.000 A 
ATOM      2  N   UNL     1       0.961   9.488  17.584  0.00  0.00    +0.000 NA
ATOM      3  N   UNL     1       1.674   8.367  17.877  0.00  0.00    +0.000 NA
ATOM      4  C   UNL     1       1.846   7.977  19.161  0.00  0.00    +0.000 A 
ATOM      5  C   UNL     1       1.270   8.707  20.225  0.00  0.00    +0.000 A 
ATOM      6  C   UNL     1       1.487   8.413  21.602  0.00  0.00    +0.000 A 
ATOM      7  C   UNL     1       0.837   9.075  22.635  0.00  0.00    +0.000 A 
ATOM      8  C   UNL     1      -0.026  10.106  22.315  0.00  0.00    +0.000 A 
ATOM      9  C   UNL     1      -0.204  10.480  20.977  0.00  0.00    +0.000 A 
ATOM     10  C   UNL     1       0.446   9.809  19.907  0.00  0.00    +0.000 A 
ENDROOT
BRANCH   4  11
ATOM     11  C   UNL     1       2.619   6.722  19.300  0.00  0.00    +0.000 A 
ATOM     12  C   UNL     1       3.962   6.650  18.901  0.00  0.00    +0.000 A 
ATOM     13  C   UNL     1       4.684   5.453  18.955  0.00  0.00    +0.000 A 
ATOM     14  C   UNL     1       4.103   4.277  19.443  0.00  0.00    +0.000 A 
ATOM     15  C   UNL     1       4.911   3.016  19.425  0.00  0.00    +0.000 C 
ATOM     16  C   UNL     1       2.779   4.342  19.883  0.00  0.00    +0.000 A 
ATOM     17  C   UNL     1       2.049   5.533  19.765  0.00  0.00    +0.000 A 
BRANCH  16  18
ATOM     18  S   UNL     1       1.888   2.960  20.532  0.00  0.00    +0.000 S 
ATOM     19  O   UNL     1       1.928   1.842  19.625  0.00  0.00    +0.000 OA
ATOM     20  O   UNL     1       2.196   2.811  21.944  0.00  0.00    +0.000 OA
BRANCH  18  21
ATOM     21  N   UNL     1       0.347   3.613  20.457  0.00  0.00    +0.000 NA
ATOM     22  H   UNL     1      -0.026   3.895  21.359  0.00  0.00    +0.000 HD
ATOM     23  H   UNL     1       0.191   4.227  19.658  0.00  0.00    +0.000 HD
ENDBRANCH  18  21
ENDBRANCH  16  18
ENDBRANCH   4  11
BRANCH   1  24
ATOM     24  N   UNL     1      -0.332  11.382  18.182  0.00  0.00    +0.000 N 
ATOM     25  H   UNL     1       0.068  12.179  18.662  0.00  0.00    +0.000 HD
BRANCH  24  30
ATOM     26  C   UNL     1      -6.060  11.325  17.843  0.00  0.00    +0.000 C 
ATOM     27  C   UNL     1      -4.563  11.392  17.886  0.00  0.00    +0.000 A 
ATOM     28  C   UNL     1      -3.775  10.794  16.897  0.00  0.00    +0.000 A 
ATOM     29  C   UNL     1      -2.378  10.820  16.989  0.00  0.00    +0.000 A 
ATOM     30  C   UNL     1      -1.738  11.473  18.047  0.00  0.00    +0.000 A 
ATOM     31  C   UNL     1      -2.537  12.078  19.029  0.00  0.00    +0.000 A 
ATOM     32  C   UNL     1      -3.932  12.037  18.951  0.00  0.00    +0.000 A 
ENDBRANCH  24  30
ENDBRANCH   1  24
TORSDOF 5
ENDMDL
MODEL 6
REMARK VINA RESULT:      -8.7      4.311      8.285
REMARK  Name = 
REMARK  7 active torsions:
REMARK  status: ('A' for Active; 'I' for Inactive)
REMARK    1  A    between atoms: C_1  and  C_2
REMARK    2  A    between atoms: C_5  and  N_6
REMARK    3  A    between atoms: N_6  and  C_7
REMARK    4  A    between atoms: C_10  and  C_11
REMARK    5  A    between atoms: C_14  and  C_15
REMARK    6  A    between atoms: C_16  and  S_17
REMARK    7  A    between atoms: S_17  and  N_18
REMARK                            x       y       z     vdW  Elec       q    Type
REMARK                         _______ _______ _______ _____ _____    ______ ____
ROOT
ATOM      1  C   UNL     1       0.927  10.620  18.726  0.00  0.00    +0.000 A 
ATOM      2  N   UNL     1       1.539   9.838  17.809  0.00  0.00    +0.000 NA
ATOM      3  N   UNL     1       1.954   8.581  18.127  0.00  0.00    +0.000 NA
ATOM      4  C   UNL     1       1.805   8.105  19.384  0.00  0.00    +0.000 A 
ATOM      5  C   UNL     1       1.191   8.887  20.390  0.00  0.00    +0.000 A 
ATOM      6  C   UNL     1       1.086   8.490  21.753  0.00  0.00    +0.000 A 
ATOM      7  C   UNL     1       0.395   9.223  22.710  0.00  0.00    +0.000 A 
ATOM      8  C   UNL     1      -0.178  10.422  22.332  0.00  0.00    +0.000 A 
ATOM      9  C   UNL     1      -0.026  10.887  21.020  0.00  0.00    +0.000 A 
ATOM     10  C   UNL     1       0.671  10.149  20.027  0.00  0.00    +0.000 A 
ENDROOT
BRANCH   4  11
ATOM     11  C   UNL     1       2.280   6.713  19.550  0.00  0.00    +0.000 A 
ATOM     12  C   UNL     1       1.674   5.845  20.471  0.00  0.00    +0.000 A 
ATOM     13  C   UNL     1       2.158   4.553  20.696  0.00  0.00    +0.000 A 
ATOM     14  C   UNL     1       3.254   4.055  19.982  0.00  0.00    +0.000 A 
ATOM     15  C   UNL     1       3.758   2.682  20.306  0.00  0.00    +0.000 C 
ATOM     16  C   UNL     1       3.843   4.891  19.031  0.00  0.00    +0.000 A 
ATOM     17  C   UNL     1       3.387   6.206  18.862  0.00  0.00    +0.000 A 
BRANCH  16  18
ATOM     18  S   UNL     1       5.230   4.429  18.037  0.00  0.00    +0.000 S 
ATOM     19  O   UNL     1       6.395   4.190  18.848  0.00  0.00    +0.000 OA
ATOM     20  O   UNL     1       4.798   3.485  17.021  0.00  0.00    +0.000 OA
BRANCH  18  21
ATOM     21  N   UNL     1       5.457   5.891  17.251  0.00  0.00    +0.000 NA
ATOM     22  H   UNL     1       4.668   6.527  17.327  0.00  0.00    +0.000 HD
ATOM     23  H   UNL     1       6.396   6.276  17.344  0.00  0.00    +0.000 HD
ENDBRANCH  18  21
ENDBRANCH  16  18
ENDBRANCH   4  11
BRANCH   1  24
ATOM     24  N   UNL     1       0.548  11.927  18.330  0.00  0.00    +0.000 N 
ATOM     25  H   UNL     1       0.115  11.885  17.416  0.00  0.00    +0.000 HD
BRANCH  24  30
ATOM     26  C   UNL     1       3.717  16.704  18.594  0.00  0.00    +0.000 C 
ATOM     27  C   UNL     1       2.912  15.439  18.589  0.00  0.00    +0.000 A 
ATOM     28  C   UNL     1       3.493  14.203  18.290  0.00  0.00    +0.000 A 
ATOM     29  C   UNL     1       2.709  13.043  18.234  0.00  0.00    +0.000 A 
ATOM     30  C   UNL     1       1.339  13.087  18.511  0.00  0.00    +0.000 A 
ATOM     31  C   UNL     1       0.767  14.330  18.820  0.00  0.00    +0.000 A 
ATOM     32  C   UNL     1       1.543  15.493  18.857  0.00  0.00    +0.000 A 
ENDBRANCH  24  30
ENDBRANCH   1  24
TORSDOF 5
ENDMDL
MODEL 7
REMARK VINA RESULT:      -8.7      4.366      8.212
REMARK  Name = 
REMARK  7 active torsions:
REMARK  status: ('A' for Active; 'I' for Inactive)
REMARK    1  A    between atoms: C_1  and  C_2
REMARK    2  A    between atoms: C_5  and  N_6
REMARK    3  A    between atoms: N_6  and  C_7
REMARK    4  A    between atoms: C_10  and  C_11
REMARK    5  A    between atoms: C_14  and  C_15
REMARK    6  A    between atoms: C_16  and  S_17
REMARK    7  A    between atoms: S_17  and  N_18
REMARK                            x       y       z     vdW  Elec       q    Type
REMARK                         _______ _______ _______ _____ _____    ______ ____
ROOT
ATOM      1  C   UNL     1       1.404  10.662  18.558  0.00  0.00    +0.000 A 
ATOM      2  N   UNL     1       2.059  10.187  17.476  0.00  0.00    +0.000 NA
ATOM      3  N   UNL     1       2.439   8.883  17.404  0.00  0.00    +0.000 NA
ATOM      4  C   UNL     1       2.210   8.042  18.438  0.00  0.00    +0.000 A 
ATOM      5  C   UNL     1       1.548   8.488  19.605  0.00  0.00    +0.000 A 
ATOM      6  C   UNL     1       1.358   7.688  20.768  0.00  0.00    +0.000 A 
ATOM      7  C   UNL     1       0.621   8.105  21.869  0.00  0.00    +0.000 A 
ATOM      8  C   UNL     1       0.087   9.379  21.857  0.00  0.00    +0.000 A 
ATOM      9  C   UNL     1       0.321  10.227  20.767  0.00  0.00    +0.000 A 
ATOM     10  C   UNL     1       1.066   9.815  19.630  0.00  0.00    +0.000 A 
ENDROOT
BRANCH   4  11
ATOM     11  C   UNL     1       2.657   6.654  18.183  0.00  0.00    +0.000 A 
ATOM     12  C   UNL     1       1.743   5.591  18.158  0.00  0.00    +0.000 A 
ATOM     13  C   UNL     1       2.157   4.265  17.995  0.00  0.00    +0.000 A 
ATOM     14  C   UNL     1       3.507   3.944  17.815  0.00  0.00    +0.000 A 
ATOM     15  C   UNL     1       3.893   2.502  17.699  0.00  0.00    +0.000 C 
ATOM     16  C   UNL     1       4.426   4.995  17.796  0.00  0.00    +0.000 A 
ATOM     17  C   UNL     1       4.004   6.313  18.024  0.00  0.00    +0.000 A 
BRANCH  16  18
ATOM     18  S   UNL     1       6.167   4.777  17.576  0.00  0.00    +0.000 S 
ATOM     19  O   UNL     1       6.787   4.295  18.783  0.00  0.00    +0.000 OA
ATOM     20  O   UNL     1       6.413   4.154  16.287  0.00  0.00    +0.000 OA
BRANCH  18  21
ATOM     21  N   UNL     1       6.589   6.389  17.404  0.00  0.00    +0.000 NA
ATOM     22  H   UNL     1       7.266   6.562  16.666  0.00  0.00    +0.000 HD
ATOM     23  H   UNL     1       5.810   7.040  17.504  0.00  0.00    +0.000 HD
ENDBRANCH  18  21
ENDBRANCH  16  18
ENDBRANCH   4  11
BRANCH   1  24
ATOM     24  N   UNL     1       1.065  12.038  18.574  0.00  0.00    +0.000 N 
ATOM     25  H   UNL     1       0.526  12.257  17.745  0.00  0.00    +0.000 HD
BRANCH  24  30
ATOM     26  C   UNL     1       4.968  15.942  20.140  0.00  0.00    +0.000 C 
ATOM     27  C   UNL     1       3.898  14.969  19.744  0.00  0.00    +0.000 A 
ATOM     28  C   UNL     1       3.165  14.258  20.699  0.00  0.00    +0.000 A 
ATOM     29  C   UNL     1       2.211  13.311  20.303  0.00  0.00    +0.000 A 
ATOM     30  C   UNL     1       1.944  13.082  18.950  0.00  0.00    +0.000 A 
ATOM     31  C   UNL     1       2.678  13.807  17.999  0.00  0.00    +0.000 A 
ATOM     32  C   UNL     1       3.645  14.738  18.390  0.00  0.00    +0.000 A 
ENDBRANCH  24  30
ENDBRANCH   1  24
TORSDOF 5
ENDMDL
MODEL 8
REMARK VINA RESULT:      -8.5      3.919      8.034
REMARK  Name = 
REMARK  7 active torsions:
REMARK  status: ('A' for Active; 'I' for Inactive)
REMARK    1  A    between atoms: C_1  and  C_2
REMARK    2  A    between atoms: C_5  and  N_6
REMARK    3  A    between atoms: N_6  and  C_7
REMARK    4  A    between atoms: C_10  and  C_11
REMARK    5  A    between atoms: C_14  and  C_15
REMARK    6  A    between atoms: C_16  and  S_17
REMARK    7  A    between atoms: S_17  and  N_18
REMARK                            x       y       z     vdW  Elec       q    Type
REMARK                         _______ _______ _______ _____ _____    ______ ____
ROOT
ATOM      1  C   UNL     1       1.106  10.688  18.502  0.00  0.00    +0.000 A 
ATOM      2  N   UNL     1       1.743  10.169  17.428  0.00  0.00    +0.000 NA
ATOM      3  N   UNL     1       2.227   8.897  17.450  0.00  0.00    +0.000 NA
ATOM      4  C   UNL     1       2.123   8.140  18.565  0.00  0.00    +0.000 A 
ATOM      5  C   UNL     1       1.486   8.638  19.725  0.00  0.00    +0.000 A 
ATOM      6  C   UNL     1       1.424   7.936  20.962  0.00  0.00    +0.000 A 
ATOM      7  C   UNL     1       0.711   8.393  22.064  0.00  0.00    +0.000 A 
ATOM      8  C   UNL     1       0.072   9.615  21.972  0.00  0.00    +0.000 A 
ATOM      9  C   UNL     1       0.178  10.374  20.800  0.00  0.00    +0.000 A 
ATOM     10  C   UNL     1       0.896   9.919  19.662  0.00  0.00    +0.000 A 
ENDROOT
BRANCH   4  11
ATOM     11  C   UNL     1       2.672   6.774  18.407  0.00  0.00    +0.000 A 
ATOM     12  C   UNL     1       3.811   6.537  17.624  0.00  0.00    +0.000 A 
ATOM     13  C   UNL     1       4.298   5.245  17.402  0.00  0.00    +0.000 A 
ATOM     14  C   UNL     1       3.684   4.130  17.982  0.00  0.00    +0.000 A 
ATOM     15  C   UNL     1       4.221   2.768  17.664  0.00  0.00    +0.000 C 
ATOM     16  C   UNL     1       2.573   4.352  18.799  0.00  0.00    +0.000 A 
ATOM     17  C   UNL     1       2.059   5.646  18.961  0.00  0.00    +0.000 A 
BRANCH  16  18
ATOM     18  S   UNL     1       1.677   3.065  19.615  0.00  0.00    +0.000 S 
ATOM     19  O   UNL     1       0.953   2.255  18.670  0.00  0.00    +0.000 OA
ATOM     20  O   UNL     1       2.516   2.475  20.644  0.00  0.00    +0.000 OA
BRANCH  18  21
ATOM     21  N   UNL     1       0.560   4.023  20.415  0.00  0.00    +0.000 NA
ATOM     22  H   UNL     1       0.324   3.691  21.346  0.00  0.00    +0.000 HD
ATOM     23  H   UNL     1       0.694   5.025  20.281  0.00  0.00    +0.000 HD
ENDBRANCH  18  21
ENDBRANCH  16  18
ENDBRANCH   4  11
BRANCH   1  24
ATOM     24  N   UNL     1       0.654  12.028  18.417  0.00  0.00    +0.000 N 
ATOM     25  H   UNL     1       0.018  12.116  17.633  0.00  0.00    +0.000 HD
BRANCH  24  30
ATOM     26  C   UNL     1       3.928  16.735  18.646  0.00  0.00    +0.000 C 
ATOM     27  C   UNL     1       3.097  15.488  18.649  0.00  0.00    +0.000 A 
ATOM     28  C   UNL     1       3.644  14.243  18.323  0.00  0.00    +0.000 A 
ATOM     29  C   UNL     1       2.835  13.100  18.276  0.00  0.00    +0.000 A 
ATOM     30  C   UNL     1       1.474  13.169  18.588  0.00  0.00    +0.000 A 
ATOM     31  C   UNL     1       0.936  14.421  18.923  0.00  0.00    +0.000 A 
ATOM     32  C   UNL     1       1.736  15.567  18.952  0.00  0.00    +0.000 A 
ENDBRANCH  24  30
ENDBRANCH   1  24
TORSDOF 5
ENDMDL
MODEL 9
REMARK VINA RESULT:      -8.5      4.217      8.630
REMARK  Name = 
REMARK  7 active torsions:
REMARK  status: ('A' for Active; 'I' for Inactive)
REMARK    1  A    between atoms: C_1  and  C_2
REMARK    2  A    between atoms: C_5  and  N_6
REMARK    3  A    between atoms: N_6  and  C_7
REMARK    4  A    between atoms: C_10  and  C_11
REMARK    5  A    between atoms: C_14  and  C_15
REMARK    6  A    between atoms: C_16  and  S_17
REMARK    7  A    between atoms: S_17  and  N_18
REMARK                            x       y       z     vdW  Elec       q    Type
REMARK                         _______ _______ _______ _____ _____    ______ ____
ROOT
ATOM      1  C   UNL     1       0.404  10.211  18.591  0.00  0.00    +0.000 A 
ATOM      2  N   UNL     1       0.919   9.458  17.593  0.00  0.00    +0.000 NA
ATOM      3  N   UNL     1       1.573   8.295  17.860  0.00  0.00    +0.000 NA
ATOM      4  C   UNL     1       1.764   7.891  19.136  0.00  0.00    +0.000 A 
ATOM      5  C   UNL     1       1.268   8.649  20.221  0.00  0.00    +0.000 A 
ATOM      6  C   UNL     1       1.512   8.337  21.589  0.00  0.00    +0.000 A 
ATOM      7  C   UNL     1       0.937   9.032  22.645  0.00  0.00    +0.000 A 
ATOM      8  C   UNL     1       0.126  10.113  22.356  0.00  0.00    +0.000 A 
ATOM      9  C   UNL     1      -0.073  10.502  21.026  0.00  0.00    +0.000 A 
ATOM     10  C   UNL     1       0.501   9.800  19.933  0.00  0.00    +0.000 A 
ENDROOT
BRANCH   4  11
ATOM     11  C   UNL     1       2.465   6.592  19.247  0.00  0.00    +0.000 A 
ATOM     12  C   UNL     1       1.947   5.553  20.035  0.00  0.00    +0.000 A 
ATOM     13  C   UNL     1       2.634   4.348  20.212  0.00  0.00    +0.000 A 
ATOM     14  C   UNL     1       3.859   4.113  19.580  0.00  0.00    +0.000 A 
ATOM     15  C   UNL     1       4.571   2.823  19.851  0.00  0.00    +0.000 C 
ATOM     16  C   UNL     1       4.370   5.120  18.758  0.00  0.00    +0.000 A 
ATOM     17  C   UNL     1       3.701   6.347  18.640  0.00  0.00    +0.000 A 
BRANCH  16  18
ATOM     18  S   UNL     1       5.898   4.995  17.879  0.00  0.00    +0.000 S 
ATOM     19  O   UNL     1       7.006   4.825  18.784  0.00  0.00    +0.000 OA
ATOM     20  O   UNL     1       5.717   4.137  16.721  0.00  0.00    +0.000 OA
BRANCH  18  21
ATOM     21  N   UNL     1       5.966   6.563  17.294  0.00  0.00    +0.000 NA
ATOM     22  H   UNL     1       6.837   6.790  16.822  0.00  0.00    +0.000 HD
ATOM     23  H   UNL     1       5.095   6.894  16.880  0.00  0.00    +0.000 HD
ENDBRANCH  18  21
ENDBRANCH  16  18
ENDBRANCH   4  11
BRANCH   1  24
ATOM     24  N   UNL     1      -0.239  11.423  18.239  0.00  0.00    +0.000 N 
ATOM     25  H   UNL     1       0.161  12.181  18.779  0.00  0.00    +0.000 HD
BRANCH  24  30
ATOM     26  C   UNL     1      -5.936  11.563  17.559  0.00  0.00    +0.000 C 
ATOM     27  C   UNL     1      -4.443  11.585  17.700  0.00  0.00    +0.000 A 
ATOM     28  C   UNL     1      -3.605  11.131  16.676  0.00  0.00    +0.000 A 
ATOM     29  C   UNL     1      -2.216  11.107  16.853  0.00  0.00    +0.000 A 
ATOM     30  C   UNL     1      -1.633  11.569  18.037  0.00  0.00    +0.000 A 
ATOM     31  C   UNL     1      -2.482  12.032  19.054  0.00  0.00    +0.000 A 
ATOM     32  C   UNL     1      -3.870  12.039  18.889  0.00  0.00    +0.000 A 
ENDBRANCH  24  30
ENDBRANCH   1  24
TORSDOF 5
ENDMDL
