MODEL 1
REMARK VINA RESULT:      -7.7      0.000      0.000
REMARK  Name = 
REMARK  6 active torsions:
REMARK  status: ('A' for Active; 'I' for Inactive)
REMARK    1  A    between atoms: C_2  and  C_14
REMARK    2  A    between atoms: N_3  and  O_4
REMARK    3  A    between atoms: O_4  and  C_5
REMARK    4  A    between atoms: C_5  and  C_7
REMARK    5  A    between atoms: C_7  and  C_8
REMARK    6  A    between atoms: C_8  and  C_9
REMARK                            x       y       z     vdW  Elec       q    Type
REMARK                         _______ _______ _______ _____ _____    ______ ____
ROOT
ATOM      1  N   UNL     1       7.166   4.386  17.377  0.00  0.00    +0.000 NA
ATOM      2  C   UNL     1       6.206   5.250  17.248  0.00  0.00    +0.000 C 
ATOM      3  N   UNL     1       6.373   6.431  16.557  0.00  0.00    +0.000 N 
ATOM      4  H   UNL     1       7.973   4.754  16.861  0.00  0.00    +0.000 HD
ATOM      5  H   UNL     1       5.697   7.177  16.749  0.00  0.00    +0.000 HD
ENDROOT
BRANCH   2   6
ATOM      6  C   UNL     1       4.877   4.920  17.853  0.00  0.00    +0.000 A 
ATOM      7  C   UNL     1       4.606   5.307  19.174  0.00  0.00    +0.000 A 
ATOM      8  C   UNL     1       3.395   4.960  19.779  0.00  0.00    +0.000 A 
ATOM      9  C   UNL     1       2.457   4.214  19.067  0.00  0.00    +0.000 A 
ATOM     10 CL   UNL     1       0.982   3.749  19.822  0.00  0.00    +0.000 Cl
ATOM     11  C   UNL     1       2.715   3.829  17.751  0.00  0.00    +0.000 A 
ATOM     12  C   UNL     1       3.923   4.183  17.140  0.00  0.00    +0.000 A 
ENDBRANCH   2   6
BRANCH   3  13
ATOM     13  O   UNL     1       7.705   6.915  16.587  0.00  0.00    +0.000 OA
BRANCH  13  14
ATOM     14  C   UNL     1       7.983   7.529  17.782  0.00  0.00    +0.000 C 
ATOM     15  O   UNL     1       8.256   6.914  18.810  0.00  0.00    +0.000 OA
BRANCH  14  16
ATOM     16  C   UNL     1       7.887   9.032  17.665  0.00  0.00    +0.000 C 
BRANCH  16  17
ATOM     17  C   UNL     1       8.768   9.761  18.687  0.00  0.00    +0.000 C 
BRANCH  17  18
ATOM     18  C   UNL     1       9.622  10.884  18.083  0.00  0.00    +0.000 C 
ATOM     19  C   UNL     1       8.859  12.185  17.859  0.00  0.00    +0.000 C 
ATOM     20  C   UNL     1       9.956  13.224  17.676  0.00  0.00    +0.000 C 
ATOM     21  C   UNL     1      11.139  12.729  18.507  0.00  0.00    +0.000 C 
ATOM     22  C   UNL     1      10.766  11.330  18.996  0.00  0.00    +0.000 C 
ENDBRANCH  17  18
ENDBRANCH  16  17
ENDBRANCH  14  16
ENDBRANCH  13  14
ENDBRANCH   3  13
TORSDOF 6
ENDMDL
MODEL 2
REMARK VINA RESULT:      -7.6      1.226      1.359
REMARK  Name = 
REMARK  6 active torsions:
REMARK  status: ('A' for Active; 'I' for Inactive)
REMARK    1  A    between atoms: C_2  and  C_14
REMARK    2  A    between atoms: N_3  and  O_4
REMARK    3  A    between atoms: O_4  and  C_5
REMARK    4  A    between atoms: C_5  and  C_7
REMARK    5  A    between atoms: C_7  and  C_8
REMARK    6  A    between atoms: C_8  and  C_9
REMARK                            x       y       z     vdW  Elec       q    Type
REMARK                         _______ _______ _______ _____ _____    ______ ____
ROOT
ATOM      1  N   UNL     1       5.046   6.745  15.457  0.00  0.00    +0.000 NA
ATOM      2  C   UNL     1       5.047   6.389  16.706  0.00  0.00    +0.000 C 
ATOM      3  N   UNL     1       5.937   6.917  17.617  0.00  0.00    +0.000 N 
ATOM      4  H   UNL     1       5.773   7.462  15.350  0.00  0.00    +0.000 HD
ATOM      5  H   UNL     1       6.080   6.387  18.482  0.00  0.00    +0.000 HD
ENDROOT
BRANCH   2   6
ATOM      6  C   UNL     1       4.022   5.395  17.154  0.00  0.00    +0.000 A 
ATOM      7  C   UNL     1       2.874   5.844  17.824  0.00  0.00    +0.000 A 
ATOM      8  C   UNL     1       1.931   4.930  18.302  0.00  0.00    +0.000 A 
ATOM      9  C   UNL     1       2.140   3.564  18.120  0.00  0.00    +0.000 A 
ATOM     10 CL   UNL     1       1.002   2.433  18.744  0.00  0.00    +0.000 Cl
ATOM     11  C   UNL     1       3.276   3.107  17.451  0.00  0.00    +0.000 A 
ATOM     12  C   UNL     1       4.217   4.021  16.963  0.00  0.00    +0.000 A 
ENDBRANCH   2   6
BRANCH   3  13
ATOM     13  O   UNL     1       7.170   7.307  17.036  0.00  0.00    +0.000 OA
BRANCH  13  14
ATOM     14  C   UNL     1       7.990   7.898  17.963  0.00  0.00    +0.000 C 
ATOM     15  O   UNL     1       8.553   7.276  18.862  0.00  0.00    +0.000 OA
BRANCH  14  16
ATOM     16  C   UNL     1       8.085   9.389  17.745  0.00  0.00    +0.000 C 
BRANCH  16  17
ATOM     17  C   UNL     1       9.020  10.075  18.749  0.00  0.00    +0.000 C 
BRANCH  17  18
ATOM     18  C   UNL     1       9.958  11.112  18.118  0.00  0.00    +0.000 C 
ATOM     19  C   UNL     1       9.282  12.440  17.797  0.00  0.00    +0.000 C 
ATOM     20  C   UNL     1      10.443  13.402  17.599  0.00  0.00    +0.000 C 
ATOM     21  C   UNL     1      11.566  12.888  18.498  0.00  0.00    +0.000 C 
ATOM     22  C   UNL     1      11.096  11.541  19.047  0.00  0.00    +0.000 C 
ENDBRANCH  17  18
ENDBRANCH  16  17
ENDBRANCH  14  16
ENDBRANCH  13  14
ENDBRANCH   3  13
TORSDOF 6
ENDMDL
MODEL 3
REMARK VINA RESULT:      -7.6      5.459      7.275
REMARK  Name = 
REMARK  6 active torsions:
REMARK  status: ('A' for Active; 'I' for Inactive)
REMARK    1  A    between atoms: C_2  and  C_14
REMARK    2  A    between atoms: N_3  and  O_4
REMARK    3  A    between atoms: O_4  and  C_5
REMARK    4  A    between atoms: C_5  and  C_7
REMARK    5  A    between atoms: C_7  and  C_8
REMARK    6  A    between atoms: C_8  and  C_9
REMARK                            x       y       z     vdW  Elec       q    Type
REMARK                         _______ _______ _______ _____ _____    ______ ____
ROOT
ATOM      1  N   UNL     1       5.671   4.729  19.589  0.00  0.00    +0.000 NA
ATOM      2  C   UNL     1       5.252   4.002  18.599  0.00  0.00    +0.000 C 
ATOM      3  N   UNL     1       4.329   2.993  18.772  0.00  0.00    +0.000 N 
ATOM      4  H   UNL     1       5.168   4.414  20.427  0.00  0.00    +0.000 HD
ATOM      5  H   UNL     1       4.275   2.285  18.032  0.00  0.00    +0.000 HD
ENDROOT
BRANCH   2   6
ATOM      6  C   UNL     1       5.779   4.305  17.232  0.00  0.00    +0.000 A 
ATOM      7  C   UNL     1       4.920   4.213  16.126  0.00  0.00    +0.000 A 
ATOM      8  C   UNL     1       5.404   4.436  14.834  0.00  0.00    +0.000 A 
ATOM      9  C   UNL     1       6.751   4.740  14.644  0.00  0.00    +0.000 A 
ATOM     10 CL   UNL     1       7.359   4.974  13.051  0.00  0.00    +0.000 Cl
ATOM     11  C   UNL     1       7.612   4.838  15.737  0.00  0.00    +0.000 A 
ATOM     12  C   UNL     1       7.129   4.625  17.033  0.00  0.00    +0.000 A 
ENDBRANCH   2   6
BRANCH   3  13
ATOM     13  O   UNL     1       4.380   2.399  20.058  0.00  0.00    +0.000 OA
BRANCH  13  14
ATOM     14  C   UNL     1       3.178   2.519  20.708  0.00  0.00    +0.000 C 
ATOM     15  O   UNL     1       3.060   2.456  21.930  0.00  0.00    +0.000 OA
BRANCH  14  16
ATOM     16  C   UNL     1       2.041   2.714  19.733  0.00  0.00    +0.000 C 
BRANCH  16  17
ATOM     17  C   UNL     1       1.237   3.990  20.009  0.00  0.00    +0.000 C 
BRANCH  17  18
ATOM     18  C   UNL     1       2.052   5.282  19.866  0.00  0.00    +0.000 C 
ATOM     19  C   UNL     1       2.134   5.803  18.436  0.00  0.00    +0.000 C 
ATOM     20  C   UNL     1       2.592   7.245  18.599  0.00  0.00    +0.000 C 
ATOM     21  C   UNL     1       2.039   7.706  19.946  0.00  0.00    +0.000 C 
ATOM     22  C   UNL     1       1.438   6.469  20.611  0.00  0.00    +0.000 C 
ENDBRANCH  17  18
ENDBRANCH  16  17
ENDBRANCH  14  16
ENDBRANCH  13  14
ENDBRANCH   3  13
TORSDOF 6
ENDMDL
MODEL 4
REMARK VINA RESULT:      -7.5      5.615      8.009
REMARK  Name = 
REMARK  6 active torsions:
REMARK  status: ('A' for Active; 'I' for Inactive)
REMARK    1  A    between atoms: C_2  and  C_14
REMARK    2  A    between atoms: N_3  and  O_4
REMARK    3  A    between atoms: O_4  and  C_5
REMARK    4  A    between atoms: C_5  and  C_7
REMARK    5  A    between atoms: C_7  and  C_8
REMARK    6  A    between atoms: C_8  and  C_9
REMARK                            x       y       z     vdW  Elec       q    Type
REMARK                         _______ _______ _______ _____ _____    ______ ____
ROOT
ATOM      1  N   UNL     1       3.481   5.775  20.050  0.00  0.00    +0.000 NA
ATOM      2  C   UNL     1       3.087   6.327  18.942  0.00  0.00    +0.000 C 
ATOM      3  N   UNL     1       3.348   5.765  17.711  0.00  0.00    +0.000 N 
ATOM      4  H   UNL     1       3.949   4.897  19.797  0.00  0.00    +0.000 HD
ATOM      5  H   UNL     1       3.281   6.385  16.898  0.00  0.00    +0.000 HD
ENDROOT
BRANCH   2   6
ATOM      6  C   UNL     1       2.303   7.599  19.032  0.00  0.00    +0.000 A 
ATOM      7  C   UNL     1       1.694   7.948  20.246  0.00  0.00    +0.000 A 
ATOM      8  C   UNL     1       0.910   9.101  20.339  0.00  0.00    +0.000 A 
ATOM      9  C   UNL     1       0.724   9.901  19.213  0.00  0.00    +0.000 A 
ATOM     10 CL   UNL     1      -0.276  11.299  19.311  0.00  0.00    +0.000 Cl
ATOM     11  C   UNL     1       1.328   9.565  18.001  0.00  0.00    +0.000 A 
ATOM     12  C   UNL     1       2.122   8.416  17.909  0.00  0.00    +0.000 A 
ENDBRANCH   2   6
BRANCH   3  13
ATOM     13  O   UNL     1       4.540   4.998  17.685  0.00  0.00    +0.000 OA
BRANCH  13  14
ATOM     14  C   UNL     1       4.457   3.984  16.764  0.00  0.00    +0.000 C 
ATOM     15  O   UNL     1       5.293   3.803  15.882  0.00  0.00    +0.000 OA
BRANCH  14  16
ATOM     16  C   UNL     1       3.212   3.154  16.968  0.00  0.00    +0.000 C 
BRANCH  16  17
ATOM     17  C   UNL     1       3.399   2.057  18.023  0.00  0.00    +0.000 C 
BRANCH  17  18
ATOM     18  C   UNL     1       2.349   2.084  19.141  0.00  0.00    +0.000 C 
ATOM     19  C   UNL     1       2.907   2.491  20.501  0.00  0.00    +0.000 C 
ATOM     20  C   UNL     1       1.669   2.852  21.308  0.00  0.00    +0.000 C 
ATOM     21  C   UNL     1       0.650   3.373  20.297  0.00  0.00    +0.000 C 
ATOM     22  C   UNL     1       1.251   3.125  18.914  0.00  0.00    +0.000 C 
ENDBRANCH  17  18
ENDBRANCH  16  17
ENDBRANCH  14  16
ENDBRANCH  13  14
ENDBRANCH   3  13
TORSDOF 6
ENDMDL
MODEL 5
REMARK VINA RESULT:      -7.5      5.091      7.815
REMARK  Name = 
REMARK  6 active torsions:
REMARK  status: ('A' for Active; 'I' for Inactive)
REMARK    1  A    between atoms: C_2  and  C_14
REMARK    2  A    between atoms: N_3  and  O_4
REMARK    3  A    between atoms: O_4  and  C_5
REMARK    4  A    between atoms: C_5  and  C_7
REMARK    5  A    between atoms: C_7  and  C_8
REMARK    6  A    between atoms: C_8  and  C_9
REMARK                            x       y       z     vdW  Elec       q    Type
REMARK                         _______ _______ _______ _____ _____    ______ ____
ROOT
ATOM      1  N   UNL     1       6.227   4.834  19.218  0.00  0.00    +0.000 NA
ATOM      2  C   UNL     1       5.407   5.266  18.308  0.00  0.00    +0.000 C 
ATOM      3  N   UNL     1       4.292   6.014  18.623  0.00  0.00    +0.000 N 
ATOM      4  H   UNL     1       5.885   5.186  20.120  0.00  0.00    +0.000 HD
ATOM      5  H   UNL     1       3.552   6.058  17.915  0.00  0.00    +0.000 HD
ENDROOT
BRANCH   2   6
ATOM      6  C   UNL     1       5.717   4.953  16.878  0.00  0.00    +0.000 A 
ATOM      7  C   UNL     1       4.766   4.277  16.099  0.00  0.00    +0.000 A 
ATOM      8  C   UNL     1       5.055   3.923  14.778  0.00  0.00    +0.000 A 
ATOM      9  C   UNL     1       6.302   4.235  14.238  0.00  0.00    +0.000 A 
ATOM     10 CL   UNL     1       6.678   3.764  12.626  0.00  0.00    +0.000 Cl
ATOM     11  C   UNL     1       7.253   4.911  15.002  0.00  0.00    +0.000 A 
ATOM     12  C   UNL     1       6.962   5.274  16.322  0.00  0.00    +0.000 A 
ENDBRANCH   2   6
BRANCH   3  13
ATOM     13  O   UNL     1       3.769   5.728  19.908  0.00  0.00    +0.000 OA
BRANCH  13  14
ATOM     14  C   UNL     1       2.501   6.232  20.051  0.00  0.00    +0.000 C 
ATOM     15  O   UNL     1       2.224   7.420  19.895  0.00  0.00    +0.000 OA
BRANCH  14  16
ATOM     16  C   UNL     1       1.518   5.153  20.438  0.00  0.00    +0.000 C 
BRANCH  16  17
ATOM     17  C   UNL     1       2.206   3.895  20.982  0.00  0.00    +0.000 C 
BRANCH  17  18
ATOM     18  C   UNL     1       2.282   2.742  19.974  0.00  0.00    +0.000 C 
ATOM     19  C   UNL     1       1.797   3.112  18.576  0.00  0.00    +0.000 C 
ATOM     20  C   UNL     1       2.348   2.003  17.693  0.00  0.00    +0.000 C 
ATOM     21  C   UNL     1       3.644   1.545  18.361  0.00  0.00    +0.000 C 
ATOM     22  C   UNL     1       3.712   2.267  19.707  0.00  0.00    +0.000 C 
ENDBRANCH  17  18
ENDBRANCH  16  17
ENDBRANCH  14  16
ENDBRANCH  13  14
ENDBRANCH   3  13
TORSDOF 6
ENDMDL
MODEL 6
REMARK VINA RESULT:      -7.5      4.776      6.864
REMARK  Name = 
REMARK  6 active torsions:
REMARK  status: ('A' for Active; 'I' for Inactive)
REMARK    1  A    between atoms: C_2  and  C_14
REMARK    2  A    between atoms: N_3  and  O_4
REMARK    3  A    between atoms: O_4  and  C_5
REMARK    4  A    between atoms: C_5  and  C_7
REMARK    5  A    between atoms: C_7  and  C_8
REMARK    6  A    between atoms: C_8  and  C_9
REMARK                            x       y       z     vdW  Elec       q    Type
REMARK                         _______ _______ _______ _____ _____    ______ ____
ROOT
ATOM      1  N   UNL     1       6.823   5.070  18.980  0.00  0.00    +0.000 NA
ATOM      2  C   UNL     1       6.031   4.410  18.190  0.00  0.00    +0.000 C 
ATOM      3  N   UNL     1       6.441   3.959  16.953  0.00  0.00    +0.000 N 
ATOM      4  H   UNL     1       7.734   5.128  18.510  0.00  0.00    +0.000 HD
ATOM      5  H   UNL     1       5.703   3.724  16.281  0.00  0.00    +0.000 HD
ENDROOT
BRANCH   2   6
ATOM      6  C   UNL     1       4.644   4.117  18.670  0.00  0.00    +0.000 A 
ATOM      7  C   UNL     1       4.454   3.171  19.689  0.00  0.00    +0.000 A 
ATOM      8  C   UNL     1       3.165   2.839  20.114  0.00  0.00    +0.000 A 
ATOM      9  C   UNL     1       2.062   3.444  19.512  0.00  0.00    +0.000 A 
ATOM     10 CL   UNL     1       0.472   3.007  20.003  0.00  0.00    +0.000 Cl
ATOM     11  C   UNL     1       2.241   4.388  18.501  0.00  0.00    +0.000 A 
ATOM     12  C   UNL     1       3.531   4.730  18.080  0.00  0.00    +0.000 A 
ENDBRANCH   2   6
BRANCH   3  13
ATOM     13  O   UNL     1       7.444   4.769  16.364  0.00  0.00    +0.000 OA
BRANCH  13  14
ATOM     14  C   UNL     1       7.157   5.036  15.050  0.00  0.00    +0.000 C 
ATOM     15  O   UNL     1       7.945   5.589  14.285  0.00  0.00    +0.000 OA
BRANCH  14  16
ATOM     16  C   UNL     1       5.762   4.587  14.687  0.00  0.00    +0.000 C 
BRANCH  16  17
ATOM     17  C   UNL     1       5.574   4.403  13.177  0.00  0.00    +0.000 C 
BRANCH  17  18
ATOM     18  C   UNL     1       6.099   3.065  12.643  0.00  0.00    +0.000 C 
ATOM     19  C   UNL     1       5.121   2.342  11.723  0.00  0.00    +0.000 C 
ATOM     20  C   UNL     1       5.984   1.313  11.009  0.00  0.00    +0.000 C 
ATOM     21  C   UNL     1       7.379   1.929  10.924  0.00  0.00    +0.000 C 
ATOM     22  C   UNL     1       7.335   3.212  11.753  0.00  0.00    +0.000 C 
ENDBRANCH  17  18
ENDBRANCH  16  17
ENDBRANCH  14  16
ENDBRANCH  13  14
ENDBRANCH   3  13
TORSDOF 6
ENDMDL
MODEL 7
REMARK VINA RESULT:      -7.4      0.887      1.101
REMARK  Name = 
REMARK  6 active torsions:
REMARK  status: ('A' for Active; 'I' for Inactive)
REMARK    1  A    between atoms: C_2  and  C_14
REMARK    2  A    between atoms: N_3  and  O_4
REMARK    3  A    between atoms: O_4  and  C_5
REMARK    4  A    between atoms: C_5  and  C_7
REMARK    5  A    between atoms: C_7  and  C_8
REMARK    6  A    between atoms: C_8  and  C_9
REMARK                            x       y       z     vdW  Elec       q    Type
REMARK                         _______ _______ _______ _____ _____    ______ ____
ROOT
ATOM      1  N   UNL     1       6.201   4.124  16.577  0.00  0.00    +0.000 NA
ATOM      2  C   UNL     1       5.426   5.094  16.956  0.00  0.00    +0.000 C 
ATOM      3  N   UNL     1       5.694   6.410  16.646  0.00  0.00    +0.000 N 
ATOM      4  H   UNL     1       6.956   4.544  16.022  0.00  0.00    +0.000 HD
ATOM      5  H   UNL     1       5.227   7.122  17.215  0.00  0.00    +0.000 HD
ENDROOT
BRANCH   2   6
ATOM      6  C   UNL     1       4.192   4.745  17.729  0.00  0.00    +0.000 A 
ATOM      7  C   UNL     1       3.958   5.362  18.967  0.00  0.00    +0.000 A 
ATOM      8  C   UNL     1       2.843   5.011  19.733  0.00  0.00    +0.000 A 
ATOM      9  C   UNL     1       1.967   4.033  19.268  0.00  0.00    +0.000 A 
ATOM     10 CL   UNL     1       0.616   3.567  20.227  0.00  0.00    +0.000 Cl
ATOM     11  C   UNL     1       2.188   3.416  18.036  0.00  0.00    +0.000 A 
ATOM     12  C   UNL     1       3.298   3.773  17.262  0.00  0.00    +0.000 A 
ENDBRANCH   2   6
BRANCH   3  13
ATOM     13  O   UNL     1       7.078   6.682  16.503  0.00  0.00    +0.000 OA
BRANCH  13  14
ATOM     14  C   UNL     1       7.625   7.106  17.687  0.00  0.00    +0.000 C 
ATOM     15  O   UNL     1       7.905   6.347  18.613  0.00  0.00    +0.000 OA
BRANCH  14  16
ATOM     16  C   UNL     1       7.809   8.605  17.704  0.00  0.00    +0.000 C 
BRANCH  16  17
ATOM     17  C   UNL     1       8.887   9.056  18.698  0.00  0.00    +0.000 C 
BRANCH  17  18
ATOM     18  C   UNL     1       9.008  10.579  18.835  0.00  0.00    +0.000 C 
ATOM     19  C   UNL     1       9.471  11.039  20.213  0.00  0.00    +0.000 C 
ATOM     20  C   UNL     1       9.915  12.476  19.987  0.00  0.00    +0.000 C 
ATOM     21  C   UNL     1      10.413  12.536  18.544  0.00  0.00    +0.000 C 
ATOM     22  C   UNL     1      10.070  11.185  17.915  0.00  0.00    +0.000 C 
ENDBRANCH  17  18
ENDBRANCH  16  17
ENDBRANCH  14  16
ENDBRANCH  13  14
ENDBRANCH   3  13
TORSDOF 6
ENDMDL
MODEL 8
REMARK VINA RESULT:      -7.4      5.229      7.129
REMARK  Name = 
REMARK  6 active torsions:
REMARK  status: ('A' for Active; 'I' for Inactive)
REMARK    1  A    between atoms: C_2  and  C_14
REMARK    2  A    between atoms: N_3  and  O_4
REMARK    3  A    between atoms: O_4  and  C_5
REMARK    4  A    between atoms: C_5  and  C_7
REMARK    5  A    between atoms: C_7  and  C_8
REMARK    6  A    between atoms: C_8  and  C_9
REMARK                            x       y       z     vdW  Elec       q    Type
REMARK                         _______ _______ _______ _____ _____    ______ ____
ROOT
ATOM      1  N   UNL     1       4.061   1.579  17.709  0.00  0.00    +0.000 NA
ATOM      2  C   UNL     1       4.182   2.539  18.575  0.00  0.00    +0.000 C 
ATOM      3  N   UNL     1       3.535   2.512  19.792  0.00  0.00    +0.000 N 
ATOM      4  H   UNL     1       3.458   0.866  18.134  0.00  0.00    +0.000 HD
ATOM      5  H   UNL     1       3.433   3.408  20.280  0.00  0.00    +0.000 HD
ENDROOT
BRANCH   2   6
ATOM      6  C   UNL     1       5.079   3.687  18.231  0.00  0.00    +0.000 A 
ATOM      7  C   UNL     1       5.568   4.510  19.256  0.00  0.00    +0.000 A 
ATOM      8  C   UNL     1       6.361   5.621  18.955  0.00  0.00    +0.000 A 
ATOM      9  C   UNL     1       6.654   5.918  17.625  0.00  0.00    +0.000 A 
ATOM     10 CL   UNL     1       7.595   7.309  17.247  0.00  0.00    +0.000 Cl
ATOM     11  C   UNL     1       6.176   5.104  16.598  0.00  0.00    +0.000 A 
ATOM     12  C   UNL     1       5.391   3.985  16.898  0.00  0.00    +0.000 A 
ENDBRANCH   2   6
BRANCH   3  13
ATOM     13  O   UNL     1       2.315   1.791  19.764  0.00  0.00    +0.000 OA
BRANCH  13  14
ATOM     14  C   UNL     1       1.239   2.635  19.870  0.00  0.00    +0.000 C 
ATOM     15  O   UNL     1       0.231   2.536  19.174  0.00  0.00    +0.000 OA
BRANCH  14  16
ATOM     16  C   UNL     1       1.468   3.692  20.924  0.00  0.00    +0.000 C 
BRANCH  16  17
ATOM     17  C   UNL     1       1.080   5.097  20.446  0.00  0.00    +0.000 C 
BRANCH  17  18
ATOM     18  C   UNL     1       2.178   5.808  19.646  0.00  0.00    +0.000 C 
ATOM     19  C   UNL     1       2.088   5.581  18.140  0.00  0.00    +0.000 C 
ATOM     20  C   UNL     1       2.965   6.677  17.554  0.00  0.00    +0.000 C 
ATOM     21  C   UNL     1       2.880   7.846  18.533  0.00  0.00    +0.000 C 
ATOM     22  C   UNL     1       2.111   7.333  19.750  0.00  0.00    +0.000 C 
ENDBRANCH  17  18
ENDBRANCH  16  17
ENDBRANCH  14  16
ENDBRANCH  13  14
ENDBRANCH   3  13
TORSDOF 6
ENDMDL
MODEL 9
REMARK VINA RESULT:      -7.2      1.293      1.861
REMARK  Name = 
REMARK  6 active torsions:
REMARK  status: ('A' for Active; 'I' for Inactive)
REMARK    1  A    between atoms: C_2  and  C_14
REMARK    2  A    between atoms: N_3  and  O_4
REMARK    3  A    between atoms: O_4  and  C_5
REMARK    4  A    between atoms: C_5  and  C_7
REMARK    5  A    between atoms: C_7  and  C_8
REMARK    6  A    between atoms: C_8  and  C_9
REMARK                            x       y       z     vdW  Elec       q    Type
REMARK                         _______ _______ _______ _____ _____    ______ ____
ROOT
ATOM      1  N   UNL     1       6.834   5.035  19.825  0.00  0.00    +0.000 NA
ATOM      2  C   UNL     1       6.299   4.766  18.672  0.00  0.00    +0.000 C 
ATOM      3  N   UNL     1       6.986   4.935  17.489  0.00  0.00    +0.000 N 
ATOM      4  H   UNL     1       7.798   5.337  19.644  0.00  0.00    +0.000 HD
ATOM      5  H   UNL     1       6.424   4.995  16.634  0.00  0.00    +0.000 HD
ENDROOT
BRANCH   2   6
ATOM      6  C   UNL     1       4.901   4.230  18.654  0.00  0.00    +0.000 A 
ATOM      7  C   UNL     1       3.928   4.871  17.874  0.00  0.00    +0.000 A 
ATOM      8  C   UNL     1       2.604   4.423  17.886  0.00  0.00    +0.000 A 
ATOM      9  C   UNL     1       2.249   3.340  18.688  0.00  0.00    +0.000 A 
ATOM     10 CL   UNL     1       0.612   2.812  18.738  0.00  0.00    +0.000 Cl
ATOM     11  C   UNL     1       3.211   2.693  19.465  0.00  0.00    +0.000 A 
ATOM     12  C   UNL     1       4.539   3.133  19.447  0.00  0.00    +0.000 A 
ENDBRANCH   2   6
BRANCH   3  13
ATOM     13  O   UNL     1       7.958   5.965  17.547  0.00  0.00    +0.000 OA
BRANCH  13  14
ATOM     14  C   UNL     1       7.380   7.201  17.405  0.00  0.00    +0.000 C 
ATOM     15  O   UNL     1       6.428   7.421  16.660  0.00  0.00    +0.000 OA
BRANCH  14  16
ATOM     16  C   UNL     1       8.077   8.236  18.257  0.00  0.00    +0.000 C 
BRANCH  16  17
ATOM     17  C   UNL     1       8.362   9.535  17.492  0.00  0.00    +0.000 C 
BRANCH  17  18
ATOM     18  C   UNL     1       8.895  10.671  18.374  0.00  0.00    +0.000 C 
ATOM     19  C   UNL     1       9.327  10.222  19.765  0.00  0.00    +0.000 C 
ATOM     20  C   UNL     1      10.180  11.374  20.273  0.00  0.00    +0.000 C 
ATOM     21  C   UNL     1      10.818  11.997  19.032  0.00  0.00    +0.000 C 
ATOM     22  C   UNL     1      10.173  11.312  17.827  0.00  0.00    +0.000 C 
ENDBRANCH  17  18
ENDBRANCH  16  17
ENDBRANCH  14  16
ENDBRANCH  13  14
ENDBRANCH   3  13
TORSDOF 6
ENDMDL
