MODEL 1
REMARK VINA RESULT:      -7.7      0.000      0.000
REMARK  Name = 
REMARK  8 active torsions:
REMARK  status: ('A' for Active; 'I' for Inactive)
REMARK    1  A    between atoms: C_1  and  O_2
REMARK    2  A    between atoms: O_2  and  C_3
REMARK    3  A    between atoms: C_6  and  N_7
REMARK    4  A    between atoms: C_10  and  C_11
REMARK    5  A    between atoms: C_11  and  C_12
REMARK    6  A    between atoms: N_14  and  C_15
REMARK    7  A    between atoms: N_23  and  C_24
REMARK    8  A    between atoms: C_24  and  C_25
REMARK                            x       y       z     vdW  Elec       q    Type
REMARK                         _______ _______ _______ _____ _____    ______ ____
ROOT
ATOM      1  N   UNL     1       3.908   5.981  18.720  0.00  0.00    +0.000 NA
ATOM      2  C   UNL     1       2.989   6.894  18.719  0.00  0.00    +0.000 C 
ATOM      3  S   UNL     1       2.573   8.014  17.452  0.00  0.00    +0.000 S 
ATOM      4  C   UNL     1       1.301   8.843  18.415  0.00  0.00    +0.000 C 
ATOM      5  C   UNL     1       1.298   8.153  19.757  0.00  0.00    +0.000 C 
ATOM      6  O   UNL     1       0.638   8.588  20.699  0.00  0.00    +0.000 OA
ATOM      7  N   UNL     1       2.180   7.098  19.812  0.00  0.00    +0.000 N 
ENDROOT
BRANCH   1  11
ATOM      8  C   UNL     1       6.819   5.445  15.689  0.00  0.00    +0.000 A 
ATOM      9  C   UNL     1       7.098   6.165  16.848  0.00  0.00    +0.000 A 
ATOM     10  C   UNL     1       6.114   6.326  17.834  0.00  0.00    +0.000 A 
ATOM     11  C   UNL     1       4.837   5.772  17.683  0.00  0.00    +0.000 A 
ATOM     12  C   UNL     1       4.601   5.007  16.539  0.00  0.00    +0.000 A 
ATOM     13  C   UNL     1       5.557   4.889  15.526  0.00  0.00    +0.000 A 
BRANCH   8  15
ATOM     14  C   UNL     1       7.439   4.938  13.470  0.00  0.00    +0.000 C 
ATOM     15  O   UNL     1       7.836   5.347  14.775  0.00  0.00    +0.000 OA
ENDBRANCH   8  15
ENDBRANCH   1  11
BRANCH   4  16
ATOM     16  C   UNL     1       1.555  10.342  18.546  0.00  0.00    +0.000 C 
BRANCH  16  17
ATOM     17  C   UNL     1       0.300  11.172  18.341  0.00  0.00    +0.000 C 
ATOM     18  O   UNL     1       0.281  12.345  18.703  0.00  0.00    +0.000 OA
ATOM     19  N   UNL     1      -0.759  10.455  17.811  0.00  0.00    +0.000 N 
ATOM     20  H   UNL     1      -0.620   9.463  17.631  0.00  0.00    +0.000 HD
BRANCH  19  21
ATOM     21  C   UNL     1      -2.076  10.928  17.641  0.00  0.00    +0.000 A 
ATOM     22  C   UNL     1      -2.846  11.453  18.677  0.00  0.00    +0.000 A 
ATOM     23  C   UNL     1      -4.159  11.873  18.449  0.00  0.00    +0.000 A 
ATOM     24  C   UNL     1      -4.713  11.767  17.176  0.00  0.00    +0.000 A 
ATOM     25  C   UNL     1      -3.950  11.256  16.129  0.00  0.00    +0.000 A 
ATOM     26  C   UNL     1      -2.626  10.853  16.359  0.00  0.00    +0.000 A 
ENDBRANCH  19  21
ENDBRANCH  16  17
ENDBRANCH   4  16
BRANCH   7  27
ATOM     27  C   UNL     1       2.348   6.359  21.059  0.00  0.00    +0.000 C 
BRANCH  27  28
ATOM     28  C   UNL     1       1.991   4.894  20.917  0.00  0.00    +0.000 A 
ATOM     29  C   UNL     1       1.035   4.480  19.992  0.00  0.00    +0.000 A 
ATOM     30  C   UNL     1       0.708   3.130  19.916  0.00  0.00    +0.000 A 
ATOM     31  C   UNL     1       1.352   2.223  20.753  0.00  0.00    +0.000 A 
ATOM     32  C   UNL     1       2.305   2.709  21.628  0.00  0.00    +0.000 A 
ATOM     33  N   UNL     1       2.635   4.015  21.728  0.00  0.00    +0.000 NA
ENDBRANCH  27  28
ENDBRANCH   7  27
TORSDOF 7
ENDMDL
MODEL 2
REMARK VINA RESULT:      -7.5      2.535      8.618
REMARK  Name = 
REMARK  8 active torsions:
REMARK  status: ('A' for Active; 'I' for Inactive)
REMARK    1  A    between atoms: C_1  and  O_2
REMARK    2  A    between atoms: O_2  and  C_3
REMARK    3  A    between atoms: C_6  and  N_7
REMARK    4  A    between atoms: C_10  and  C_11
REMARK    5  A    between atoms: C_11  and  C_12
REMARK    6  A    between atoms: N_14  and  C_15
REMARK    7  A    between atoms: N_23  and  C_24
REMARK    8  A    between atoms: C_24  and  C_25
REMARK                            x       y       z     vdW  Elec       q    Type
REMARK                         _______ _______ _______ _____ _____    ______ ____
ROOT
ATOM      1  N   UNL     1       2.117   6.478  18.514  0.00  0.00    +0.000 NA
ATOM      2  C   UNL     1       3.203   6.137  17.897  0.00  0.00    +0.000 C 
ATOM      3  S   UNL     1       4.547   7.142  17.430  0.00  0.00    +0.000 S 
ATOM      4  C   UNL     1       5.442   5.808  16.625  0.00  0.00    +0.000 C 
ATOM      5  C   UNL     1       4.564   4.588  16.770  0.00  0.00    +0.000 C 
ATOM      6  O   UNL     1       4.828   3.537  16.190  0.00  0.00    +0.000 OA
ATOM      7  N   UNL     1       3.428   4.839  17.506  0.00  0.00    +0.000 N 
ENDROOT
BRANCH   1  11
ATOM      8  C   UNL     1       1.059  10.398  19.725  0.00  0.00    +0.000 A 
ATOM      9  C   UNL     1       1.219   9.368  20.649  0.00  0.00    +0.000 A 
ATOM     10  C   UNL     1       1.570   8.080  20.219  0.00  0.00    +0.000 A 
ATOM     11  C   UNL     1       1.767   7.797  18.862  0.00  0.00    +0.000 A 
ATOM     12  C   UNL     1       1.657   8.859  17.963  0.00  0.00    +0.000 A 
ATOM     13  C   UNL     1       1.254  10.131  18.377  0.00  0.00    +0.000 A 
BRANCH   8  15
ATOM     14  C   UNL     1      -0.569  11.668  20.865  0.00  0.00    +0.000 C 
ATOM     15  O   UNL     1       0.707  11.621  20.234  0.00  0.00    +0.000 OA
ENDBRANCH   8  15
ENDBRANCH   1  11
BRANCH   4  16
ATOM     16  C   UNL     1       5.752   6.114  15.163  0.00  0.00    +0.000 C 
BRANCH  16  17
ATOM     17  C   UNL     1       6.395   4.944  14.439  0.00  0.00    +0.000 C 
ATOM     18  O   UNL     1       7.534   4.598  14.737  0.00  0.00    +0.000 OA
ATOM     19  N   UNL     1       5.612   4.421  13.425  0.00  0.00    +0.000 N 
ATOM     20  H   UNL     1       4.714   4.863  13.241  0.00  0.00    +0.000 HD
BRANCH  19  21
ATOM     21  C   UNL     1       6.005   3.427  12.505  0.00  0.00    +0.000 A 
ATOM     22  C   UNL     1       5.167   2.398  12.079  0.00  0.00    +0.000 A 
ATOM     23  C   UNL     1       5.629   1.424  11.190  0.00  0.00    +0.000 A 
ATOM     24  C   UNL     1       6.940   1.473  10.722  0.00  0.00    +0.000 A 
ATOM     25  C   UNL     1       7.783   2.504  11.131  0.00  0.00    +0.000 A 
ATOM     26  C   UNL     1       7.309   3.489  12.008  0.00  0.00    +0.000 A 
ENDBRANCH  19  21
ENDBRANCH  16  17
ENDBRANCH   4  16
BRANCH   7  27
ATOM     27  C   UNL     1       2.439   3.783  17.691  0.00  0.00    +0.000 C 
BRANCH  27  28
ATOM     28  C   UNL     1       2.337   3.330  19.133  0.00  0.00    +0.000 A 
ATOM     29  C   UNL     1       1.117   3.357  19.804  0.00  0.00    +0.000 A 
ATOM     30  C   UNL     1       1.071   2.967  21.139  0.00  0.00    +0.000 A 
ATOM     31  C   UNL     1       2.238   2.546  21.768  0.00  0.00    +0.000 A 
ATOM     32  C   UNL     1       3.405   2.525  21.027  0.00  0.00    +0.000 A 
ATOM     33  N   UNL     1       3.480   2.906  19.734  0.00  0.00    +0.000 NA
ENDBRANCH  27  28
ENDBRANCH   7  27
TORSDOF 7
ENDMDL
MODEL 3
REMARK VINA RESULT:      -7.5      0.823      1.466
REMARK  Name = 
REMARK  8 active torsions:
REMARK  status: ('A' for Active; 'I' for Inactive)
REMARK    1  A    between atoms: C_1  and  O_2
REMARK    2  A    between atoms: O_2  and  C_3
REMARK    3  A    between atoms: C_6  and  N_7
REMARK    4  A    between atoms: C_10  and  C_11
REMARK    5  A    between atoms: C_11  and  C_12
REMARK    6  A    between atoms: N_14  and  C_15
REMARK    7  A    between atoms: N_23  and  C_24
REMARK    8  A    between atoms: C_24  and  C_25
REMARK                            x       y       z     vdW  Elec       q    Type
REMARK                         _______ _______ _______ _____ _____    ______ ____
ROOT
ATOM      1  N   UNL     1       3.840   6.024  18.853  0.00  0.00    +0.000 NA
ATOM      2  C   UNL     1       2.981   6.992  18.838  0.00  0.00    +0.000 C 
ATOM      3  S   UNL     1       2.714   8.188  17.599  0.00  0.00    +0.000 S 
ATOM      4  C   UNL     1       1.437   9.055  18.519  0.00  0.00    +0.000 C 
ATOM      5  C   UNL     1       1.307   8.313  19.826  0.00  0.00    +0.000 C 
ATOM      6  O   UNL     1       0.616   8.749  20.745  0.00  0.00    +0.000 OA
ATOM      7  N   UNL     1       2.118   7.202  19.887  0.00  0.00    +0.000 N 
ENDROOT
BRANCH   1  11
ATOM      8  C   UNL     1       6.678   5.244  15.804  0.00  0.00    +0.000 A 
ATOM      9  C   UNL     1       5.412   4.664  15.787  0.00  0.00    +0.000 A 
ATOM     10  C   UNL     1       4.493   4.941  16.810  0.00  0.00    +0.000 A 
ATOM     11  C   UNL     1       4.820   5.800  17.866  0.00  0.00    +0.000 A 
ATOM     12  C   UNL     1       6.074   6.413  17.830  0.00  0.00    +0.000 A 
ATOM     13  C   UNL     1       7.014   6.099  16.845  0.00  0.00    +0.000 A 
BRANCH   8  15
ATOM     14  C   UNL     1       6.864   4.379  13.618  0.00  0.00    +0.000 C 
ATOM     15  O   UNL     1       7.512   4.911  14.770  0.00  0.00    +0.000 OA
ENDBRANCH   8  15
ENDBRANCH   1  11
BRANCH   4  16
ATOM     16  C   UNL     1       1.772  10.528  18.732  0.00  0.00    +0.000 C 
BRANCH  16  17
ATOM     17  C   UNL     1       0.545  11.423  18.697  0.00  0.00    +0.000 C 
ATOM     18  O   UNL     1       0.683  12.640  18.623  0.00  0.00    +0.000 OA
ATOM     19  N   UNL     1      -0.647  10.734  18.833  0.00  0.00    +0.000 N 
ATOM     20  H   UNL     1      -0.603   9.726  18.963  0.00  0.00    +0.000 HD
BRANCH  19  21
ATOM     21  C   UNL     1      -1.926  11.312  18.970  0.00  0.00    +0.000 A 
ATOM     22  C   UNL     1      -2.281  12.159  20.018  0.00  0.00    +0.000 A 
ATOM     23  C   UNL     1      -3.577  12.672  20.115  0.00  0.00    +0.000 A 
ATOM     24  C   UNL     1      -4.532  12.335  19.158  0.00  0.00    +0.000 A 
ATOM     25  C   UNL     1      -4.186  11.500  18.098  0.00  0.00    +0.000 A 
ATOM     26  C   UNL     1      -2.879  11.003  17.996  0.00  0.00    +0.000 A 
ENDBRANCH  19  21
ENDBRANCH  16  17
ENDBRANCH   4  16
BRANCH   7  27
ATOM     27  C   UNL     1       2.161   6.403  21.107  0.00  0.00    +0.000 C 
BRANCH  27  28
ATOM     28  C   UNL     1       1.868   4.939  20.852  0.00  0.00    +0.000 A 
ATOM     29  C   UNL     1       2.499   3.946  21.598  0.00  0.00    +0.000 A 
ATOM     30  C   UNL     1       2.232   2.612  21.310  0.00  0.00    +0.000 A 
ATOM     31  C   UNL     1       1.330   2.299  20.297  0.00  0.00    +0.000 A 
ATOM     32  C   UNL     1       0.727   3.342  19.618  0.00  0.00    +0.000 A 
ATOM     33  N   UNL     1       0.976   4.645  19.871  0.00  0.00    +0.000 NA
ENDBRANCH  27  28
ENDBRANCH   7  27
TORSDOF 7
ENDMDL
MODEL 4
REMARK VINA RESULT:      -7.5      2.349      8.553
REMARK  Name = 
REMARK  8 active torsions:
REMARK  status: ('A' for Active; 'I' for Inactive)
REMARK    1  A    between atoms: C_1  and  O_2
REMARK    2  A    between atoms: O_2  and  C_3
REMARK    3  A    between atoms: C_6  and  N_7
REMARK    4  A    between atoms: C_10  and  C_11
REMARK    5  A    between atoms: C_11  and  C_12
REMARK    6  A    between atoms: N_14  and  C_15
REMARK    7  A    between atoms: N_23  and  C_24
REMARK    8  A    between atoms: C_24  and  C_25
REMARK                            x       y       z     vdW  Elec       q    Type
REMARK                         _______ _______ _______ _____ _____    ______ ____
ROOT
ATOM      1  N   UNL     1       2.048   6.610  18.606  0.00  0.00    +0.000 NA
ATOM      2  C   UNL     1       3.121   6.239  17.984  0.00  0.00    +0.000 C 
ATOM      3  S   UNL     1       4.494   7.204  17.518  0.00  0.00    +0.000 S 
ATOM      4  C   UNL     1       5.345   5.846  16.704  0.00  0.00    +0.000 C 
ATOM      5  C   UNL     1       4.430   4.654  16.845  0.00  0.00    +0.000 C 
ATOM      6  O   UNL     1       4.659   3.598  16.260  0.00  0.00    +0.000 OA
ATOM      7  N   UNL     1       3.304   4.937  17.586  0.00  0.00    +0.000 N 
ENDROOT
BRANCH   1  11
ATOM      8  C   UNL     1       1.134  10.647  19.510  0.00  0.00    +0.000 A 
ATOM      9  C   UNL     1       1.361  10.227  18.202  0.00  0.00    +0.000 A 
ATOM     10  C   UNL     1       1.661   8.884  17.933  0.00  0.00    +0.000 A 
ATOM     11  C   UNL     1       1.740   7.938  18.962  0.00  0.00    +0.000 A 
ATOM     12  C   UNL     1       1.453   8.373  20.257  0.00  0.00    +0.000 A 
ATOM     13  C   UNL     1       1.207   9.719  20.540  0.00  0.00    +0.000 A 
BRANCH   8  15
ATOM     14  C   UNL     1      -0.111  12.514  18.782  0.00  0.00    +0.000 C 
ATOM     15  O   UNL     1       0.856  11.979  19.681  0.00  0.00    +0.000 OA
ENDBRANCH   8  15
ENDBRANCH   1  11
BRANCH   4  16
ATOM     16  C   UNL     1       5.661   6.151  15.242  0.00  0.00    +0.000 C 
BRANCH  16  17
ATOM     17  C   UNL     1       6.370   5.005  14.542  0.00  0.00    +0.000 C 
ATOM     18  O   UNL     1       7.510   4.700  14.877  0.00  0.00    +0.000 OA
ATOM     19  N   UNL     1       5.640   4.453  13.503  0.00  0.00    +0.000 N 
ATOM     20  H   UNL     1       4.734   4.862  13.289  0.00  0.00    +0.000 HD
BRANCH  19  21
ATOM     21  C   UNL     1       6.099   3.474  12.598  0.00  0.00    +0.000 A 
ATOM     22  C   UNL     1       7.408   3.415  12.125  0.00  0.00    +0.000 A 
ATOM     23  C   UNL     1       7.790   2.439  11.201  0.00  0.00    +0.000 A 
ATOM     24  C   UNL     1       6.857   1.512  10.742  0.00  0.00    +0.000 A 
ATOM     25  C   UNL     1       5.549   1.553  11.216  0.00  0.00    +0.000 A 
ATOM     26  C   UNL     1       5.176   2.523  12.157  0.00  0.00    +0.000 A 
ENDBRANCH  19  21
ENDBRANCH  16  17
ENDBRANCH   4  16
BRANCH   7  27
ATOM     27  C   UNL     1       2.283   3.911  17.768  0.00  0.00    +0.000 C 
BRANCH  27  28
ATOM     28  C   UNL     1       2.237   3.385  19.188  0.00  0.00    +0.000 A 
ATOM     29  C   UNL     1       1.048   3.393  19.913  0.00  0.00    +0.000 A 
ATOM     30  C   UNL     1       1.054   2.935  21.227  0.00  0.00    +0.000 A 
ATOM     31  C   UNL     1       2.241   2.466  21.782  0.00  0.00    +0.000 A 
ATOM     32  C   UNL     1       3.374   2.468  20.990  0.00  0.00    +0.000 A 
ATOM     33  N   UNL     1       3.398   2.915  19.715  0.00  0.00    +0.000 NA
ENDBRANCH  27  28
ENDBRANCH   7  27
TORSDOF 7
ENDMDL
MODEL 5
REMARK VINA RESULT:      -7.4      3.612     10.631
REMARK  Name = 
REMARK  8 active torsions:
REMARK  status: ('A' for Active; 'I' for Inactive)
REMARK    1  A    between atoms: C_1  and  O_2
REMARK    2  A    between atoms: O_2  and  C_3
REMARK    3  A    between atoms: C_6  and  N_7
REMARK    4  A    between atoms: C_10  and  C_11
REMARK    5  A    between atoms: C_11  and  C_12
REMARK    6  A    between atoms: N_14  and  C_15
REMARK    7  A    between atoms: N_23  and  C_24
REMARK    8  A    between atoms: C_24  and  C_25
REMARK                            x       y       z     vdW  Elec       q    Type
REMARK                         _______ _______ _______ _____ _____    ______ ____
ROOT
ATOM      1  N   UNL     1      -2.402  13.124  20.045  0.00  0.00    +0.000 NA
ATOM      2  C   UNL     1      -1.356  12.482  19.633  0.00  0.00    +0.000 C 
ATOM      3  S   UNL     1      -1.276  10.942  18.824  0.00  0.00    +0.000 S 
ATOM      4  C   UNL     1       0.519  10.916  18.755  0.00  0.00    +0.000 C 
ATOM      5  C   UNL     1       0.967  12.190  19.429  0.00  0.00    +0.000 C 
ATOM      6  O   UNL     1       2.152  12.401  19.679  0.00  0.00    +0.000 OA
ATOM      7  N   UNL     1      -0.090  12.986  19.811  0.00  0.00    +0.000 N 
ENDROOT
BRANCH   1  11
ATOM      8  C   UNL     1      -6.394  11.703  20.038  0.00  0.00    +0.000 A 
ATOM      9  C   UNL     1      -5.840  12.312  21.161  0.00  0.00    +0.000 A 
ATOM     10  C   UNL     1      -4.515  12.773  21.134  0.00  0.00    +0.000 A 
ATOM     11  C   UNL     1      -3.722  12.636  19.989  0.00  0.00    +0.000 A 
ATOM     12  C   UNL     1      -4.319  12.074  18.858  0.00  0.00    +0.000 A 
ATOM     13  C   UNL     1      -5.620  11.562  18.895  0.00  0.00    +0.000 A 
BRANCH   8  15
ATOM     14  C   UNL     1      -7.863  10.066  20.889  0.00  0.00    +0.000 C 
ATOM     15  O   UNL     1      -7.691  11.276  20.157  0.00  0.00    +0.000 OA
ENDBRANCH   8  15
ENDBRANCH   1  11
BRANCH   4  16
ATOM     16  C   UNL     1       1.110   9.680  19.426  0.00  0.00    +0.000 C 
BRANCH  16  17
ATOM     17  C   UNL     1       1.829   8.766  18.450  0.00  0.00    +0.000 C 
ATOM     18  O   UNL     1       1.910   9.084  17.267  0.00  0.00    +0.000 OA
ATOM     19  N   UNL     1       2.272   7.585  19.018  0.00  0.00    +0.000 N 
ATOM     20  H   UNL     1       2.065   7.422  20.001  0.00  0.00    +0.000 HD
BRANCH  19  21
ATOM     21  C   UNL     1       2.847   6.498  18.328  0.00  0.00    +0.000 A 
ATOM     22  C   UNL     1       2.202   5.278  18.135  0.00  0.00    +0.000 A 
ATOM     23  C   UNL     1       2.842   4.229  17.471  0.00  0.00    +0.000 A 
ATOM     24  C   UNL     1       4.141   4.395  16.995  0.00  0.00    +0.000 A 
ATOM     25  C   UNL     1       4.792   5.614  17.169  0.00  0.00    +0.000 A 
ATOM     26  C   UNL     1       4.138   6.670  17.821  0.00  0.00    +0.000 A 
ENDBRANCH  19  21
ENDBRANCH  16  17
ENDBRANCH   4  16
BRANCH   7  27
ATOM     27  C   UNL     1       0.164  14.228  20.532  0.00  0.00    +0.000 C 
BRANCH  27  28
ATOM     28  C   UNL     1       0.371  15.406  19.603  0.00  0.00    +0.000 A 
ATOM     29  C   UNL     1      -0.716  16.115  19.097  0.00  0.00    +0.000 A 
ATOM     30  C   UNL     1      -0.487  17.168  18.218  0.00  0.00    +0.000 A 
ATOM     31  C   UNL     1       0.820  17.500  17.875  0.00  0.00    +0.000 A 
ATOM     32  C   UNL     1       1.847  16.764  18.438  0.00  0.00    +0.000 A 
ATOM     33  N   UNL     1       1.652  15.731  19.287  0.00  0.00    +0.000 NA
ENDBRANCH  27  28
ENDBRANCH   7  27
TORSDOF 7
ENDMDL
MODEL 6
REMARK VINA RESULT:      -7.3      2.234      3.019
REMARK  Name = 
REMARK  8 active torsions:
REMARK  status: ('A' for Active; 'I' for Inactive)
REMARK    1  A    between atoms: C_1  and  O_2
REMARK    2  A    between atoms: O_2  and  C_3
REMARK    3  A    between atoms: C_6  and  N_7
REMARK    4  A    between atoms: C_10  and  C_11
REMARK    5  A    between atoms: C_11  and  C_12
REMARK    6  A    between atoms: N_14  and  C_15
REMARK    7  A    between atoms: N_23  and  C_24
REMARK    8  A    between atoms: C_24  and  C_25
REMARK                            x       y       z     vdW  Elec       q    Type
REMARK                         _______ _______ _______ _____ _____    ______ ____
ROOT
ATOM      1  N   UNL     1       3.871   5.980  18.833  0.00  0.00    +0.000 NA
ATOM      2  C   UNL     1       3.011   6.948  18.820  0.00  0.00    +0.000 C 
ATOM      3  S   UNL     1       2.750   8.152  17.588  0.00  0.00    +0.000 S 
ATOM      4  C   UNL     1       1.467   9.012  18.506  0.00  0.00    +0.000 C 
ATOM      5  C   UNL     1       1.331   8.261  19.808  0.00  0.00    +0.000 C 
ATOM      6  O   UNL     1       0.634   8.690  20.726  0.00  0.00    +0.000 OA
ATOM      7  N   UNL     1       2.142   7.150  19.866  0.00  0.00    +0.000 N 
ENDROOT
BRANCH   1  11
ATOM      8  C   UNL     1       6.725   5.222  15.795  0.00  0.00    +0.000 A 
ATOM      9  C   UNL     1       5.462   4.636  15.770  0.00  0.00    +0.000 A 
ATOM     10  C   UNL     1       4.537   4.906  16.790  0.00  0.00    +0.000 A 
ATOM     11  C   UNL     1       4.855   5.763  17.850  0.00  0.00    +0.000 A 
ATOM     12  C   UNL     1       6.107   6.382  17.821  0.00  0.00    +0.000 A 
ATOM     13  C   UNL     1       7.053   6.076  16.839  0.00  0.00    +0.000 A 
BRANCH   8  15
ATOM     14  C   UNL     1       6.919   4.449  13.575  0.00  0.00    +0.000 C 
ATOM     15  O   UNL     1       7.566   4.895  14.764  0.00  0.00    +0.000 OA
ENDBRANCH   8  15
ENDBRANCH   1  11
BRANCH   4  16
ATOM     16  C   UNL     1       1.800  10.484  18.731  0.00  0.00    +0.000 C 
BRANCH  16  17
ATOM     17  C   UNL     1       0.670  11.248  19.398  0.00  0.00    +0.000 C 
ATOM     18  O   UNL     1      -0.301  11.599  18.734  0.00  0.00    +0.000 OA
ATOM     19  N   UNL     1       0.909  11.541  20.729  0.00  0.00    +0.000 N 
ATOM     20  H   UNL     1       1.798  11.252  21.129  0.00  0.00    +0.000 HD
BRANCH  19  21
ATOM     21  C   UNL     1       0.102  12.350  21.556  0.00  0.00    +0.000 A 
ATOM     22  C   UNL     1       0.256  13.731  21.670  0.00  0.00    +0.000 A 
ATOM     23  C   UNL     1      -0.554  14.471  22.535  0.00  0.00    +0.000 A 
ATOM     24  C   UNL     1      -1.528  13.829  23.296  0.00  0.00    +0.000 A 
ATOM     25  C   UNL     1      -1.700  12.452  23.183  0.00  0.00    +0.000 A 
ATOM     26  C   UNL     1      -0.896  11.717  22.300  0.00  0.00    +0.000 A 
ENDBRANCH  19  21
ENDBRANCH  16  17
ENDBRANCH   4  16
BRANCH   7  27
ATOM     27  C   UNL     1       2.179   6.344  21.081  0.00  0.00    +0.000 C 
BRANCH  27  28
ATOM     28  C   UNL     1       1.863   4.886  20.818  0.00  0.00    +0.000 A 
ATOM     29  C   UNL     1       2.411   3.883  21.615  0.00  0.00    +0.000 A 
ATOM     30  C   UNL     1       2.126   2.554  21.321  0.00  0.00    +0.000 A 
ATOM     31  C   UNL     1       1.290   2.255  20.249  0.00  0.00    +0.000 A 
ATOM     32  C   UNL     1       0.766   3.308  19.520  0.00  0.00    +0.000 A 
ATOM     33  N   UNL     1       1.034   4.606  19.779  0.00  0.00    +0.000 NA
ENDBRANCH  27  28
ENDBRANCH   7  27
TORSDOF 7
ENDMDL
MODEL 7
REMARK VINA RESULT:      -7.3      2.297      2.885
REMARK  Name = 
REMARK  8 active torsions:
REMARK  status: ('A' for Active; 'I' for Inactive)
REMARK    1  A    between atoms: C_1  and  O_2
REMARK    2  A    between atoms: O_2  and  C_3
REMARK    3  A    between atoms: C_6  and  N_7
REMARK    4  A    between atoms: C_10  and  C_11
REMARK    5  A    between atoms: C_11  and  C_12
REMARK    6  A    between atoms: N_14  and  C_15
REMARK    7  A    between atoms: N_23  and  C_24
REMARK    8  A    between atoms: C_24  and  C_25
REMARK                            x       y       z     vdW  Elec       q    Type
REMARK                         _______ _______ _______ _____ _____    ______ ____
ROOT
ATOM      1  N   UNL     1       3.895   5.828  18.715  0.00  0.00    +0.000 NA
ATOM      2  C   UNL     1       3.036   6.789  18.844  0.00  0.00    +0.000 C 
ATOM      3  S   UNL     1       2.788   8.169  17.810  0.00  0.00    +0.000 S 
ATOM      4  C   UNL     1       1.498   8.881  18.839  0.00  0.00    +0.000 C 
ATOM      5  C   UNL     1       1.350   7.939  20.008  0.00  0.00    +0.000 C 
ATOM      6  O   UNL     1       0.646   8.224  20.975  0.00  0.00    +0.000 OA
ATOM      7  N   UNL     1       2.159   6.830  19.901  0.00  0.00    +0.000 N 
ENDROOT
BRANCH   1  11
ATOM      8  C   UNL     1       6.777   5.535  15.623  0.00  0.00    +0.000 A 
ATOM      9  C   UNL     1       5.525   4.934  15.512  0.00  0.00    +0.000 A 
ATOM     10  C   UNL     1       4.591   5.049  16.552  0.00  0.00    +0.000 A 
ATOM     11  C   UNL     1       4.888   5.763  17.719  0.00  0.00    +0.000 A 
ATOM     12  C   UNL     1       6.127   6.403  17.782  0.00  0.00    +0.000 A 
ATOM     13  C   UNL     1       7.084   6.247  16.774  0.00  0.00    +0.000 A 
BRANCH   8  15
ATOM     14  C   UNL     1       7.102   4.599  13.483  0.00  0.00    +0.000 C 
ATOM     15  O   UNL     1       7.628   5.364  14.563  0.00  0.00    +0.000 OA
ENDBRANCH   8  15
ENDBRANCH   1  11
BRANCH   4  16
ATOM     16  C   UNL     1       1.832  10.300  19.291  0.00  0.00    +0.000 C 
BRANCH  16  17
ATOM     17  C   UNL     1       0.618  11.055  19.805  0.00  0.00    +0.000 C 
ATOM     18  O   UNL     1      -0.189  11.523  19.007  0.00  0.00    +0.000 OA
ATOM     19  N   UNL     1       0.597  11.199  21.181  0.00  0.00    +0.000 N 
ATOM     20  H   UNL     1       1.379  10.823  21.711  0.00  0.00    +0.000 HD
BRANCH  19  21
ATOM     21  C   UNL     1      -0.329  11.965  21.919  0.00  0.00    +0.000 A 
ATOM     22  C   UNL     1      -1.430  11.418  22.576  0.00  0.00    +0.000 A 
ATOM     23  C   UNL     1      -2.331  12.237  23.262  0.00  0.00    +0.000 A 
ATOM     24  C   UNL     1      -2.134  13.615  23.293  0.00  0.00    +0.000 A 
ATOM     25  C   UNL     1      -1.031  14.173  22.651  0.00  0.00    +0.000 A 
ATOM     26  C   UNL     1      -0.120  13.344  21.979  0.00  0.00    +0.000 A 
ENDBRANCH  19  21
ENDBRANCH  16  17
ENDBRANCH   4  16
BRANCH   7  27
ATOM     27  C   UNL     1       2.184   5.846  20.978  0.00  0.00    +0.000 C 
BRANCH  27  28
ATOM     28  C   UNL     1       2.028   4.428  20.470  0.00  0.00    +0.000 A 
ATOM     29  C   UNL     1       0.837   4.009  19.880  0.00  0.00    +0.000 A 
ATOM     30  C   UNL     1       0.719   2.688  19.459  0.00  0.00    +0.000 A 
ATOM     31  C   UNL     1       1.795   1.821  19.622  0.00  0.00    +0.000 A 
ATOM     32  C   UNL     1       2.951   2.318  20.195  0.00  0.00    +0.000 A 
ATOM     33  N   UNL     1       3.089   3.593  20.621  0.00  0.00    +0.000 NA
ENDBRANCH  27  28
ENDBRANCH   7  27
TORSDOF 7
ENDMDL
MODEL 8
REMARK VINA RESULT:      -7.2      2.765      7.971
REMARK  Name = 
REMARK  8 active torsions:
REMARK  status: ('A' for Active; 'I' for Inactive)
REMARK    1  A    between atoms: C_1  and  O_2
REMARK    2  A    between atoms: O_2  and  C_3
REMARK    3  A    between atoms: C_6  and  N_7
REMARK    4  A    between atoms: C_10  and  C_11
REMARK    5  A    between atoms: C_11  and  C_12
REMARK    6  A    between atoms: N_14  and  C_15
REMARK    7  A    between atoms: N_23  and  C_24
REMARK    8  A    between atoms: C_24  and  C_25
REMARK                            x       y       z     vdW  Elec       q    Type
REMARK                         _______ _______ _______ _____ _____    ______ ____
ROOT
ATOM      1  N   UNL     1       2.738   6.213  18.657  0.00  0.00    +0.000 NA
ATOM      2  C   UNL     1       4.014   6.019  18.550  0.00  0.00    +0.000 C 
ATOM      3  S   UNL     1       5.303   7.184  18.674  0.00  0.00    +0.000 S 
ATOM      4  C   UNL     1       6.600   5.990  18.326  0.00  0.00    +0.000 C 
ATOM      5  C   UNL     1       5.890   4.677  18.104  0.00  0.00    +0.000 C 
ATOM      6  O   UNL     1       6.491   3.685  17.695  0.00  0.00    +0.000 OA
ATOM      7  N   UNL     1       4.531   4.771  18.299  0.00  0.00    +0.000 N 
ENDROOT
BRANCH   1  11
ATOM      8  C   UNL     1       0.874   9.962  19.304  0.00  0.00    +0.000 A 
ATOM      9  C   UNL     1       1.098   9.070  20.350  0.00  0.00    +0.000 A 
ATOM     10  C   UNL     1       1.717   7.836  20.105  0.00  0.00    +0.000 A 
ATOM     11  C   UNL     1       2.124   7.470  18.817  0.00  0.00    +0.000 A 
ATOM     12  C   UNL     1       1.941   8.406  17.796  0.00  0.00    +0.000 A 
ATOM     13  C   UNL     1       1.275   9.614  18.021  0.00  0.00    +0.000 A 
BRANCH   8  15
ATOM     14  C   UNL     1       1.094  12.110  20.256  0.00  0.00    +0.000 C 
ATOM     15  O   UNL     1       0.256  11.140  19.633  0.00  0.00    +0.000 OA
ENDBRANCH   8  15
ENDBRANCH   1  11
BRANCH   4  16
ATOM     16  C   UNL     1       7.449   6.388  17.122  0.00  0.00    +0.000 C 
BRANCH  16  17
ATOM     17  C   UNL     1       6.768   6.092  15.797  0.00  0.00    +0.000 C 
ATOM     18  O   UNL     1       5.745   6.699  15.492  0.00  0.00    +0.000 OA
ATOM     19  N   UNL     1       7.365   5.070  15.082  0.00  0.00    +0.000 N 
ATOM     20  H   UNL     1       8.168   4.603  15.498  0.00  0.00    +0.000 HD
BRANCH  19  21
ATOM     21  C   UNL     1       6.873   4.495  13.892  0.00  0.00    +0.000 A 
ATOM     22  C   UNL     1       7.555   4.536  12.677  0.00  0.00    +0.000 A 
ATOM     23  C   UNL     1       6.996   3.975  11.525  0.00  0.00    +0.000 A 
ATOM     24  C   UNL     1       5.744   3.369  11.584  0.00  0.00    +0.000 A 
ATOM     25  C   UNL     1       5.058   3.310  12.794  0.00  0.00    +0.000 A 
ATOM     26  C   UNL     1       5.632   3.858  13.951  0.00  0.00    +0.000 A 
ENDBRANCH  19  21
ENDBRANCH  16  17
ENDBRANCH   4  16
BRANCH   7  27
ATOM     27  C   UNL     1       3.685   3.605  18.066  0.00  0.00    +0.000 C 
BRANCH  27  28
ATOM     28  C   UNL     1       2.842   3.250  19.273  0.00  0.00    +0.000 A 
ATOM     29  C   UNL     1       1.451   3.278  19.205  0.00  0.00    +0.000 A 
ATOM     30  C   UNL     1       0.712   2.981  20.345  0.00  0.00    +0.000 A 
ATOM     31  C   UNL     1       1.376   2.647  21.522  0.00  0.00    +0.000 A 
ATOM     32  C   UNL     1       2.758   2.618  21.503  0.00  0.00    +0.000 A 
ATOM     33  N   UNL     1       3.500   2.911  20.413  0.00  0.00    +0.000 NA
ENDBRANCH  27  28
ENDBRANCH   7  27
TORSDOF 7
ENDMDL
MODEL 9
REMARK VINA RESULT:      -7.2      2.468      8.025
REMARK  Name = 
REMARK  8 active torsions:
REMARK  status: ('A' for Active; 'I' for Inactive)
REMARK    1  A    between atoms: C_1  and  O_2
REMARK    2  A    between atoms: O_2  and  C_3
REMARK    3  A    between atoms: C_6  and  N_7
REMARK    4  A    between atoms: C_10  and  C_11
REMARK    5  A    between atoms: C_11  and  C_12
REMARK    6  A    between atoms: N_14  and  C_15
REMARK    7  A    between atoms: N_23  and  C_24
REMARK    8  A    between atoms: C_24  and  C_25
REMARK                            x       y       z     vdW  Elec       q    Type
REMARK                         _______ _______ _______ _____ _____    ______ ____
ROOT
ATOM      1  N   UNL     1       2.627   6.233  18.479  0.00  0.00    +0.000 NA
ATOM      2  C   UNL     1       3.860   5.946  18.209  0.00  0.00    +0.000 C 
ATOM      3  S   UNL     1       5.240   7.010  18.172  0.00  0.00    +0.000 S 
ATOM      4  C   UNL     1       6.388   5.727  17.657  0.00  0.00    +0.000 C 
ATOM      5  C   UNL     1       5.559   4.473  17.524  0.00  0.00    +0.000 C 
ATOM      6  O   UNL     1       6.026   3.445  17.038  0.00  0.00    +0.000 OA
ATOM      7  N   UNL     1       4.246   4.666  17.891  0.00  0.00    +0.000 N 
ENDROOT
BRANCH   1  11
ATOM      8  C   UNL     1       1.130  10.096  19.368  0.00  0.00    +0.000 A 
ATOM      9  C   UNL     1       1.280   9.127  20.357  0.00  0.00    +0.000 A 
ATOM     10  C   UNL     1       1.779   7.857  20.033  0.00  0.00    +0.000 A 
ATOM     11  C   UNL     1       2.135   7.531  18.720  0.00  0.00    +0.000 A 
ATOM     12  C   UNL     1       2.029   8.537  17.757  0.00  0.00    +0.000 A 
ATOM     13  C   UNL     1       1.481   9.787  18.061  0.00  0.00    +0.000 A 
BRANCH   8  15
ATOM     14  C   UNL     1       0.206  12.168  18.721  0.00  0.00    +0.000 C 
ATOM     15  O   UNL     1       0.627  11.305  19.773  0.00  0.00    +0.000 OA
ENDBRANCH   8  15
ENDBRANCH   1  11
BRANCH   4  16
ATOM     16  C   UNL     1       7.105   6.076  16.356  0.00  0.00    +0.000 C 
BRANCH  16  17
ATOM     17  C   UNL     1       6.316   5.674  15.123  0.00  0.00    +0.000 C 
ATOM     18  O   UNL     1       5.258   6.241  14.866  0.00  0.00    +0.000 OA
ATOM     19  N   UNL     1       6.869   4.609  14.433  0.00  0.00    +0.000 N 
ATOM     20  H   UNL     1       7.714   4.186  14.810  0.00  0.00    +0.000 HD
BRANCH  19  21
ATOM     21  C   UNL     1       6.286   3.940  13.337  0.00  0.00    +0.000 A 
ATOM     22  C   UNL     1       4.917   3.934  13.077  0.00  0.00    +0.000 A 
ATOM     23  C   UNL     1       4.400   3.222  11.992  0.00  0.00    +0.000 A 
ATOM     24  C   UNL     1       5.255   2.507  11.157  0.00  0.00    +0.000 A 
ATOM     25  C   UNL     1       6.627   2.515  11.399  0.00  0.00    +0.000 A 
ATOM     26  C   UNL     1       7.142   3.247  12.478  0.00  0.00    +0.000 A 
ENDBRANCH  19  21
ENDBRANCH  16  17
ENDBRANCH   4  16
BRANCH   7  27
ATOM     27  C   UNL     1       3.291   3.570  17.764  0.00  0.00    +0.000 C 
BRANCH  27  28
ATOM     28  C   UNL     1       2.622   3.229  19.079  0.00  0.00    +0.000 A 
ATOM     29  C   UNL     1       1.235   3.261  19.202  0.00  0.00    +0.000 A 
ATOM     30  C   UNL     1       0.659   2.976  20.436  0.00  0.00    +0.000 A 
ATOM     31  C   UNL     1       1.478   2.651  21.514  0.00  0.00    +0.000 A 
ATOM     32  C   UNL     1       2.845   2.617  21.305  0.00  0.00    +0.000 A 
ATOM     33  N   UNL     1       3.430   2.899  20.120  0.00  0.00    +0.000 NA
ENDBRANCH  27  28
ENDBRANCH   7  27
TORSDOF 7
ENDMDL
