MODEL 1
REMARK VINA RESULT:      -7.5      0.000      0.000
REMARK  Name = 
REMARK  6 active torsions:
REMARK  status: ('A' for Active; 'I' for Inactive)
REMARK    1  A    between atoms: C_1  and  C_2
REMARK    2  A    between atoms: C_4  and  O_5
REMARK    3  A    between atoms: C_6  and  C_7
REMARK    4  A    between atoms: C_7  and  C_8
REMARK    5  A    between atoms: C_14  and  O_15
REMARK    6  A    between atoms: C_16  and  C_17
REMARK                            x       y       z     vdW  Elec       q    Type
REMARK                         _______ _______ _______ _____ _____    ______ ____
ROOT
ATOM      1  C   UNL     1       8.246   7.933  18.205  0.00  0.00    +0.000 C 
ATOM      2  C   UNL     1       7.276   6.863  17.787  0.00  0.00    +0.000 A 
ATOM      3  N   UNL     1       6.601   7.102  16.635  0.00  0.00    +0.000 NA
ATOM      4  C   UNL     1       5.706   6.181  16.249  0.00  0.00    +0.000 A 
ATOM      5  C   UNL     1       5.424   4.990  16.899  0.00  0.00    +0.000 A 
ATOM      6  C   UNL     1       6.162   4.755  18.064  0.00  0.00    +0.000 A 
ATOM      7  C   UNL     1       7.078   5.706  18.541  0.00  0.00    +0.000 A 
ENDROOT
BRANCH   4   8
ATOM      8  O   UNL     1       5.043   6.554  15.128  0.00  0.00    +0.000 OA
ATOM      9  H   UNL     1       4.392   5.833  15.068  0.00  0.00    +0.000 HD
ENDBRANCH   4   8
BRANCH   6  10
ATOM     10  O   UNL     1       5.991   3.609  18.796  0.00  0.00    +0.000 OA
ATOM     11  H   UNL     1       6.844   3.339  19.181  0.00  0.00    +0.000 HD
ENDBRANCH   6  10
BRANCH   7  12
ATOM     12  C   UNL     1       7.786   5.507  19.773  0.00  0.00    +0.000 C 
ATOM     13  N   UNL     1       8.350   5.285  20.761  0.00  0.00    +0.000 NA
ENDBRANCH   7  12
BRANCH   5  14
ATOM     14  C   UNL     1       4.316   4.095  16.409  0.00  0.00    +0.000 C 
BRANCH  14  15
ATOM     15  C   UNL     1       3.121   3.908  17.318  0.00  0.00    +0.000 A 
ATOM     16  C   UNL     1       2.573   2.632  17.515  0.00  0.00    +0.000 A 
ATOM     17  C   UNL     1       1.607   2.415  18.502  0.00  0.00    +0.000 A 
ATOM     18  C   UNL     1       1.170   3.470  19.300  0.00  0.00    +0.000 A 
ATOM     19  C   UNL     1       1.673   4.749  19.091  0.00  0.00    +0.000 A 
ATOM     20  C   UNL     1       2.637   4.967  18.103  0.00  0.00    +0.000 A 
ENDBRANCH  14  15
ENDBRANCH   5  14
TORSDOF 5
ENDMDL
MODEL 2
REMARK VINA RESULT:      -7.3      0.289      1.154
REMARK  Name = 
REMARK  6 active torsions:
REMARK  status: ('A' for Active; 'I' for Inactive)
REMARK    1  A    between atoms: C_1  and  C_2
REMARK    2  A    between atoms: C_4  and  O_5
REMARK    3  A    between atoms: C_6  and  C_7
REMARK    4  A    between atoms: C_7  and  C_8
REMARK    5  A    between atoms: C_14  and  O_15
REMARK    6  A    between atoms: C_16  and  C_17
REMARK                            x       y       z     vdW  Elec       q    Type
REMARK                         _______ _______ _______ _____ _____    ______ ____
ROOT
ATOM      1  C   UNL     1       8.282   7.934  18.234  0.00  0.00    +0.000 C 
ATOM      2  C   UNL     1       7.312   6.869  17.805  0.00  0.00    +0.000 A 
ATOM      3  N   UNL     1       6.623   7.128  16.666  0.00  0.00    +0.000 NA
ATOM      4  C   UNL     1       5.727   6.211  16.272  0.00  0.00    +0.000 A 
ATOM      5  C   UNL     1       5.459   5.005  16.900  0.00  0.00    +0.000 A 
ATOM      6  C   UNL     1       6.212   4.750  18.051  0.00  0.00    +0.000 A 
ATOM      7  C   UNL     1       7.129   5.695  18.537  0.00  0.00    +0.000 A 
ENDROOT
BRANCH   4   8
ATOM      8  O   UNL     1       5.050   6.604  15.166  0.00  0.00    +0.000 OA
ATOM      9  H   UNL     1       4.399   7.204  15.570  0.00  0.00    +0.000 HD
ENDBRANCH   4   8
BRANCH   6  10
ATOM     10  O   UNL     1       6.055   3.588  18.761  0.00  0.00    +0.000 OA
ATOM     11  H   UNL     1       6.918   3.151  18.864  0.00  0.00    +0.000 HD
ENDBRANCH   6  10
BRANCH   7  12
ATOM     12  C   UNL     1       7.852   5.474  19.755  0.00  0.00    +0.000 C 
ATOM     13  N   UNL     1       8.398   5.336  20.769  0.00  0.00    +0.000 NA
ENDBRANCH   7  12
BRANCH   5  14
ATOM     14  C   UNL     1       4.349   4.115  16.405  0.00  0.00    +0.000 C 
BRANCH  14  15
ATOM     15  C   UNL     1       3.282   3.716  17.400  0.00  0.00    +0.000 A 
ATOM     16  C   UNL     1       2.468   4.692  17.995  0.00  0.00    +0.000 A 
ATOM     17  C   UNL     1       1.353   4.324  18.754  0.00  0.00    +0.000 A 
ATOM     18  C   UNL     1       1.039   2.979  18.933  0.00  0.00    +0.000 A 
ATOM     19  C   UNL     1       1.859   1.999  18.384  0.00  0.00    +0.000 A 
ATOM     20  C   UNL     1       2.974   2.366  17.628  0.00  0.00    +0.000 A 
ENDBRANCH  14  15
ENDBRANCH   5  14
TORSDOF 5
ENDMDL
MODEL 3
REMARK VINA RESULT:      -7.0      1.790      2.131
REMARK  Name = 
REMARK  6 active torsions:
REMARK  status: ('A' for Active; 'I' for Inactive)
REMARK    1  A    between atoms: C_1  and  C_2
REMARK    2  A    between atoms: C_4  and  O_5
REMARK    3  A    between atoms: C_6  and  C_7
REMARK    4  A    between atoms: C_7  and  C_8
REMARK    5  A    between atoms: C_14  and  O_15
REMARK    6  A    between atoms: C_16  and  C_17
REMARK                            x       y       z     vdW  Elec       q    Type
REMARK                         _______ _______ _______ _____ _____    ______ ____
ROOT
ATOM      1  C   UNL     1       7.483   7.627  17.467  0.00  0.00    +0.000 C 
ATOM      2  C   UNL     1       6.207   6.832  17.486  0.00  0.00    +0.000 A 
ATOM      3  N   UNL     1       5.063   7.558  17.432  0.00  0.00    +0.000 NA
ATOM      4  C   UNL     1       3.906   6.881  17.477  0.00  0.00    +0.000 A 
ATOM      5  C   UNL     1       3.765   5.504  17.542  0.00  0.00    +0.000 A 
ATOM      6  C   UNL     1       4.963   4.781  17.558  0.00  0.00    +0.000 A 
ATOM      7  C   UNL     1       6.203   5.439  17.562  0.00  0.00    +0.000 A 
ENDROOT
BRANCH   4   8
ATOM      8  O   UNL     1       2.833   7.708  17.488  0.00  0.00    +0.000 OA
ATOM      9  H   UNL     1       2.935   8.106  18.370  0.00  0.00    +0.000 HD
ENDBRANCH   4   8
BRANCH   6  10
ATOM     10  O   UNL     1       4.967   3.411  17.608  0.00  0.00    +0.000 OA
ATOM     11  H   UNL     1       4.442   3.058  16.868  0.00  0.00    +0.000 HD
ENDBRANCH   6  10
BRANCH   7  12
ATOM     12  C   UNL     1       7.434   4.709  17.653  0.00  0.00    +0.000 C 
ATOM     13  N   UNL     1       8.397   4.066  17.719  0.00  0.00    +0.000 NA
ENDBRANCH   7  12
BRANCH   5  14
ATOM     14  C   UNL     1       2.403   4.881  17.693  0.00  0.00    +0.000 C 
BRANCH  14  15
ATOM     15  C   UNL     1       2.060   4.278  19.038  0.00  0.00    +0.000 A 
ATOM     16  C   UNL     1       1.614   2.951  19.126  0.00  0.00    +0.000 A 
ATOM     17  C   UNL     1       1.490   2.322  20.368  0.00  0.00    +0.000 A 
ATOM     18  C   UNL     1       1.804   3.011  21.538  0.00  0.00    +0.000 A 
ATOM     19  C   UNL     1       2.208   4.339  21.470  0.00  0.00    +0.000 A 
ATOM     20  C   UNL     1       2.330   4.969  20.230  0.00  0.00    +0.000 A 
ENDBRANCH  14  15
ENDBRANCH   5  14
TORSDOF 5
ENDMDL
MODEL 4
REMARK VINA RESULT:      -6.9      1.743      2.314
REMARK  Name = 
REMARK  6 active torsions:
REMARK  status: ('A' for Active; 'I' for Inactive)
REMARK    1  A    between atoms: C_1  and  C_2
REMARK    2  A    between atoms: C_4  and  O_5
REMARK    3  A    between atoms: C_6  and  C_7
REMARK    4  A    between atoms: C_7  and  C_8
REMARK    5  A    between atoms: C_14  and  O_15
REMARK    6  A    between atoms: C_16  and  C_17
REMARK                            x       y       z     vdW  Elec       q    Type
REMARK                         _______ _______ _______ _____ _____    ______ ____
ROOT
ATOM      1  C   UNL     1       7.582   7.591  17.450  0.00  0.00    +0.000 C 
ATOM      2  C   UNL     1       6.293   6.818  17.479  0.00  0.00    +0.000 A 
ATOM      3  N   UNL     1       5.162   7.564  17.428  0.00  0.00    +0.000 NA
ATOM      4  C   UNL     1       3.994   6.907  17.482  0.00  0.00    +0.000 A 
ATOM      5  C   UNL     1       3.829   5.533  17.553  0.00  0.00    +0.000 A 
ATOM      6  C   UNL     1       5.014   4.789  17.568  0.00  0.00    +0.000 A 
ATOM      7  C   UNL     1       6.265   5.425  17.562  0.00  0.00    +0.000 A 
ENDROOT
BRANCH   4   8
ATOM      8  O   UNL     1       2.935   7.752  17.493  0.00  0.00    +0.000 OA
ATOM      9  H   UNL     1       3.029   8.129  18.386  0.00  0.00    +0.000 HD
ENDBRANCH   4   8
BRANCH   6  10
ATOM     10  O   UNL     1       4.994   3.420  17.624  0.00  0.00    +0.000 OA
ATOM     11  H   UNL     1       5.525   3.119  18.382  0.00  0.00    +0.000 HD
ENDBRANCH   6  10
BRANCH   7  12
ATOM     12  C   UNL     1       7.484   4.675  17.650  0.00  0.00    +0.000 C 
ATOM     13  N   UNL     1       8.481   4.096  17.775  0.00  0.00    +0.000 NA
ENDBRANCH   7  12
BRANCH   5  14
ATOM     14  C   UNL     1       2.457   4.934  17.715  0.00  0.00    +0.000 C 
BRANCH  14  15
ATOM     15  C   UNL     1       2.194   4.127  18.967  0.00  0.00    +0.000 A 
ATOM     16  C   UNL     1       2.518   4.649  20.228  0.00  0.00    +0.000 A 
ATOM     17  C   UNL     1       2.097   4.006  21.395  0.00  0.00    +0.000 A 
ATOM     18  C   UNL     1       1.352   2.831  21.320  0.00  0.00    +0.000 A 
ATOM     19  C   UNL     1       1.057   2.279  20.078  0.00  0.00    +0.000 A 
ATOM     20  C   UNL     1       1.480   2.919  18.911  0.00  0.00    +0.000 A 
ENDBRANCH  14  15
ENDBRANCH   5  14
TORSDOF 5
ENDMDL
MODEL 5
REMARK VINA RESULT:      -6.7      2.990      5.312
REMARK  Name = 
REMARK  6 active torsions:
REMARK  status: ('A' for Active; 'I' for Inactive)
REMARK    1  A    between atoms: C_1  and  C_2
REMARK    2  A    between atoms: C_4  and  O_5
REMARK    3  A    between atoms: C_6  and  C_7
REMARK    4  A    between atoms: C_7  and  C_8
REMARK    5  A    between atoms: C_14  and  O_15
REMARK    6  A    between atoms: C_16  and  C_17
REMARK                            x       y       z     vdW  Elec       q    Type
REMARK                         _______ _______ _______ _____ _____    ______ ____
ROOT
ATOM      1  C   UNL     1       2.443   7.219  18.649  0.00  0.00    +0.000 C 
ATOM      2  C   UNL     1       3.567   6.423  18.046  0.00  0.00    +0.000 A 
ATOM      3  N   UNL     1       4.635   7.144  17.623  0.00  0.00    +0.000 NA
ATOM      4  C   UNL     1       5.642   6.467  17.053  0.00  0.00    +0.000 A 
ATOM      5  C   UNL     1       5.714   5.094  16.882  0.00  0.00    +0.000 A 
ATOM      6  C   UNL     1       4.613   4.374  17.362  0.00  0.00    +0.000 A 
ATOM      7  C   UNL     1       3.509   5.034  17.923  0.00  0.00    +0.000 A 
ENDROOT
BRANCH   4   8
ATOM      8  O   UNL     1       6.621   7.292  16.608  0.00  0.00    +0.000 OA
ATOM      9  H   UNL     1       6.289   8.144  16.941  0.00  0.00    +0.000 HD
ENDBRANCH   4   8
BRANCH   6  10
ATOM     10  O   UNL     1       4.561   3.008  17.266  0.00  0.00    +0.000 OA
ATOM     11  H   UNL     1       4.543   2.749  16.328  0.00  0.00    +0.000 HD
ENDBRANCH   6  10
BRANCH   7  12
ATOM     12  C   UNL     1       2.347   4.311  18.351  0.00  0.00    +0.000 C 
ATOM     13  N   UNL     1       1.372   3.776  18.681  0.00  0.00    +0.000 NA
ENDBRANCH   7  12
BRANCH   5  14
ATOM     14  C   UNL     1       6.861   4.476  16.129  0.00  0.00    +0.000 C 
BRANCH  14  15
ATOM     15  C   UNL     1       6.786   4.485  14.618  0.00  0.00    +0.000 A 
ATOM     16  C   UNL     1       7.676   5.271  13.869  0.00  0.00    +0.000 A 
ATOM     17  C   UNL     1       7.752   5.134  12.480  0.00  0.00    +0.000 A 
ATOM     18  C   UNL     1       6.938   4.217  11.820  0.00  0.00    +0.000 A 
ATOM     19  C   UNL     1       6.023   3.460  12.542  0.00  0.00    +0.000 A 
ATOM     20  C   UNL     1       5.944   3.598  13.930  0.00  0.00    +0.000 A 
ENDBRANCH  14  15
ENDBRANCH   5  14
TORSDOF 5
ENDMDL
MODEL 6
REMARK VINA RESULT:      -6.6      2.643      5.688
REMARK  Name = 
REMARK  6 active torsions:
REMARK  status: ('A' for Active; 'I' for Inactive)
REMARK    1  A    between atoms: C_1  and  C_2
REMARK    2  A    between atoms: C_4  and  O_5
REMARK    3  A    between atoms: C_6  and  C_7
REMARK    4  A    between atoms: C_7  and  C_8
REMARK    5  A    between atoms: C_14  and  O_15
REMARK    6  A    between atoms: C_16  and  C_17
REMARK                            x       y       z     vdW  Elec       q    Type
REMARK                         _______ _______ _______ _____ _____    ______ ____
ROOT
ATOM      1  C   UNL     1       1.172   3.241  20.895  0.00  0.00    +0.000 C 
ATOM      2  C   UNL     1       2.121   3.736  19.839  0.00  0.00    +0.000 A 
ATOM      3  N   UNL     1       2.755   2.775  19.124  0.00  0.00    +0.000 NA
ATOM      4  C   UNL     1       3.632   3.183  18.194  0.00  0.00    +0.000 A 
ATOM      5  C   UNL     1       3.930   4.497  17.871  0.00  0.00    +0.000 A 
ATOM      6  C   UNL     1       3.233   5.466  18.601  0.00  0.00    +0.000 A 
ATOM      7  C   UNL     1       2.340   5.097  19.619  0.00  0.00    +0.000 A 
ENDROOT
BRANCH   4   8
ATOM      8  O   UNL     1       4.256   2.142  17.591  0.00  0.00    +0.000 OA
ATOM      9  H   UNL     1       3.956   2.274  16.675  0.00  0.00    +0.000 HD
ENDBRANCH   4   8
BRANCH   6  10
ATOM     10  O   UNL     1       3.424   6.804  18.372  0.00  0.00    +0.000 OA
ATOM     11  H   UNL     1       2.561   7.246  18.294  0.00  0.00    +0.000 HD
ENDBRANCH   6  10
BRANCH   7  12
ATOM     12  C   UNL     1       1.675   6.083  20.421  0.00  0.00    +0.000 C 
ATOM     13  N   UNL     1       1.193   6.908  21.078  0.00  0.00    +0.000 NA
ENDBRANCH   7  12
BRANCH   5  14
ATOM     14  C   UNL     1       5.016   4.812  16.876  0.00  0.00    +0.000 C 
BRANCH  14  15
ATOM     15  C   UNL     1       6.225   5.567  17.382  0.00  0.00    +0.000 A 
ATOM     16  C   UNL     1       6.565   6.812  16.832  0.00  0.00    +0.000 A 
ATOM     17  C   UNL     1       7.550   7.607  17.423  0.00  0.00    +0.000 A 
ATOM     18  C   UNL     1       8.213   7.169  18.567  0.00  0.00    +0.000 A 
ATOM     19  C   UNL     1       7.917   5.920  19.102  0.00  0.00    +0.000 A 
ATOM     20  C   UNL     1       6.935   5.123  18.510  0.00  0.00    +0.000 A 
ENDBRANCH  14  15
ENDBRANCH   5  14
TORSDOF 5
ENDMDL
MODEL 7
REMARK VINA RESULT:      -6.5      4.929      6.196
REMARK  Name = 
REMARK  6 active torsions:
REMARK  status: ('A' for Active; 'I' for Inactive)
REMARK    1  A    between atoms: C_1  and  C_2
REMARK    2  A    between atoms: C_4  and  O_5
REMARK    3  A    between atoms: C_6  and  C_7
REMARK    4  A    between atoms: C_7  and  C_8
REMARK    5  A    between atoms: C_14  and  O_15
REMARK    6  A    between atoms: C_16  and  C_17
REMARK                            x       y       z     vdW  Elec       q    Type
REMARK                         _______ _______ _______ _____ _____    ______ ____
ROOT
ATOM      1  C   UNL     1      -0.700  11.598  19.662  0.00  0.00    +0.000 C 
ATOM      2  C   UNL     1       0.231  10.419  19.705  0.00  0.00    +0.000 A 
ATOM      3  N   UNL     1       0.733  10.023  18.509  0.00  0.00    +0.000 NA
ATOM      4  C   UNL     1       1.543   8.955  18.509  0.00  0.00    +0.000 A 
ATOM      5  C   UNL     1       1.946   8.232  19.621  0.00  0.00    +0.000 A 
ATOM      6  C   UNL     1       1.441   8.687  20.844  0.00  0.00    +0.000 A 
ATOM      7  C   UNL     1       0.550   9.770  20.899  0.00  0.00    +0.000 A 
ENDROOT
BRANCH   4   8
ATOM      8  O   UNL     1       1.928   8.608  17.257  0.00  0.00    +0.000 OA
ATOM      9  H   UNL     1       1.200   8.999  16.742  0.00  0.00    +0.000 HD
ENDBRANCH   4   8
BRANCH   6  10
ATOM     10  O   UNL     1       1.770   8.069  22.023  0.00  0.00    +0.000 OA
ATOM     11  H   UNL     1       2.466   8.580  22.473  0.00  0.00    +0.000 HD
ENDBRANCH   6  10
BRANCH   7  12
ATOM     12  C   UNL     1      -0.029  10.197  22.140  0.00  0.00    +0.000 C 
ATOM     13  N   UNL     1      -0.454  10.509  23.172  0.00  0.00    +0.000 NA
ENDBRANCH   7  12
BRANCH   5  14
ATOM     14  C   UNL     1       2.777   6.987  19.463  0.00  0.00    +0.000 C 
BRANCH  14  15
ATOM     15  C   UNL     1       2.041   5.671  19.341  0.00  0.00    +0.000 A 
ATOM     16  C   UNL     1       1.977   5.007  18.107  0.00  0.00    +0.000 A 
ATOM     17  C   UNL     1       1.480   3.703  18.023  0.00  0.00    +0.000 A 
ATOM     18  C   UNL     1       1.037   3.046  19.169  0.00  0.00    +0.000 A 
ATOM     19  C   UNL     1       1.057   3.704  20.394  0.00  0.00    +0.000 A 
ATOM     20  C   UNL     1       1.550   5.008  20.478  0.00  0.00    +0.000 A 
ENDBRANCH  14  15
ENDBRANCH   5  14
TORSDOF 5
ENDMDL
MODEL 8
REMARK VINA RESULT:      -6.5      1.217      2.680
REMARK  Name = 
REMARK  6 active torsions:
REMARK  status: ('A' for Active; 'I' for Inactive)
REMARK    1  A    between atoms: C_1  and  C_2
REMARK    2  A    between atoms: C_4  and  O_5
REMARK    3  A    between atoms: C_6  and  C_7
REMARK    4  A    between atoms: C_7  and  C_8
REMARK    5  A    between atoms: C_14  and  O_15
REMARK    6  A    between atoms: C_16  and  C_17
REMARK                            x       y       z     vdW  Elec       q    Type
REMARK                         _______ _______ _______ _____ _____    ______ ____
ROOT
ATOM      1  C   UNL     1       8.488   5.941  19.549  0.00  0.00    +0.000 C 
ATOM      2  C   UNL     1       7.163   5.608  18.920  0.00  0.00    +0.000 A 
ATOM      3  N   UNL     1       6.594   4.448  19.332  0.00  0.00    +0.000 NA
ATOM      4  C   UNL     1       5.426   4.107  18.768  0.00  0.00    +0.000 A 
ATOM      5  C   UNL     1       4.725   4.842  17.826  0.00  0.00    +0.000 A 
ATOM      6  C   UNL     1       5.319   6.052  17.449  0.00  0.00    +0.000 A 
ATOM      7  C   UNL     1       6.564   6.437  17.970  0.00  0.00    +0.000 A 
ENDROOT
BRANCH   4   8
ATOM      8  O   UNL     1       4.986   2.900  19.201  0.00  0.00    +0.000 OA
ATOM      9  H   UNL     1       4.963   3.063  20.160  0.00  0.00    +0.000 HD
ENDBRANCH   4   8
BRANCH   6  10
ATOM     10  O   UNL     1       4.725   6.882  16.535  0.00  0.00    +0.000 OA
ATOM     11  H   UNL     1       3.939   7.295  16.934  0.00  0.00    +0.000 HD
ENDBRANCH   6  10
BRANCH   7  12
ATOM     12  C   UNL     1       7.215   7.638  17.535  0.00  0.00    +0.000 C 
ATOM     13  N   UNL     1       7.796   8.586  17.204  0.00  0.00    +0.000 NA
ENDBRANCH   7  12
BRANCH   5  14
ATOM     14  C   UNL     1       3.473   4.287  17.199  0.00  0.00    +0.000 C 
BRANCH  14  15
ATOM     15  C   UNL     1       2.333   3.928  18.125  0.00  0.00    +0.000 A 
ATOM     16  C   UNL     1       1.721   2.668  18.040  0.00  0.00    +0.000 A 
ATOM     17  C   UNL     1       0.811   2.251  19.015  0.00  0.00    +0.000 A 
ATOM     18  C   UNL     1       0.495   3.086  20.085  0.00  0.00    +0.000 A 
ATOM     19  C   UNL     1       1.062   4.353  20.162  0.00  0.00    +0.000 A 
ATOM     20  C   UNL     1       1.969   4.773  19.186  0.00  0.00    +0.000 A 
ENDBRANCH  14  15
ENDBRANCH   5  14
TORSDOF 5
ENDMDL
MODEL 9
REMARK VINA RESULT:      -6.3      2.714      5.325
REMARK  Name = 
REMARK  6 active torsions:
REMARK  status: ('A' for Active; 'I' for Inactive)
REMARK    1  A    between atoms: C_1  and  C_2
REMARK    2  A    between atoms: C_4  and  O_5
REMARK    3  A    between atoms: C_6  and  C_7
REMARK    4  A    between atoms: C_7  and  C_8
REMARK    5  A    between atoms: C_14  and  O_15
REMARK    6  A    between atoms: C_16  and  C_17
REMARK                            x       y       z     vdW  Elec       q    Type
REMARK                         _______ _______ _______ _____ _____    ______ ____
ROOT
ATOM      1  C   UNL     1       1.492   5.173  20.539  0.00  0.00    +0.000 C 
ATOM      2  C   UNL     1       2.763   5.101  19.739  0.00  0.00    +0.000 A 
ATOM      3  N   UNL     1       3.459   3.942  19.847  0.00  0.00    +0.000 NA
ATOM      4  C   UNL     1       4.613   3.856  19.170  0.00  0.00    +0.000 A 
ATOM      5  C   UNL     1       5.151   4.828  18.342  0.00  0.00    +0.000 A 
ATOM      6  C   UNL     1       4.392   5.998  18.222  0.00  0.00    +0.000 A 
ATOM      7  C   UNL     1       3.201   6.162  18.945  0.00  0.00    +0.000 A 
ENDROOT
BRANCH   4   8
ATOM      8  O   UNL     1       5.256   2.687  19.405  0.00  0.00    +0.000 OA
ATOM      9  H   UNL     1       6.120   3.025  19.697  0.00  0.00    +0.000 HD
ENDBRANCH   4   8
BRANCH   6  10
ATOM     10  O   UNL     1       4.804   7.034  17.424  0.00  0.00    +0.000 OA
ATOM     11  H   UNL     1       5.554   6.743  16.877  0.00  0.00    +0.000 HD
ENDBRANCH   6  10
BRANCH   7  12
ATOM     12  C   UNL     1       2.454   7.385  18.885  0.00  0.00    +0.000 C 
ATOM     13  N   UNL     1       1.900   8.403  18.862  0.00  0.00    +0.000 NA
ENDBRANCH   7  12
BRANCH   5  14
ATOM     14  C   UNL     1       6.512   4.640  17.724  0.00  0.00    +0.000 C 
BRANCH  14  15
ATOM     15  C   UNL     1       6.570   4.407  16.231  0.00  0.00    +0.000 A 
ATOM     16  C   UNL     1       5.616   3.593  15.603  0.00  0.00    +0.000 A 
ATOM     17  C   UNL     1       5.536   3.533  14.208  0.00  0.00    +0.000 A 
ATOM     18  C   UNL     1       6.411   4.280  13.423  0.00  0.00    +0.000 A 
ATOM     19  C   UNL     1       7.389   5.061  14.030  0.00  0.00    +0.000 A 
ATOM     20  C   UNL     1       7.471   5.118  15.423  0.00  0.00    +0.000 A 
ENDBRANCH  14  15
ENDBRANCH   5  14
TORSDOF 5
ENDMDL
