MODEL 1
REMARK VINA RESULT:      -7.2      0.000      0.000
REMARK  Name = 
REMARK  11 active torsions:
REMARK  status: ('A' for Active; 'I' for Inactive)
REMARK    1  A    between atoms: C_1  and  C_2
REMARK    2  A    between atoms: C_2  and  C_3
REMARK    3  A    between atoms: C_3  and  N_4
REMARK    4  A    between atoms: N_4  and  S_5
REMARK    5  A    between atoms: S_5  and  C_8
REMARK    6  A    between atoms: C_11  and  C_12
REMARK    7  A    between atoms: C_12  and  C_13
REMARK    8  A    between atoms: C_13  and  N_14
REMARK    9  A    between atoms: C_15  and  C_17
REMARK   10  A    between atoms: C_23  and  O_24
REMARK   11  A    between atoms: O_24  and  C_25
REMARK                            x       y       z     vdW  Elec       q    Type
REMARK                         _______ _______ _______ _____ _____    ______ ____
ROOT
ATOM      1  C   UNL     1       0.830   7.745  20.928  0.00  0.00    +0.000 C 
ENDROOT
BRANCH   1   5
ATOM      2  C   UNL     1       3.729   5.219  18.956  0.00  0.00    +0.000 A 
ATOM      3  C   UNL     1       3.201   4.824  20.182  0.00  0.00    +0.000 A 
ATOM      4  C   UNL     1       2.278   5.647  20.824  0.00  0.00    +0.000 A 
ATOM      5  C   UNL     1       1.888   6.878  20.270  0.00  0.00    +0.000 A 
ATOM      6  C   UNL     1       2.448   7.268  19.043  0.00  0.00    +0.000 A 
ATOM      7  C   UNL     1       3.375   6.449  18.392  0.00  0.00    +0.000 A 
BRANCH   2   8
ATOM      8  S   UNL     1       4.861   4.150  18.103  0.00  0.00    +0.000 S 
ATOM      9  O   UNL     1       6.152   4.238  18.743  0.00  0.00    +0.000 OA
ATOM     10  O   UNL     1       4.679   4.413  16.689  0.00  0.00    +0.000 OA
BRANCH   8  11
ATOM     11  N   UNL     1       4.202   2.615  18.421  0.00  0.00    +0.000 NA
ATOM     12  H   UNL     1       4.898   1.887  18.269  0.00  0.00    +0.000 HD
BRANCH  11  13
ATOM     13  C   UNL     1       2.908   2.331  17.771  0.00  0.00    +0.000 C 
BRANCH  13  15
ATOM     14  C   UNL     1       0.652   2.606  18.816  0.00  0.00    +0.000 C 
ATOM     15  C   UNL     1       1.927   1.777  18.802  0.00  0.00    +0.000 C 
ENDBRANCH  13  15
ENDBRANCH  11  13
ENDBRANCH   8  11
ENDBRANCH   2   8
ENDBRANCH   1   5
BRANCH   1  16
ATOM     16  C   UNL     1       0.997   9.245  20.657  0.00  0.00    +0.000 C 
BRANCH  16  17
ATOM     17  N   UNL     1      -0.164   9.855  20.050  0.00  0.00    +0.000 N 
ATOM     18  C   UNL     1      -0.205  10.128  18.690  0.00  0.00    +0.000 C 
ATOM     19  O   UNL     1       0.764   9.982  17.957  0.00  0.00    +0.000 OA
ATOM     20  H   UNL     1      -0.991   9.958  20.622  0.00  0.00    +0.000 HD
BRANCH  18  21
ATOM     21  C   UNL     1      -1.509  10.632  18.180  0.00  0.00    +0.000 A 
ATOM     22  C   UNL     1      -1.909  10.129  16.924  0.00  0.00    +0.000 A 
ATOM     23  C   UNL     1      -3.115  10.514  16.350  0.00  0.00    +0.000 A 
ATOM     24 CL   UNL     1      -3.548   9.909  14.800  0.00  0.00    +0.000 Cl
ATOM     25  C   UNL     1      -3.966  11.373  17.027  0.00  0.00    +0.000 A 
ATOM     26  C   UNL     1      -3.598  11.845  18.290  0.00  0.00    +0.000 A 
ATOM     27  C   UNL     1      -2.368  11.497  18.879  0.00  0.00    +0.000 A 
BRANCH  27  28
ATOM     28  O   UNL     1      -2.241  12.025  20.134  0.00  0.00    +0.000 OA
ATOM     29  C   UNL     1      -3.317  12.780  20.673  0.00  0.00    +0.000 C 
ENDBRANCH  27  28
ENDBRANCH  18  21
ENDBRANCH  16  17
ENDBRANCH   1  16
TORSDOF 9
ENDMDL
MODEL 2
REMARK VINA RESULT:      -7.1      2.758      3.407
REMARK  Name = 
REMARK  11 active torsions:
REMARK  status: ('A' for Active; 'I' for Inactive)
REMARK    1  A    between atoms: C_1  and  C_2
REMARK    2  A    between atoms: C_2  and  C_3
REMARK    3  A    between atoms: C_3  and  N_4
REMARK    4  A    between atoms: N_4  and  S_5
REMARK    5  A    between atoms: S_5  and  C_8
REMARK    6  A    between atoms: C_11  and  C_12
REMARK    7  A    between atoms: C_12  and  C_13
REMARK    8  A    between atoms: C_13  and  N_14
REMARK    9  A    between atoms: C_15  and  C_17
REMARK   10  A    between atoms: C_23  and  O_24
REMARK   11  A    between atoms: O_24  and  C_25
REMARK                            x       y       z     vdW  Elec       q    Type
REMARK                         _______ _______ _______ _____ _____    ______ ____
ROOT
ATOM      1  C   UNL     1       2.107   6.536  18.878  0.00  0.00    +0.000 C 
ENDROOT
BRANCH   1   5
ATOM      2  C   UNL     1       5.549   5.256  16.602  0.00  0.00    +0.000 A 
ATOM      3  C   UNL     1       5.286   6.616  16.734  0.00  0.00    +0.000 A 
ATOM      4  C   UNL     1       4.166   7.027  17.456  0.00  0.00    +0.000 A 
ATOM      5  C   UNL     1       3.286   6.095  18.032  0.00  0.00    +0.000 A 
ATOM      6  C   UNL     1       3.558   4.727  17.868  0.00  0.00    +0.000 A 
ATOM      7  C   UNL     1       4.679   4.306  17.145  0.00  0.00    +0.000 A 
BRANCH   2   8
ATOM      8  S   UNL     1       7.004   4.725  15.734  0.00  0.00    +0.000 S 
ATOM      9  O   UNL     1       7.882   4.058  16.666  0.00  0.00    +0.000 OA
ATOM     10  O   UNL     1       7.437   5.856  14.938  0.00  0.00    +0.000 OA
BRANCH   8  11
ATOM     11  N   UNL     1       6.371   3.567  14.663  0.00  0.00    +0.000 NA
ATOM     12  H   UNL     1       7.096   2.913  14.370  0.00  0.00    +0.000 HD
BRANCH  11  13
ATOM     13  C   UNL     1       5.580   4.104  13.538  0.00  0.00    +0.000 C 
BRANCH  13  15
ATOM     14  C   UNL     1       4.476   3.117  11.523  0.00  0.00    +0.000 C 
ATOM     15  C   UNL     1       5.775   3.223  12.307  0.00  0.00    +0.000 C 
ENDBRANCH  13  15
ENDBRANCH  11  13
ENDBRANCH   8  11
ENDBRANCH   2   8
ENDBRANCH   1   5
BRANCH   1  16
ATOM     16  C   UNL     1       2.226   7.967  19.416  0.00  0.00    +0.000 C 
BRANCH  16  17
ATOM     17  N   UNL     1       0.998   8.724  19.322  0.00  0.00    +0.000 N 
ATOM     18  C   UNL     1       0.950   9.934  18.644  0.00  0.00    +0.000 C 
ATOM     19  O   UNL     1       1.948  10.481  18.197  0.00  0.00    +0.000 OA
ATOM     20  H   UNL     1       0.151   8.284  19.653  0.00  0.00    +0.000 HD
BRANCH  18  21
ATOM     21  C   UNL     1      -0.404  10.537  18.513  0.00  0.00    +0.000 A 
ATOM     22  C   UNL     1      -1.180  10.067  17.433  0.00  0.00    +0.000 A 
ATOM     23  C   UNL     1      -2.468  10.543  17.215  0.00  0.00    +0.000 A 
ATOM     24 CL   UNL     1      -3.366   9.975  15.864  0.00  0.00    +0.000 Cl
ATOM     25  C   UNL     1      -3.026  11.465  18.087  0.00  0.00    +0.000 A 
ATOM     26  C   UNL     1      -2.281  11.906  19.184  0.00  0.00    +0.000 A 
ATOM     27  C   UNL     1      -0.964  11.464  19.409  0.00  0.00    +0.000 A 
BRANCH  27  28
ATOM     28  O   UNL     1      -0.448  11.980  20.565  0.00  0.00    +0.000 OA
ATOM     29  C   UNL     1      -1.119  13.064  21.193  0.00  0.00    +0.000 C 
ENDBRANCH  27  28
ENDBRANCH  18  21
ENDBRANCH  16  17
ENDBRANCH   1  16
TORSDOF 9
ENDMDL
MODEL 3
REMARK VINA RESULT:      -7.1      2.783      4.120
REMARK  Name = 
REMARK  11 active torsions:
REMARK  status: ('A' for Active; 'I' for Inactive)
REMARK    1  A    between atoms: C_1  and  C_2
REMARK    2  A    between atoms: C_2  and  C_3
REMARK    3  A    between atoms: C_3  and  N_4
REMARK    4  A    between atoms: N_4  and  S_5
REMARK    5  A    between atoms: S_5  and  C_8
REMARK    6  A    between atoms: C_11  and  C_12
REMARK    7  A    between atoms: C_12  and  C_13
REMARK    8  A    between atoms: C_13  and  N_14
REMARK    9  A    between atoms: C_15  and  C_17
REMARK   10  A    between atoms: C_23  and  O_24
REMARK   11  A    between atoms: O_24  and  C_25
REMARK                            x       y       z     vdW  Elec       q    Type
REMARK                         _______ _______ _______ _____ _____    ______ ____
ROOT
ATOM      1  C   UNL     1       1.845   6.273  20.044  0.00  0.00    +0.000 C 
ENDROOT
BRANCH   1   5
ATOM      2  C   UNL     1       5.466   5.410  17.850  0.00  0.00    +0.000 A 
ATOM      3  C   UNL     1       4.555   6.325  17.330  0.00  0.00    +0.000 A 
ATOM      4  C   UNL     1       3.380   6.590  18.032  0.00  0.00    +0.000 A 
ATOM      5  C   UNL     1       3.087   5.935  19.240  0.00  0.00    +0.000 A 
ATOM      6  C   UNL     1       4.009   5.000  19.735  0.00  0.00    +0.000 A 
ATOM      7  C   UNL     1       5.190   4.726  19.039  0.00  0.00    +0.000 A 
BRANCH   2   8
ATOM      8  S   UNL     1       6.992   5.108  16.993  0.00  0.00    +0.000 S 
ATOM      9  O   UNL     1       6.692   4.548  15.697  0.00  0.00    +0.000 OA
ATOM     10  O   UNL     1       7.864   4.442  17.940  0.00  0.00    +0.000 OA
BRANCH   8  11
ATOM     11  N   UNL     1       7.590   6.685  16.777  0.00  0.00    +0.000 NA
ATOM     12  H   UNL     1       8.335   6.694  16.081  0.00  0.00    +0.000 HD
BRANCH  11  13
ATOM     13  C   UNL     1       7.938   7.409  18.014  0.00  0.00    +0.000 C 
BRANCH  13  15
ATOM     14  C   UNL     1       8.866   9.620  18.727  0.00  0.00    +0.000 C 
ATOM     15  C   UNL     1       7.946   8.911  17.744  0.00  0.00    +0.000 C 
ENDBRANCH  13  15
ENDBRANCH  11  13
ENDBRANCH   8  11
ENDBRANCH   2   8
ENDBRANCH   1   5
BRANCH   1  16
ATOM     16  C   UNL     1       1.950   7.586  20.830  0.00  0.00    +0.000 C 
BRANCH  16  17
ATOM     17  N   UNL     1       1.232   8.682  20.219  0.00  0.00    +0.000 N 
ATOM     18  C   UNL     1       0.061   9.175  20.778  0.00  0.00    +0.000 C 
ATOM     19  O   UNL     1      -0.489   8.646  21.734  0.00  0.00    +0.000 OA
ATOM     20  H   UNL     1       1.677   9.160  19.448  0.00  0.00    +0.000 HD
BRANCH  18  21
ATOM     21  C   UNL     1      -0.498  10.387  20.120  0.00  0.00    +0.000 A 
ATOM     22  C   UNL     1      -1.057  10.185  18.841  0.00  0.00    +0.000 A 
ATOM     23  C   UNL     1      -1.624  11.238  18.133  0.00  0.00    +0.000 A 
ATOM     24 CL   UNL     1      -2.260  10.958  16.560  0.00  0.00    +0.000 Cl
ATOM     25  C   UNL     1      -1.684  12.503  18.695  0.00  0.00    +0.000 A 
ATOM     26  C   UNL     1      -1.170  12.706  19.978  0.00  0.00    +0.000 A 
ATOM     27  C   UNL     1      -0.561  11.664  20.703  0.00  0.00    +0.000 A 
BRANCH  27  28
ATOM     28  O   UNL     1      -0.181  12.072  21.951  0.00  0.00    +0.000 OA
ATOM     29  C   UNL     1      -1.122  12.002  23.014  0.00  0.00    +0.000 C 
ENDBRANCH  27  28
ENDBRANCH  18  21
ENDBRANCH  16  17
ENDBRANCH   1  16
TORSDOF 9
ENDMDL
MODEL 4
REMARK VINA RESULT:      -7.1      2.507      3.479
REMARK  Name = 
REMARK  11 active torsions:
REMARK  status: ('A' for Active; 'I' for Inactive)
REMARK    1  A    between atoms: C_1  and  C_2
REMARK    2  A    between atoms: C_2  and  C_3
REMARK    3  A    between atoms: C_3  and  N_4
REMARK    4  A    between atoms: N_4  and  S_5
REMARK    5  A    between atoms: S_5  and  C_8
REMARK    6  A    between atoms: C_11  and  C_12
REMARK    7  A    between atoms: C_12  and  C_13
REMARK    8  A    between atoms: C_13  and  N_14
REMARK    9  A    between atoms: C_15  and  C_17
REMARK   10  A    between atoms: C_23  and  O_24
REMARK   11  A    between atoms: O_24  and  C_25
REMARK                            x       y       z     vdW  Elec       q    Type
REMARK                         _______ _______ _______ _____ _____    ______ ____
ROOT
ATOM      1  C   UNL     1       2.081   9.543  18.185  0.00  0.00    +0.000 C 
ENDROOT
BRANCH   1   5
ATOM      2  C   UNL     1       3.736   5.556  18.365  0.00  0.00    +0.000 A 
ATOM      3  C   UNL     1       4.110   6.404  17.327  0.00  0.00    +0.000 A 
ATOM      4  C   UNL     1       3.564   7.684  17.262  0.00  0.00    +0.000 A 
ATOM      5  C   UNL     1       2.625   8.127  18.209  0.00  0.00    +0.000 A 
ATOM      6  C   UNL     1       2.244   7.248  19.235  0.00  0.00    +0.000 A 
ATOM      7  C   UNL     1       2.786   5.961  19.309  0.00  0.00    +0.000 A 
BRANCH   2   8
ATOM      8  S   UNL     1       4.470   3.944  18.490  0.00  0.00    +0.000 S 
ATOM      9  O   UNL     1       5.605   4.020  19.379  0.00  0.00    +0.000 OA
ATOM     10  O   UNL     1       4.582   3.443  17.134  0.00  0.00    +0.000 OA
BRANCH   8  11
ATOM     11  N   UNL     1       3.239   3.056  19.256  0.00  0.00    +0.000 NA
ATOM     12  H   UNL     1       2.350   3.551  19.200  0.00  0.00    +0.000 HD
BRANCH  11  13
ATOM     13  C   UNL     1       3.553   2.574  20.615  0.00  0.00    +0.000 C 
BRANCH  13  15
ATOM     14  C   UNL     1       1.098   3.048  20.692  0.00  0.00    +0.000 C 
ATOM     15  C   UNL     1       2.343   2.776  21.523  0.00  0.00    +0.000 C 
ENDBRANCH  13  15
ENDBRANCH  11  13
ENDBRANCH   8  11
ENDBRANCH   2   8
ENDBRANCH   1   5
BRANCH   1  16
ATOM     16  C   UNL     1       0.551   9.622  18.106  0.00  0.00    +0.000 C 
BRANCH  16  17
ATOM     17  N   UNL     1      -0.065  10.109  19.320  0.00  0.00    +0.000 N 
ATOM     18  C   UNL     1      -0.444  11.437  19.450  0.00  0.00    +0.000 C 
ATOM     19  O   UNL     1      -0.177  12.286  18.611  0.00  0.00    +0.000 OA
ATOM     20  H   UNL     1      -0.327   9.426  20.018  0.00  0.00    +0.000 HD
BRANCH  18  21
ATOM     21  C   UNL     1      -1.184  11.769  20.698  0.00  0.00    +0.000 A 
ATOM     22  C   UNL     1      -2.421  12.422  20.519  0.00  0.00    +0.000 A 
ATOM     23  C   UNL     1      -3.212  12.770  21.607  0.00  0.00    +0.000 A 
ATOM     24 CL   UNL     1      -4.694  13.601  21.349  0.00  0.00    +0.000 Cl
ATOM     25  C   UNL     1      -2.811  12.440  22.892  0.00  0.00    +0.000 A 
ATOM     26  C   UNL     1      -1.607  11.756  23.079  0.00  0.00    +0.000 A 
ATOM     27  C   UNL     1      -0.772  11.421  21.996  0.00  0.00    +0.000 A 
BRANCH  27  28
ATOM     28  O   UNL     1       0.322  10.710  22.403  0.00  0.00    +0.000 OA
ATOM     29  C   UNL     1       0.128   9.445  23.020  0.00  0.00    +0.000 C 
ENDBRANCH  27  28
ENDBRANCH  18  21
ENDBRANCH  16  17
ENDBRANCH   1  16
TORSDOF 9
ENDMDL
MODEL 5
REMARK VINA RESULT:      -7.1      2.740      3.707
REMARK  Name = 
REMARK  11 active torsions:
REMARK  status: ('A' for Active; 'I' for Inactive)
REMARK    1  A    between atoms: C_1  and  C_2
REMARK    2  A    between atoms: C_2  and  C_3
REMARK    3  A    between atoms: C_3  and  N_4
REMARK    4  A    between atoms: N_4  and  S_5
REMARK    5  A    between atoms: S_5  and  C_8
REMARK    6  A    between atoms: C_11  and  C_12
REMARK    7  A    between atoms: C_12  and  C_13
REMARK    8  A    between atoms: C_13  and  N_14
REMARK    9  A    between atoms: C_15  and  C_17
REMARK   10  A    between atoms: C_23  and  O_24
REMARK   11  A    between atoms: O_24  and  C_25
REMARK                            x       y       z     vdW  Elec       q    Type
REMARK                         _______ _______ _______ _____ _____    ______ ____
ROOT
ATOM      1  C   UNL     1       1.471   8.931  19.282  0.00  0.00    +0.000 C 
ENDROOT
BRANCH   1   5
ATOM      2  C   UNL     1       3.964   5.495  18.477  0.00  0.00    +0.000 A 
ATOM      3  C   UNL     1       3.883   6.515  17.534  0.00  0.00    +0.000 A 
ATOM      4  C   UNL     1       3.066   7.616  17.789  0.00  0.00    +0.000 A 
ATOM      5  C   UNL     1       2.306   7.703  18.967  0.00  0.00    +0.000 A 
ATOM      6  C   UNL     1       2.385   6.653  19.895  0.00  0.00    +0.000 A 
ATOM      7  C   UNL     1       3.202   5.545  19.648  0.00  0.00    +0.000 A 
BRANCH   2   8
ATOM      8  S   UNL     1       5.047   4.118  18.187  0.00  0.00    +0.000 S 
ATOM      9  O   UNL     1       6.196   4.242  19.052  0.00  0.00    +0.000 OA
ATOM     10  O   UNL     1       5.171   3.995  16.748  0.00  0.00    +0.000 OA
BRANCH   8  11
ATOM     11  N   UNL     1       4.102   2.810  18.726  0.00  0.00    +0.000 NA
ATOM     12  H   UNL     1       4.694   2.073  19.107  0.00  0.00    +0.000 HD
BRANCH  11  13
ATOM     13  C   UNL     1       3.095   2.315  17.768  0.00  0.00    +0.000 C 
BRANCH  13  15
ATOM     14  C   UNL     1       1.812   2.321  19.916  0.00  0.00    +0.000 C 
ATOM     15  C   UNL     1       1.707   2.389  18.400  0.00  0.00    +0.000 C 
ENDBRANCH  13  15
ENDBRANCH  11  13
ENDBRANCH   8  11
ENDBRANCH   2   8
ENDBRANCH   1   5
BRANCH   1  16
ATOM     16  C   UNL     1       0.930   8.964  20.718  0.00  0.00    +0.000 C 
BRANCH  16  17
ATOM     17  N   UNL     1      -0.103   9.954  20.923  0.00  0.00    +0.000 N 
ATOM     18  C   UNL     1      -0.315  10.524  22.170  0.00  0.00    +0.000 C 
ATOM     19  O   UNL     1       0.267  10.146  23.177  0.00  0.00    +0.000 OA
ATOM     20  H   UNL     1      -0.579  10.309  20.105  0.00  0.00    +0.000 HD
BRANCH  18  21
ATOM     21  C   UNL     1      -1.320  11.621  22.206  0.00  0.00    +0.000 A 
ATOM     22  C   UNL     1      -2.236  11.575  23.277  0.00  0.00    +0.000 A 
ATOM     23  C   UNL     1      -3.212  12.553  23.427  0.00  0.00    +0.000 A 
ATOM     24 CL   UNL     1      -4.336  12.439  24.723  0.00  0.00    +0.000 Cl
ATOM     25  C   UNL     1      -3.274  13.617  22.541  0.00  0.00    +0.000 A 
ATOM     26  C   UNL     1      -2.344  13.695  21.501  0.00  0.00    +0.000 A 
ATOM     27  C   UNL     1      -1.367  12.701  21.307  0.00  0.00    +0.000 A 
BRANCH  27  28
ATOM     28  O   UNL     1      -0.534  13.007  20.268  0.00  0.00    +0.000 OA
ATOM     29  C   UNL     1      -0.990  12.802  18.938  0.00  0.00    +0.000 C 
ENDBRANCH  27  28
ENDBRANCH  18  21
ENDBRANCH  16  17
ENDBRANCH   1  16
TORSDOF 9
ENDMDL
MODEL 6
REMARK VINA RESULT:      -7.1      2.907      3.577
REMARK  Name = 
REMARK  11 active torsions:
REMARK  status: ('A' for Active; 'I' for Inactive)
REMARK    1  A    between atoms: C_1  and  C_2
REMARK    2  A    between atoms: C_2  and  C_3
REMARK    3  A    between atoms: C_3  and  N_4
REMARK    4  A    between atoms: N_4  and  S_5
REMARK    5  A    between atoms: S_5  and  C_8
REMARK    6  A    between atoms: C_11  and  C_12
REMARK    7  A    between atoms: C_12  and  C_13
REMARK    8  A    between atoms: C_13  and  N_14
REMARK    9  A    between atoms: C_15  and  C_17
REMARK   10  A    between atoms: C_23  and  O_24
REMARK   11  A    between atoms: O_24  and  C_25
REMARK                            x       y       z     vdW  Elec       q    Type
REMARK                         _______ _______ _______ _____ _____    ______ ____
ROOT
ATOM      1  C   UNL     1       1.893   6.068  19.832  0.00  0.00    +0.000 C 
ENDROOT
BRANCH   1   5
ATOM      2  C   UNL     1       5.667   5.362  17.851  0.00  0.00    +0.000 A 
ATOM      3  C   UNL     1       5.395   4.713  19.051  0.00  0.00    +0.000 A 
ATOM      4  C   UNL     1       4.183   4.954  19.696  0.00  0.00    +0.000 A 
ATOM      5  C   UNL     1       3.243   5.856  19.172  0.00  0.00    +0.000 A 
ATOM      6  C   UNL     1       3.547   6.517  17.971  0.00  0.00    +0.000 A 
ATOM      7  C   UNL     1       4.760   6.282  17.316  0.00  0.00    +0.000 A 
BRANCH   2   8
ATOM      8  S   UNL     1       7.183   5.018  16.991  0.00  0.00    +0.000 S 
ATOM      9  O   UNL     1       8.098   4.377  17.905  0.00  0.00    +0.000 OA
ATOM     10  O   UNL     1       7.527   6.230  16.274  0.00  0.00    +0.000 OA
BRANCH   8  11
ATOM     11  N   UNL     1       6.680   3.874  15.837  0.00  0.00    +0.000 NA
ATOM     12  H   UNL     1       7.134   2.977  15.999  0.00  0.00    +0.000 HD
BRANCH  11  13
ATOM     13  C   UNL     1       6.746   4.317  14.431  0.00  0.00    +0.000 C 
BRANCH  13  15
ATOM     14  C   UNL     1       5.769   3.378  12.328  0.00  0.00    +0.000 C 
ATOM     15  C   UNL     1       5.457   3.930  13.711  0.00  0.00    +0.000 C 
ENDBRANCH  13  15
ENDBRANCH  11  13
ENDBRANCH   8  11
ENDBRANCH   2   8
ENDBRANCH   1   5
BRANCH   1  16
ATOM     16  C   UNL     1       1.820   7.323  20.711  0.00  0.00    +0.000 C 
BRANCH  16  17
ATOM     17  N   UNL     1       1.309   8.484  20.019  0.00  0.00    +0.000 N 
ATOM     18  C   UNL     1       0.363   9.313  20.606  0.00  0.00    +0.000 C 
ATOM     19  O   UNL     1      -0.173   9.051  21.674  0.00  0.00    +0.000 OA
ATOM     20  H   UNL     1       1.755   8.744  19.150  0.00  0.00    +0.000 HD
BRANCH  18  21
ATOM     21  C   UNL     1       0.026  10.541  19.836  0.00  0.00    +0.000 A 
ATOM     22  C   UNL     1      -1.006  10.402  18.886  0.00  0.00    +0.000 A 
ATOM     23  C   UNL     1      -1.422  11.482  18.115  0.00  0.00    +0.000 A 
ATOM     24 CL   UNL     1      -2.656  11.261  16.940  0.00  0.00    +0.000 Cl
ATOM     25  C   UNL     1      -0.849  12.730  18.301  0.00  0.00    +0.000 A 
ATOM     26  C   UNL     1       0.147  12.888  19.269  0.00  0.00    +0.000 A 
ATOM     27  C   UNL     1       0.608  11.805  20.039  0.00  0.00    +0.000 A 
BRANCH  27  28
ATOM     28  O   UNL     1       1.540  12.198  20.957  0.00  0.00    +0.000 OA
ATOM     29  C   UNL     1       1.797  13.585  21.126  0.00  0.00    +0.000 C 
ENDBRANCH  27  28
ENDBRANCH  18  21
ENDBRANCH  16  17
ENDBRANCH   1  16
TORSDOF 9
ENDMDL
MODEL 7
REMARK VINA RESULT:      -7.0      2.035      2.767
REMARK  Name = 
REMARK  11 active torsions:
REMARK  status: ('A' for Active; 'I' for Inactive)
REMARK    1  A    between atoms: C_1  and  C_2
REMARK    2  A    between atoms: C_2  and  C_3
REMARK    3  A    between atoms: C_3  and  N_4
REMARK    4  A    between atoms: N_4  and  S_5
REMARK    5  A    between atoms: S_5  and  C_8
REMARK    6  A    between atoms: C_11  and  C_12
REMARK    7  A    between atoms: C_12  and  C_13
REMARK    8  A    between atoms: C_13  and  N_14
REMARK    9  A    between atoms: C_15  and  C_17
REMARK   10  A    between atoms: C_23  and  O_24
REMARK   11  A    between atoms: O_24  and  C_25
REMARK                            x       y       z     vdW  Elec       q    Type
REMARK                         _______ _______ _______ _____ _____    ______ ____
ROOT
ATOM      1  C   UNL     1       2.044   9.275  17.807  0.00  0.00    +0.000 C 
ENDROOT
BRANCH   1   5
ATOM      2  C   UNL     1       4.243   5.574  18.179  0.00  0.00    +0.000 A 
ATOM      3  C   UNL     1       4.785   6.618  17.435  0.00  0.00    +0.000 A 
ATOM      4  C   UNL     1       4.068   7.805  17.304  0.00  0.00    +0.000 A 
ATOM      5  C   UNL     1       2.799   7.960  17.887  0.00  0.00    +0.000 A 
ATOM      6  C   UNL     1       2.261   6.887  18.614  0.00  0.00    +0.000 A 
ATOM      7  C   UNL     1       2.973   5.692  18.752  0.00  0.00    +0.000 A 
BRANCH   2   8
ATOM      8  S   UNL     1       5.175   4.079  18.401  0.00  0.00    +0.000 S 
ATOM      9  O   UNL     1       4.436   3.197  19.273  0.00  0.00    +0.000 OA
ATOM     10  O   UNL     1       6.536   4.488  18.689  0.00  0.00    +0.000 OA
BRANCH   8  11
ATOM     11  N   UNL     1       5.166   3.423  16.832  0.00  0.00    +0.000 NA
ATOM     12  H   UNL     1       5.113   2.406  16.868  0.00  0.00    +0.000 HD
BRANCH  11  13
ATOM     13  C   UNL     1       6.221   3.921  15.928  0.00  0.00    +0.000 C 
BRANCH  13  15
ATOM     14  C   UNL     1       6.168   3.737  13.434  0.00  0.00    +0.000 C 
ATOM     15  C   UNL     1       5.587   4.452  14.645  0.00  0.00    +0.000 C 
ENDBRANCH  13  15
ENDBRANCH  11  13
ENDBRANCH   8  11
ENDBRANCH   2   8
ENDBRANCH   1   5
BRANCH   1  16
ATOM     16  C   UNL     1       1.117   9.533  19.001  0.00  0.00    +0.000 C 
BRANCH  16  17
ATOM     17  N   UNL     1      -0.252   9.803  18.622  0.00  0.00    +0.000 N 
ATOM     18  C   UNL     1      -0.718  11.103  18.488  0.00  0.00    +0.000 C 
ATOM     19  O   UNL     1      -0.048  12.080  18.793  0.00  0.00    +0.000 OA
ATOM     20  H   UNL     1      -0.820   9.019  18.333  0.00  0.00    +0.000 HD
BRANCH  18  21
ATOM     21  C   UNL     1      -2.105  11.232  17.965  0.00  0.00    +0.000 A 
ATOM     22  C   UNL     1      -2.327  10.687  16.683  0.00  0.00    +0.000 A 
ATOM     23  C   UNL     1      -3.585  10.732  16.094  0.00  0.00    +0.000 A 
ATOM     24 CL   UNL     1      -3.805  10.092  14.513  0.00  0.00    +0.000 Cl
ATOM     25  C   UNL     1      -4.656  11.282  16.780  0.00  0.00    +0.000 A 
ATOM     26  C   UNL     1      -4.456  11.788  18.067  0.00  0.00    +0.000 A 
ATOM     27  C   UNL     1      -3.186  11.784  18.673  0.00  0.00    +0.000 A 
BRANCH  27  28
ATOM     28  O   UNL     1      -3.233  12.275  19.948  0.00  0.00    +0.000 OA
ATOM     29  C   UNL     1      -4.485  12.686  20.480  0.00  0.00    +0.000 C 
ENDBRANCH  27  28
ENDBRANCH  18  21
ENDBRANCH  16  17
ENDBRANCH   1  16
TORSDOF 9
ENDMDL
MODEL 8
REMARK VINA RESULT:      -7.0      3.061      4.496
REMARK  Name = 
REMARK  11 active torsions:
REMARK  status: ('A' for Active; 'I' for Inactive)
REMARK    1  A    between atoms: C_1  and  C_2
REMARK    2  A    between atoms: C_2  and  C_3
REMARK    3  A    between atoms: C_3  and  N_4
REMARK    4  A    between atoms: N_4  and  S_5
REMARK    5  A    between atoms: S_5  and  C_8
REMARK    6  A    between atoms: C_11  and  C_12
REMARK    7  A    between atoms: C_12  and  C_13
REMARK    8  A    between atoms: C_13  and  N_14
REMARK    9  A    between atoms: C_15  and  C_17
REMARK   10  A    between atoms: C_23  and  O_24
REMARK   11  A    between atoms: O_24  and  C_25
REMARK                            x       y       z     vdW  Elec       q    Type
REMARK                         _______ _______ _______ _____ _____    ______ ____
ROOT
ATOM      1  C   UNL     1       1.742   5.973  20.096  0.00  0.00    +0.000 C 
ENDROOT
BRANCH   1   5
ATOM      2  C   UNL     1       4.642   5.241  16.978  0.00  0.00    +0.000 A 
ATOM      3  C   UNL     1       4.336   6.551  17.331  0.00  0.00    +0.000 A 
ATOM      4  C   UNL     1       3.390   6.786  18.326  0.00  0.00    +0.000 A 
ATOM      5  C   UNL     1       2.721   5.727  18.963  0.00  0.00    +0.000 A 
ATOM      6  C   UNL     1       3.028   4.413  18.577  0.00  0.00    +0.000 A 
ATOM      7  C   UNL     1       3.977   4.167  17.579  0.00  0.00    +0.000 A 
BRANCH   2   8
ATOM      8  S   UNL     1       5.889   4.930  15.752  0.00  0.00    +0.000 S 
ATOM      9  O   UNL     1       5.664   5.809  14.629  0.00  0.00    +0.000 OA
ATOM     10  O   UNL     1       5.962   3.490  15.605  0.00  0.00    +0.000 OA
BRANCH   8  11
ATOM     11  N   UNL     1       7.302   5.428  16.556  0.00  0.00    +0.000 NA
ATOM     12  H   UNL     1       8.086   5.480  15.906  0.00  0.00    +0.000 HD
BRANCH  11  13
ATOM     13  C   UNL     1       7.620   4.697  17.797  0.00  0.00    +0.000 C 
BRANCH  13  15
ATOM     14  C   UNL     1       7.953   7.093  18.436  0.00  0.00    +0.000 C 
ATOM     15  C   UNL     1       7.728   5.682  18.959  0.00  0.00    +0.000 C 
ENDBRANCH  13  15
ENDBRANCH  11  13
ENDBRANCH   8  11
ENDBRANCH   2   8
ENDBRANCH   1   5
BRANCH   1  16
ATOM     16  C   UNL     1       2.066   7.213  20.940  0.00  0.00    +0.000 C 
BRANCH  16  17
ATOM     17  N   UNL     1       1.062   8.249  20.851  0.00  0.00    +0.000 N 
ATOM     18  C   UNL     1       1.038   9.306  21.750  0.00  0.00    +0.000 C 
ATOM     19  O   UNL     1       1.777   9.363  22.723  0.00  0.00    +0.000 OA
ATOM     20  H   UNL     1       0.458   8.247  20.040  0.00  0.00    +0.000 HD
BRANCH  18  21
ATOM     21  C   UNL     1       0.035  10.366  21.461  0.00  0.00    +0.000 A 
ATOM     22  C   UNL     1      -0.800  10.728  22.538  0.00  0.00    +0.000 A 
ATOM     23  C   UNL     1      -1.766  11.717  22.396  0.00  0.00    +0.000 A 
ATOM     24 CL   UNL     1      -2.790  12.100  23.723  0.00  0.00    +0.000 Cl
ATOM     25  C   UNL     1      -1.897  12.394  21.194  0.00  0.00    +0.000 A 
ATOM     26  C   UNL     1      -1.048  12.072  20.132  0.00  0.00    +0.000 A 
ATOM     27  C   UNL     1      -0.083  11.053  20.240  0.00  0.00    +0.000 A 
BRANCH  27  28
ATOM     28  O   UNL     1       0.669  10.948  19.104  0.00  0.00    +0.000 OA
ATOM     29  C   UNL     1       0.275  10.020  18.102  0.00  0.00    +0.000 C 
ENDBRANCH  27  28
ENDBRANCH  18  21
ENDBRANCH  16  17
ENDBRANCH   1  16
TORSDOF 9
ENDMDL
MODEL 9
REMARK VINA RESULT:      -7.0      3.236      4.451
REMARK  Name = 
REMARK  11 active torsions:
REMARK  status: ('A' for Active; 'I' for Inactive)
REMARK    1  A    between atoms: C_1  and  C_2
REMARK    2  A    between atoms: C_2  and  C_3
REMARK    3  A    between atoms: C_3  and  N_4
REMARK    4  A    between atoms: N_4  and  S_5
REMARK    5  A    between atoms: S_5  and  C_8
REMARK    6  A    between atoms: C_11  and  C_12
REMARK    7  A    between atoms: C_12  and  C_13
REMARK    8  A    between atoms: C_13  and  N_14
REMARK    9  A    between atoms: C_15  and  C_17
REMARK   10  A    between atoms: C_23  and  O_24
REMARK   11  A    between atoms: O_24  and  C_25
REMARK                            x       y       z     vdW  Elec       q    Type
REMARK                         _______ _______ _______ _____ _____    ______ ____
ROOT
ATOM      1  C   UNL     1       1.490   6.766  20.612  0.00  0.00    +0.000 C 
ENDROOT
BRANCH   1   5
ATOM      2  C   UNL     1       4.269   6.061  17.380  0.00  0.00    +0.000 A 
ATOM      3  C   UNL     1       4.130   5.105  18.381  0.00  0.00    +0.000 A 
ATOM      4  C   UNL     1       3.244   5.341  19.431  0.00  0.00    +0.000 A 
ATOM      5  C   UNL     1       2.508   6.534  19.511  0.00  0.00    +0.000 A 
ATOM      6  C   UNL     1       2.679   7.496  18.502  0.00  0.00    +0.000 A 
ATOM      7  C   UNL     1       3.565   7.269  17.445  0.00  0.00    +0.000 A 
BRANCH   2   8
ATOM      8  S   UNL     1       5.351   5.745  16.008  0.00  0.00    +0.000 S 
ATOM      9  O   UNL     1       5.223   6.824  15.058  0.00  0.00    +0.000 OA
ATOM     10  O   UNL     1       5.141   4.359  15.637  0.00  0.00    +0.000 OA
BRANCH   8  11
ATOM     11  N   UNL     1       6.883   5.845  16.739  0.00  0.00    +0.000 NA
ATOM     12  H   UNL     1       6.991   5.121  17.447  0.00  0.00    +0.000 HD
BRANCH  11  13
ATOM     13  C   UNL     1       7.277   7.186  17.211  0.00  0.00    +0.000 C 
BRANCH  13  15
ATOM     14  C   UNL     1       7.724   5.705  19.177  0.00  0.00    +0.000 C 
ATOM     15  C   UNL     1       7.992   7.067  18.554  0.00  0.00    +0.000 C 
ENDBRANCH  13  15
ENDBRANCH  11  13
ENDBRANCH   8  11
ENDBRANCH   2   8
ENDBRANCH   1   5
BRANCH   1  16
ATOM     16  C   UNL     1       1.703   8.068  21.394  0.00  0.00    +0.000 C 
BRANCH  16  17
ATOM     17  N   UNL     1       0.603   8.998  21.279  0.00  0.00    +0.000 N 
ATOM     18  C   UNL     1       0.300   9.885  22.303  0.00  0.00    +0.000 C 
ATOM     19  O   UNL     1       0.859   9.853  23.390  0.00  0.00    +0.000 OA
ATOM     20  H   UNL     1       0.144   9.070  20.381  0.00  0.00    +0.000 HD
BRANCH  18  21
ATOM     21  C   UNL     1      -0.771  10.871  21.995  0.00  0.00    +0.000 A 
ATOM     22  C   UNL     1      -1.649  11.170  23.058  0.00  0.00    +0.000 A 
ATOM     23  C   UNL     1      -2.680  12.088  22.898  0.00  0.00    +0.000 A 
ATOM     24 CL   UNL     1      -3.753  12.395  24.206  0.00  0.00    +0.000 Cl
ATOM     25  C   UNL     1      -2.836  12.757  21.695  0.00  0.00    +0.000 A 
ATOM     26  C   UNL     1      -1.947  12.499  20.649  0.00  0.00    +0.000 A 
ATOM     27  C   UNL     1      -0.914  11.551  20.773  0.00  0.00    +0.000 A 
BRANCH  27  28
ATOM     28  O   UNL     1      -0.135  11.501  19.651  0.00  0.00    +0.000 OA
ATOM     29  C   UNL     1       0.246  12.718  19.026  0.00  0.00    +0.000 C 
ENDBRANCH  27  28
ENDBRANCH  18  21
ENDBRANCH  16  17
ENDBRANCH   1  16
TORSDOF 9
ENDMDL
