MODEL 1
REMARK VINA RESULT:      -8.1      0.000      0.000
REMARK  Name = 
REMARK  2 active torsions:
REMARK  status: ('A' for Active; 'I' for Inactive)
REMARK    1  A    between atoms: N_2  and  C_4
REMARK    2  A    between atoms: C_8  and  C_9
REMARK                            x       y       z     vdW  Elec       q    Type
REMARK                         _______ _______ _______ _____ _____    ______ ____
ROOT
ATOM      1  C   UNL     1       2.140   3.024  20.279  0.00  0.00    +0.000 A 
ATOM      2  C   UNL     1       0.928   2.941  19.581  0.00  0.00    +0.000 A 
ATOM      3  C   UNL     1       0.861   3.388  18.261  0.00  0.00    +0.000 A 
ATOM      4  C   UNL     1       2.000   3.905  17.637  0.00  0.00    +0.000 A 
ATOM      5  C   UNL     1       3.213   3.972  18.333  0.00  0.00    +0.000 A 
ATOM      6  C   UNL     1       3.278   3.554  19.667  0.00  0.00    +0.000 A 
ENDROOT
BRANCH   5   7
ATOM      7  C   UNL     1       4.424   4.498  17.654  0.00  0.00    +0.000 A 
ATOM      8  C   UNL     1       5.227   5.495  18.433  0.00  0.00    +0.000 A 
ATOM      9  C   UNL     1       6.301   6.033  17.847  0.00  0.00    +0.000 A 
ATOM     10  C   UNL     1       6.637   5.626  16.544  0.00  0.00    +0.000 A 
ATOM     11  N   UNL     1       7.606   5.971  15.724  0.00  0.00    +0.000 NA
ATOM     12  N   UNL     1       7.449   5.247  14.562  0.00  0.00    +0.000 NA
ATOM     13  C   UNL     1       6.389   4.482  14.714  0.00  0.00    +0.000 A 
ATOM     14  N   UNL     1       5.840   4.677  15.945  0.00  0.00    +0.000 N 
ATOM     15  N   UNL     1       4.724   4.075  16.459  0.00  0.00    +0.000 NA
ENDBRANCH   5   7
BRANCH   1  17
ATOM     16  O   UNL     1       3.345   2.149  22.054  0.00  0.00    +0.000 OA
ATOM     17  N   UNL     1       2.236   2.540  21.660  0.00  0.00    +0.000 N 
ATOM     18  O   UNL     1       1.209   2.564  22.353  0.00  0.00    +0.000 OA
ENDBRANCH   1  17
TORSDOF 2
ENDMDL
MODEL 2
REMARK VINA RESULT:      -8.0      0.950      1.615
REMARK  Name = 
REMARK  2 active torsions:
REMARK  status: ('A' for Active; 'I' for Inactive)
REMARK    1  A    between atoms: N_2  and  C_4
REMARK    2  A    between atoms: C_8  and  C_9
REMARK                            x       y       z     vdW  Elec       q    Type
REMARK                         _______ _______ _______ _____ _____    ______ ____
ROOT
ATOM      1  C   UNL     1       2.089   3.032  20.264  0.00  0.00    +0.000 A 
ATOM      2  C   UNL     1       0.864   2.922  19.595  0.00  0.00    +0.000 A 
ATOM      3  C   UNL     1       0.755   3.368  18.277  0.00  0.00    +0.000 A 
ATOM      4  C   UNL     1       1.866   3.910  17.626  0.00  0.00    +0.000 A 
ATOM      5  C   UNL     1       3.094   4.004  18.294  0.00  0.00    +0.000 A 
ATOM      6  C   UNL     1       3.200   3.587  19.625  0.00  0.00    +0.000 A 
ENDROOT
BRANCH   5   7
ATOM      7  C   UNL     1       4.276   4.557  17.586  0.00  0.00    +0.000 A 
ATOM      8  C   UNL     1       4.702   3.817  16.354  0.00  0.00    +0.000 A 
ATOM      9  C   UNL     1       5.789   4.248  15.706  0.00  0.00    +0.000 A 
ATOM     10  C   UNL     1       6.466   5.379  16.195  0.00  0.00    +0.000 A 
ATOM     11  N   UNL     1       7.540   6.020  15.789  0.00  0.00    +0.000 NA
ATOM     12  N   UNL     1       7.753   7.071  16.656  0.00  0.00    +0.000 NA
ATOM     13  C   UNL     1       6.798   7.036  17.560  0.00  0.00    +0.000 A 
ATOM     14  N   UNL     1       5.957   5.992  17.317  0.00  0.00    +0.000 N 
ATOM     15  N   UNL     1       4.860   5.625  18.048  0.00  0.00    +0.000 NA
ENDBRANCH   5   7
BRANCH   1  17
ATOM     16  O   UNL     1       3.357   2.192  22.012  0.00  0.00    +0.000 OA
ATOM     17  N   UNL     1       2.228   2.550  21.642  0.00  0.00    +0.000 N 
ATOM     18  O   UNL     1       1.216   2.544  22.357  0.00  0.00    +0.000 OA
ENDBRANCH   1  17
TORSDOF 2
ENDMDL
MODEL 3
REMARK VINA RESULT:      -7.9      4.563      6.969
REMARK  Name = 
REMARK  2 active torsions:
REMARK  status: ('A' for Active; 'I' for Inactive)
REMARK    1  A    between atoms: N_2  and  C_4
REMARK    2  A    between atoms: C_8  and  C_9
REMARK                            x       y       z     vdW  Elec       q    Type
REMARK                         _______ _______ _______ _____ _____    ______ ____
ROOT
ATOM      1  C   UNL     1       6.121   3.459  12.301  0.00  0.00    +0.000 A 
ATOM      2  C   UNL     1       7.075   4.248  11.646  0.00  0.00    +0.000 A 
ATOM      3  C   UNL     1       7.835   5.161  12.379  0.00  0.00    +0.000 A 
ATOM      4  C   UNL     1       7.651   5.277  13.759  0.00  0.00    +0.000 A 
ATOM      5  C   UNL     1       6.707   4.476  14.412  0.00  0.00    +0.000 A 
ATOM      6  C   UNL     1       5.921   3.582  13.677  0.00  0.00    +0.000 A 
ENDROOT
BRANCH   5   7
ATOM      7  C   UNL     1       6.537   4.588  15.883  0.00  0.00    +0.000 A 
ATOM      8  C   UNL     1       5.185   4.216  16.412  0.00  0.00    +0.000 A 
ATOM      9  C   UNL     1       4.968   4.345  17.726  0.00  0.00    +0.000 A 
ATOM     10  C   UNL     1       6.015   4.797  18.545  0.00  0.00    +0.000 A 
ATOM     11  N   UNL     1       6.102   5.026  19.838  0.00  0.00    +0.000 NA
ATOM     12  N   UNL     1       7.382   5.466  20.100  0.00  0.00    +0.000 NA
ATOM     13  C   UNL     1       8.034   5.488  18.958  0.00  0.00    +0.000 A 
ATOM     14  N   UNL     1       7.223   5.075  17.945  0.00  0.00    +0.000 N 
ATOM     15  N   UNL     1       7.539   4.980  16.617  0.00  0.00    +0.000 NA
ENDBRANCH   5   7
BRANCH   1  17
ATOM     16  O   UNL     1       4.174   2.804  11.228  0.00  0.00    +0.000 OA
ATOM     17  N   UNL     1       5.327   2.480  11.551  0.00  0.00    +0.000 N 
ATOM     18  O   UNL     1       5.859   1.396  11.274  0.00  0.00    +0.000 OA
ENDBRANCH   1  17
TORSDOF 2
ENDMDL
MODEL 4
REMARK VINA RESULT:      -7.9      3.203      6.445
REMARK  Name = 
REMARK  2 active torsions:
REMARK  status: ('A' for Active; 'I' for Inactive)
REMARK    1  A    between atoms: N_2  and  C_4
REMARK    2  A    between atoms: C_8  and  C_9
REMARK                            x       y       z     vdW  Elec       q    Type
REMARK                         _______ _______ _______ _____ _____    ______ ____
ROOT
ATOM      1  C   UNL     1       6.772   5.964  17.214  0.00  0.00    +0.000 A 
ATOM      2  C   UNL     1       6.959   5.433  15.932  0.00  0.00    +0.000 A 
ATOM      3  C   UNL     1       6.098   4.439  15.465  0.00  0.00    +0.000 A 
ATOM      4  C   UNL     1       5.050   3.985  16.270  0.00  0.00    +0.000 A 
ATOM      5  C   UNL     1       4.858   4.529  17.546  0.00  0.00    +0.000 A 
ATOM      6  C   UNL     1       5.737   5.504  18.030  0.00  0.00    +0.000 A 
ENDROOT
BRANCH   5   7
ATOM      7  C   UNL     1       3.725   4.060  18.383  0.00  0.00    +0.000 A 
ATOM      8  C   UNL     1       2.371   4.128  17.744  0.00  0.00    +0.000 A 
ATOM      9  C   UNL     1       1.313   3.760  18.474  0.00  0.00    +0.000 A 
ATOM     10  C   UNL     1       1.520   3.309  19.789  0.00  0.00    +0.000 A 
ATOM     11  N   UNL     1       0.699   2.896  20.730  0.00  0.00    +0.000 NA
ATOM     12  N   UNL     1       1.457   2.573  21.835  0.00  0.00    +0.000 NA
ATOM     13  C   UNL     1       2.717   2.798  21.529  0.00  0.00    +0.000 A 
ATOM     14  N   UNL     1       2.816   3.260  20.252  0.00  0.00    +0.000 N 
ATOM     15  N   UNL     1       3.956   3.618  19.586  0.00  0.00    +0.000 NA
ENDBRANCH   5   7
BRANCH   1  17
ATOM     16  O   UNL     1       8.236   6.825  18.791  0.00  0.00    +0.000 OA
ATOM     17  N   UNL     1       7.654   7.025  17.714  0.00  0.00    +0.000 N 
ATOM     18  O   UNL     1       7.774   8.048  17.026  0.00  0.00    +0.000 OA
ENDBRANCH   1  17
TORSDOF 2
ENDMDL
MODEL 5
REMARK VINA RESULT:      -7.7      1.296      1.477
REMARK  Name = 
REMARK  2 active torsions:
REMARK  status: ('A' for Active; 'I' for Inactive)
REMARK    1  A    between atoms: N_2  and  C_4
REMARK    2  A    between atoms: C_8  and  C_9
REMARK                            x       y       z     vdW  Elec       q    Type
REMARK                         _______ _______ _______ _____ _____    ______ ____
ROOT
ATOM      1  C   UNL     1       2.707   4.007  20.670  0.00  0.00    +0.000 A 
ATOM      2  C   UNL     1       1.858   5.108  20.834  0.00  0.00    +0.000 A 
ATOM      3  C   UNL     1       2.016   6.229  20.019  0.00  0.00    +0.000 A 
ATOM      4  C   UNL     1       3.010   6.247  19.037  0.00  0.00    +0.000 A 
ATOM      5  C   UNL     1       3.848   5.138  18.866  0.00  0.00    +0.000 A 
ATOM      6  C   UNL     1       3.713   4.023  19.701  0.00  0.00    +0.000 A 
ENDROOT
BRANCH   5   7
ATOM      7  C   UNL     1       4.884   5.155  17.803  0.00  0.00    +0.000 A 
ATOM      8  C   UNL     1       6.176   5.824  18.164  0.00  0.00    +0.000 A 
ATOM      9  C   UNL     1       7.125   5.906  17.225  0.00  0.00    +0.000 A 
ATOM     10  C   UNL     1       6.876   5.348  15.959  0.00  0.00    +0.000 A 
ATOM     11  N   UNL     1       7.593   5.280  14.858  0.00  0.00    +0.000 NA
ATOM     12  N   UNL     1       6.844   4.612  13.912  0.00  0.00    +0.000 NA
ATOM     13  C   UNL     1       5.696   4.294  14.470  0.00  0.00    +0.000 A 
ATOM     14  N   UNL     1       5.662   4.730  15.760  0.00  0.00    +0.000 N 
ATOM     15  N   UNL     1       4.633   4.600  16.652  0.00  0.00    +0.000 NA
ENDBRANCH   5   7
BRANCH   1  17
ATOM     16  O   UNL     1       3.528   2.071  21.643  0.00  0.00    +0.000 OA
ATOM     17  N   UNL     1       2.543   2.810  21.503  0.00  0.00    +0.000 N 
ATOM     18  O   UNL     1       1.436   2.620  22.027  0.00  0.00    +0.000 OA
ENDBRANCH   1  17
TORSDOF 2
ENDMDL
MODEL 6
REMARK VINA RESULT:      -7.6      3.353      6.723
REMARK  Name = 
REMARK  2 active torsions:
REMARK  status: ('A' for Active; 'I' for Inactive)
REMARK    1  A    between atoms: N_2  and  C_4
REMARK    2  A    between atoms: C_8  and  C_9
REMARK                            x       y       z     vdW  Elec       q    Type
REMARK                         _______ _______ _______ _____ _____    ______ ____
ROOT
ATOM      1  C   UNL     1       6.598   5.132  15.894  0.00  0.00    +0.000 A 
ATOM      2  C   UNL     1       7.476   5.926  16.643  0.00  0.00    +0.000 A 
ATOM      3  C   UNL     1       7.173   6.224  17.972  0.00  0.00    +0.000 A 
ATOM      4  C   UNL     1       6.006   5.723  18.554  0.00  0.00    +0.000 A 
ATOM      5  C   UNL     1       5.138   4.917  17.806  0.00  0.00    +0.000 A 
ATOM      6  C   UNL     1       5.422   4.641  16.464  0.00  0.00    +0.000 A 
ENDROOT
BRANCH   5   7
ATOM      7  C   UNL     1       3.914   4.367  18.441  0.00  0.00    +0.000 A 
ATOM      8  C   UNL     1       2.685   4.352  17.582  0.00  0.00    +0.000 A 
ATOM      9  C   UNL     1       1.546   3.909  18.122  0.00  0.00    +0.000 A 
ATOM     10  C   UNL     1       1.556   3.461  19.454  0.00  0.00    +0.000 A 
ATOM     11  N   UNL     1       0.617   2.987  20.244  0.00  0.00    +0.000 NA
ATOM     12  N   UNL     1       1.197   2.705  21.462  0.00  0.00    +0.000 NA
ATOM     13  C   UNL     1       2.472   3.015  21.374  0.00  0.00    +0.000 A 
ATOM     14  N   UNL     1       2.755   3.493  20.130  0.00  0.00    +0.000 N 
ATOM     15  N   UNL     1       3.966   3.931  19.667  0.00  0.00    +0.000 NA
ENDBRANCH   5   7
BRANCH   1  17
ATOM     16  O   UNL     1       7.774   5.469  13.926  0.00  0.00    +0.000 OA
ATOM     17  N   UNL     1       6.910   4.791  14.502  0.00  0.00    +0.000 N 
ATOM     18  O   UNL     1       6.303   3.839  13.991  0.00  0.00    +0.000 OA
ENDBRANCH   1  17
TORSDOF 2
ENDMDL
MODEL 7
REMARK VINA RESULT:      -7.5      1.062      1.280
REMARK  Name = 
REMARK  2 active torsions:
REMARK  status: ('A' for Active; 'I' for Inactive)
REMARK    1  A    between atoms: N_2  and  C_4
REMARK    2  A    between atoms: C_8  and  C_9
REMARK                            x       y       z     vdW  Elec       q    Type
REMARK                         _______ _______ _______ _____ _____    ______ ____
ROOT
ATOM      1  C   UNL     1       3.240   2.802  19.846  0.00  0.00    +0.000 A 
ATOM      2  C   UNL     1       1.908   2.775  19.416  0.00  0.00    +0.000 A 
ATOM      3  C   UNL     1       1.588   3.221  18.133  0.00  0.00    +0.000 A 
ATOM      4  C   UNL     1       2.594   3.681  17.280  0.00  0.00    +0.000 A 
ATOM      5  C   UNL     1       3.927   3.693  17.709  0.00  0.00    +0.000 A 
ATOM      6  C   UNL     1       4.249   3.276  19.005  0.00  0.00    +0.000 A 
ENDROOT
BRANCH   5   7
ATOM      7  C   UNL     1       4.993   4.159  16.786  0.00  0.00    +0.000 A 
ATOM      8  C   UNL     1       5.979   5.128  17.366  0.00  0.00    +0.000 A 
ATOM      9  C   UNL     1       6.931   5.613  16.562  0.00  0.00    +0.000 A 
ATOM     10  C   UNL     1       6.976   5.179  15.226  0.00  0.00    +0.000 A 
ATOM     11  N   UNL     1       7.769   5.474  14.219  0.00  0.00    +0.000 NA
ATOM     12  N   UNL     1       7.347   4.745  13.127  0.00  0.00    +0.000 NA
ATOM     13  C   UNL     1       6.312   4.028  13.507  0.00  0.00    +0.000 A 
ATOM     14  N   UNL     1       6.035   4.260  14.821  0.00  0.00    +0.000 N 
ATOM     15  N   UNL     1       5.025   3.712  15.563  0.00  0.00    +0.000 NA
ENDBRANCH   5   7
BRANCH   1  17
ATOM     16  O   UNL     1       4.729   1.829  21.331  0.00  0.00    +0.000 OA
ATOM     17  N   UNL     1       3.599   2.318  21.184  0.00  0.00    +0.000 N 
ATOM     18  O   UNL     1       2.758   2.439  22.086  0.00  0.00    +0.000 OA
ENDBRANCH   1  17
TORSDOF 2
ENDMDL
MODEL 8
REMARK VINA RESULT:      -7.4      4.946      6.599
REMARK  Name = 
REMARK  2 active torsions:
REMARK  status: ('A' for Active; 'I' for Inactive)
REMARK    1  A    between atoms: N_2  and  C_4
REMARK    2  A    between atoms: C_8  and  C_9
REMARK                            x       y       z     vdW  Elec       q    Type
REMARK                         _______ _______ _______ _____ _____    ______ ____
ROOT
ATOM      1  C   UNL     1       5.471   5.417  16.971  0.00  0.00    +0.000 A 
ATOM      2  C   UNL     1       4.911   4.147  16.780  0.00  0.00    +0.000 A 
ATOM      3  C   UNL     1       3.602   3.901  17.195  0.00  0.00    +0.000 A 
ATOM      4  C   UNL     1       2.852   4.920  17.788  0.00  0.00    +0.000 A 
ATOM      5  C   UNL     1       3.410   6.192  17.964  0.00  0.00    +0.000 A 
ATOM      6  C   UNL     1       4.732   6.435  17.578  0.00  0.00    +0.000 A 
ENDROOT
BRANCH   5   7
ATOM      7  C   UNL     1       2.596   7.275  18.571  0.00  0.00    +0.000 A 
ATOM      8  C   UNL     1       2.234   8.407  17.658  0.00  0.00    +0.000 A 
ATOM      9  C   UNL     1       1.541   9.430  18.169  0.00  0.00    +0.000 A 
ATOM     10  C   UNL     1       1.169   9.387  19.523  0.00  0.00    +0.000 A 
ATOM     11  N   UNL     1       0.507  10.224  20.294  0.00  0.00    +0.000 NA
ATOM     12  N   UNL     1       0.434   9.665  21.552  0.00  0.00    +0.000 NA
ATOM     13  C   UNL     1       1.052   8.505  21.506  0.00  0.00    +0.000 A 
ATOM     14  N   UNL     1       1.532   8.277  20.251  0.00  0.00    +0.000 N 
ATOM     15  N   UNL     1       2.241   7.188  19.821  0.00  0.00    +0.000 NA
ENDBRANCH   5   7
BRANCH   1  17
ATOM     16  O   UNL     1       7.267   6.852  16.688  0.00  0.00    +0.000 OA
ATOM     17  N   UNL     1       6.839   5.700  16.523  0.00  0.00    +0.000 N 
ATOM     18  O   UNL     1       7.486   4.771  16.020  0.00  0.00    +0.000 OA
ENDBRANCH   1  17
TORSDOF 2
ENDMDL
MODEL 9
REMARK VINA RESULT:      -7.3      1.300      1.416
REMARK  Name = 
REMARK  2 active torsions:
REMARK  status: ('A' for Active; 'I' for Inactive)
REMARK    1  A    between atoms: N_2  and  C_4
REMARK    2  A    between atoms: C_8  and  C_9
REMARK                            x       y       z     vdW  Elec       q    Type
REMARK                         _______ _______ _______ _____ _____    ______ ____
ROOT
ATOM      1  C   UNL     1       2.550   3.411  20.061  0.00  0.00    +0.000 A 
ATOM      2  C   UNL     1       1.856   2.267  19.648  0.00  0.00    +0.000 A 
ATOM      3  C   UNL     1       2.158   1.684  18.416  0.00  0.00    +0.000 A 
ATOM      4  C   UNL     1       3.155   2.234  17.607  0.00  0.00    +0.000 A 
ATOM      5  C   UNL     1       3.857   3.370  18.030  0.00  0.00    +0.000 A 
ATOM      6  C   UNL     1       3.537   3.976  19.250  0.00  0.00    +0.000 A 
ENDROOT
BRANCH   5   7
ATOM      7  C   UNL     1       4.933   3.931  17.175  0.00  0.00    +0.000 A 
ATOM      8  C   UNL     1       5.996   4.707  17.892  0.00  0.00    +0.000 A 
ATOM      9  C   UNL     1       6.963   5.272  17.161  0.00  0.00    +0.000 A 
ATOM     10  C   UNL     1       6.949   5.096  15.767  0.00  0.00    +0.000 A 
ATOM     11  N   UNL     1       7.739   5.523  14.806  0.00  0.00    +0.000 NA
ATOM     12  N   UNL     1       7.244   5.043  13.612  0.00  0.00    +0.000 NA
ATOM     13  C   UNL     1       6.169   4.336  13.886  0.00  0.00    +0.000 A 
ATOM     14  N   UNL     1       5.937   4.333  15.229  0.00  0.00    +0.000 N 
ATOM     15  N   UNL     1       4.907   3.722  15.890  0.00  0.00    +0.000 NA
ENDBRANCH   5   7
BRANCH   1  17
ATOM     16  O   UNL     1       2.027   5.244  21.379  0.00  0.00    +0.000 OA
ATOM     17  N   UNL     1       2.262   4.026  21.362  0.00  0.00    +0.000 N 
ATOM     18  O   UNL     1       2.255   3.291  22.359  0.00  0.00    +0.000 OA
ENDBRANCH   1  17
TORSDOF 2
ENDMDL
