MODEL 1
REMARK VINA RESULT:      -7.8      0.000      0.000
REMARK  Name = 
REMARK  8 active torsions:
REMARK  status: ('A' for Active; 'I' for Inactive)
REMARK    1  A    between atoms: C_1  and  C_2
REMARK    2  A    between atoms: C_5  and  C_6
REMARK    3  A    between atoms: C_6  and  N_7
REMARK    4  A    between atoms: N_7  and  C_8
REMARK    5  A    between atoms: C_9  and  C_11
REMARK    6  A    between atoms: C_12  and  C_13
REMARK    7  A    between atoms: N_15  and  C_16
REMARK    8  A    between atoms: C_22  and  C_23
REMARK                            x       y       z     vdW  Elec       q    Type
REMARK                         _______ _______ _______ _____ _____    ______ ____
ROOT
ATOM      1  C   UNL     1       2.402   5.082  18.974  0.00  0.00    +0.000 A 
ATOM      2  C   UNL     1       1.812   4.770  20.229  0.00  0.00    +0.000 A 
ATOM      3  C   UNL     1       1.491   3.459  20.843  0.00  0.00    +0.000 C 
ATOM      4  N   UNL     1       1.471   5.860  20.915  0.00  0.00    +0.000 NA
ATOM      5  N   UNL     1       1.752   6.908  20.109  0.00  0.00    +0.000 N 
ATOM      6  C   UNL     1       2.277   6.475  18.894  0.00  0.00    +0.000 A 
ATOM      7  C   UNL     1       2.508   7.377  17.724  0.00  0.00    +0.000 C 
ENDROOT
BRANCH   5   8
ATOM      8  C   UNL     1       1.384   8.218  20.544  0.00  0.00    +0.000 A 
ATOM      9  C   UNL     1       1.029   9.236  19.653  0.00  0.00    +0.000 A 
ATOM     10  C   UNL     1       0.494  10.435  20.134  0.00  0.00    +0.000 A 
ATOM     11  C   UNL     1       0.345  10.636  21.505  0.00  0.00    +0.000 A 
ATOM     12  C   UNL     1       0.783   9.665  22.402  0.00  0.00    +0.000 A 
ATOM     13  C   UNL     1       1.318   8.467  21.925  0.00  0.00    +0.000 A 
ENDBRANCH   5   8
BRANCH   1  16
ATOM     14  N   UNL     1       4.231   3.832  17.821  0.00  0.00    +0.000 N 
ATOM     15  C   UNL     1       4.680   3.160  16.603  0.00  0.00    +0.000 C 
ATOM     16  C   UNL     1       2.877   4.214  17.883  0.00  0.00    +0.000 C 
ATOM     17  O   UNL     1       2.090   3.868  17.005  0.00  0.00    +0.000 OA
BRANCH  14  18
ATOM     18  C   UNL     1       5.292   4.207  18.758  0.00  0.00    +0.000 C 
BRANCH  18  23
ATOM     19  C   UNL     1       8.530   8.982  17.742  0.00  0.00    +0.000 C 
ATOM     20  C   UNL     1       7.715   7.738  17.945  0.00  0.00    +0.000 A 
ATOM     21  C   UNL     1       8.106   6.771  18.873  0.00  0.00    +0.000 A 
ATOM     22  C   UNL     1       7.311   5.644  19.101  0.00  0.00    +0.000 A 
ATOM     23  C   UNL     1       6.098   5.454  18.416  0.00  0.00    +0.000 A 
ATOM     24  C   UNL     1       5.744   6.399  17.444  0.00  0.00    +0.000 A 
ATOM     25  C   UNL     1       6.540   7.530  17.217  0.00  0.00    +0.000 A 
ENDBRANCH  18  23
ENDBRANCH  14  18
ENDBRANCH   1  16
TORSDOF 4
ENDMDL
MODEL 2
REMARK VINA RESULT:      -7.7      3.714      8.103
REMARK  Name = 
REMARK  8 active torsions:
REMARK  status: ('A' for Active; 'I' for Inactive)
REMARK    1  A    between atoms: C_1  and  C_2
REMARK    2  A    between atoms: C_5  and  C_6
REMARK    3  A    between atoms: C_6  and  N_7
REMARK    4  A    between atoms: N_7  and  C_8
REMARK    5  A    between atoms: C_9  and  C_11
REMARK    6  A    between atoms: C_12  and  C_13
REMARK    7  A    between atoms: N_15  and  C_16
REMARK    8  A    between atoms: C_22  and  C_23
REMARK                            x       y       z     vdW  Elec       q    Type
REMARK                         _______ _______ _______ _____ _____    ______ ____
ROOT
ATOM      1  C   UNL     1       0.917  10.013  20.165  0.00  0.00    +0.000 A 
ATOM      2  C   UNL     1       0.875   9.227  21.349  0.00  0.00    +0.000 A 
ATOM      3  C   UNL     1       0.510   9.597  22.738  0.00  0.00    +0.000 C 
ATOM      4  N   UNL     1       1.273   7.974  21.141  0.00  0.00    +0.000 NA
ATOM      5  N   UNL     1       1.658   7.916  19.846  0.00  0.00    +0.000 N 
ATOM      6  C   UNL     1       1.503   9.154  19.226  0.00  0.00    +0.000 A 
ATOM      7  C   UNL     1       2.018   9.464  17.857  0.00  0.00    +0.000 C 
ENDROOT
BRANCH   5   8
ATOM      8  C   UNL     1       2.242   6.706  19.363  0.00  0.00    +0.000 A 
ATOM      9  C   UNL     1       1.836   5.443  19.807  0.00  0.00    +0.000 A 
ATOM     10  C   UNL     1       2.302   4.291  19.167  0.00  0.00    +0.000 A 
ATOM     11  C   UNL     1       3.200   4.393  18.106  0.00  0.00    +0.000 A 
ATOM     12  C   UNL     1       3.681   5.640  17.719  0.00  0.00    +0.000 A 
ATOM     13  C   UNL     1       3.218   6.794  18.356  0.00  0.00    +0.000 A 
ENDBRANCH   5   8
BRANCH   1  16
ATOM     14  N   UNL     1      -0.697  11.851  19.661  0.00  0.00    +0.000 N 
ATOM     15  C   UNL     1      -0.886  13.233  19.226  0.00  0.00    +0.000 C 
ATOM     16  C   UNL     1       0.621  11.437  19.935  0.00  0.00    +0.000 C 
ATOM     17  O   UNL     1       1.542  12.250  19.938  0.00  0.00    +0.000 OA
BRANCH  14  18
ATOM     18  C   UNL     1      -1.884  10.997  19.571  0.00  0.00    +0.000 C 
BRANCH  18  23
ATOM     19  C   UNL     1      -3.861  10.143  14.123  0.00  0.00    +0.000 C 
ATOM     20  C   UNL     1      -3.403  10.330  15.540  0.00  0.00    +0.000 A 
ATOM     21  C   UNL     1      -2.228   9.729  15.997  0.00  0.00    +0.000 A 
ATOM     22  C   UNL     1      -1.775   9.954  17.300  0.00  0.00    +0.000 A 
ATOM     23  C   UNL     1      -2.477  10.794  18.183  0.00  0.00    +0.000 A 
ATOM     24  C   UNL     1      -3.686  11.345  17.735  0.00  0.00    +0.000 A 
ATOM     25  C   UNL     1      -4.138  11.120  16.428  0.00  0.00    +0.000 A 
ENDBRANCH  18  23
ENDBRANCH  14  18
ENDBRANCH   1  16
TORSDOF 4
ENDMDL
MODEL 3
REMARK VINA RESULT:      -7.7      3.720      8.066
REMARK  Name = 
REMARK  8 active torsions:
REMARK  status: ('A' for Active; 'I' for Inactive)
REMARK    1  A    between atoms: C_1  and  C_2
REMARK    2  A    between atoms: C_5  and  C_6
REMARK    3  A    between atoms: C_6  and  N_7
REMARK    4  A    between atoms: N_7  and  C_8
REMARK    5  A    between atoms: C_9  and  C_11
REMARK    6  A    between atoms: C_12  and  C_13
REMARK    7  A    between atoms: N_15  and  C_16
REMARK    8  A    between atoms: C_22  and  C_23
REMARK                            x       y       z     vdW  Elec       q    Type
REMARK                         _______ _______ _______ _____ _____    ______ ____
ROOT
ATOM      1  C   UNL     1       0.892  10.022  20.182  0.00  0.00    +0.000 A 
ATOM      2  C   UNL     1       0.793   9.231  21.359  0.00  0.00    +0.000 A 
ATOM      3  C   UNL     1       0.399   9.602  22.739  0.00  0.00    +0.000 C 
ATOM      4  N   UNL     1       1.163   7.968  21.154  0.00  0.00    +0.000 NA
ATOM      5  N   UNL     1       1.584   7.908  19.871  0.00  0.00    +0.000 N 
ATOM      6  C   UNL     1       1.482   9.153  19.255  0.00  0.00    +0.000 A 
ATOM      7  C   UNL     1       2.044   9.456  17.903  0.00  0.00    +0.000 C 
ENDROOT
BRANCH   5   8
ATOM      8  C   UNL     1       2.149   6.685  19.397  0.00  0.00    +0.000 A 
ATOM      9  C   UNL     1       2.790   6.580  18.158  0.00  0.00    +0.000 A 
ATOM     10  C   UNL     1       3.490   5.417  17.826  0.00  0.00    +0.000 A 
ATOM     11  C   UNL     1       3.525   4.342  18.712  0.00  0.00    +0.000 A 
ATOM     12  C   UNL     1       2.813   4.402  19.907  0.00  0.00    +0.000 A 
ATOM     13  C   UNL     1       2.111   5.563  20.242  0.00  0.00    +0.000 A 
ENDBRANCH   5   8
BRANCH   1  16
ATOM     14  N   UNL     1      -0.655  11.906  19.635  0.00  0.00    +0.000 N 
ATOM     15  C   UNL     1      -0.792  13.295  19.205  0.00  0.00    +0.000 C 
ATOM     16  C   UNL     1       0.641  11.455  19.953  0.00  0.00    +0.000 C 
ATOM     17  O   UNL     1       1.582  12.244  19.995  0.00  0.00    +0.000 OA
BRANCH  14  18
ATOM     18  C   UNL     1      -1.859  11.084  19.496  0.00  0.00    +0.000 C 
BRANCH  18  23
ATOM     19  C   UNL     1      -3.951  10.036  14.126  0.00  0.00    +0.000 C 
ATOM     20  C   UNL     1      -3.366  10.331  15.476  0.00  0.00    +0.000 A 
ATOM     21  C   UNL     1      -3.981  11.242  16.337  0.00  0.00    +0.000 A 
ATOM     22  C   UNL     1      -3.464  11.469  17.616  0.00  0.00    +0.000 A 
ATOM     23  C   UNL     1      -2.324  10.786  18.076  0.00  0.00    +0.000 A 
ATOM     24  C   UNL     1      -1.680   9.919  17.183  0.00  0.00    +0.000 A 
ATOM     25  C   UNL     1      -2.200   9.691  15.902  0.00  0.00    +0.000 A 
ENDBRANCH  18  23
ENDBRANCH  14  18
ENDBRANCH   1  16
TORSDOF 4
ENDMDL
MODEL 4
REMARK VINA RESULT:      -7.5      3.675      8.035
REMARK  Name = 
REMARK  8 active torsions:
REMARK  status: ('A' for Active; 'I' for Inactive)
REMARK    1  A    between atoms: C_1  and  C_2
REMARK    2  A    between atoms: C_5  and  C_6
REMARK    3  A    between atoms: C_6  and  N_7
REMARK    4  A    between atoms: N_7  and  C_8
REMARK    5  A    between atoms: C_9  and  C_11
REMARK    6  A    between atoms: C_12  and  C_13
REMARK    7  A    between atoms: N_15  and  C_16
REMARK    8  A    between atoms: C_22  and  C_23
REMARK                            x       y       z     vdW  Elec       q    Type
REMARK                         _______ _______ _______ _____ _____    ______ ____
ROOT
ATOM      1  C   UNL     1       1.097   9.889  19.974  0.00  0.00    +0.000 A 
ATOM      2  C   UNL     1       1.164   9.019  21.097  0.00  0.00    +0.000 A 
ATOM      3  C   UNL     1       0.891   9.276  22.532  0.00  0.00    +0.000 C 
ATOM      4  N   UNL     1       1.583   7.798  20.769  0.00  0.00    +0.000 NA
ATOM      5  N   UNL     1       1.874   7.848  19.450  0.00  0.00    +0.000 N 
ATOM      6  C   UNL     1       1.638   9.121  18.936  0.00  0.00    +0.000 A 
ATOM      7  C   UNL     1       2.042   9.546  17.560  0.00  0.00    +0.000 C 
ENDROOT
BRANCH   5   8
ATOM      8  C   UNL     1       2.457   6.696  18.838  0.00  0.00    +0.000 A 
ATOM      9  C   UNL     1       3.672   6.744  18.146  0.00  0.00    +0.000 A 
ATOM     10  C   UNL     1       4.291   5.560  17.734  0.00  0.00    +0.000 A 
ATOM     11  C   UNL     1       3.686   4.329  17.980  0.00  0.00    +0.000 A 
ATOM     12  C   UNL     1       2.433   4.279  18.585  0.00  0.00    +0.000 A 
ATOM     13  C   UNL     1       1.811   5.459  18.997  0.00  0.00    +0.000 A 
ENDBRANCH   5   8
BRANCH   1  16
ATOM     14  N   UNL     1      -0.599  11.699  19.680  0.00  0.00    +0.000 N 
ATOM     15  C   UNL     1      -0.853  13.103  19.366  0.00  0.00    +0.000 C 
ATOM     16  C   UNL     1       0.742  11.314  19.872  0.00  0.00    +0.000 C 
ATOM     17  O   UNL     1       1.634  12.159  19.908  0.00  0.00    +0.000 OA
BRANCH  14  18
ATOM     18  C   UNL     1      -1.758  10.811  19.563  0.00  0.00    +0.000 C 
BRANCH  18  23
ATOM     19  C   UNL     1      -3.854  10.218  14.125  0.00  0.00    +0.000 C 
ATOM     20  C   UNL     1      -3.366  10.339  15.540  0.00  0.00    +0.000 A 
ATOM     21  C   UNL     1      -2.203   9.685  15.953  0.00  0.00    +0.000 A 
ATOM     22  C   UNL     1      -1.721   9.849  17.254  0.00  0.00    +0.000 A 
ATOM     23  C   UNL     1      -2.381  10.677  18.180  0.00  0.00    +0.000 A 
ATOM     24  C   UNL     1      -3.578  11.281  17.775  0.00  0.00    +0.000 A 
ATOM     25  C   UNL     1      -4.060  11.118  16.468  0.00  0.00    +0.000 A 
ENDBRANCH  18  23
ENDBRANCH  14  18
ENDBRANCH   1  16
TORSDOF 4
ENDMDL
MODEL 5
REMARK VINA RESULT:      -7.2      3.759      8.494
REMARK  Name = 
REMARK  8 active torsions:
REMARK  status: ('A' for Active; 'I' for Inactive)
REMARK    1  A    between atoms: C_1  and  C_2
REMARK    2  A    between atoms: C_5  and  C_6
REMARK    3  A    between atoms: C_6  and  N_7
REMARK    4  A    between atoms: N_7  and  C_8
REMARK    5  A    between atoms: C_9  and  C_11
REMARK    6  A    between atoms: C_12  and  C_13
REMARK    7  A    between atoms: N_15  and  C_16
REMARK    8  A    between atoms: C_22  and  C_23
REMARK                            x       y       z     vdW  Elec       q    Type
REMARK                         _______ _______ _______ _____ _____    ______ ____
ROOT
ATOM      1  C   UNL     1       1.172   9.459  19.862  0.00  0.00    +0.000 A 
ATOM      2  C   UNL     1       1.048   8.680  21.045  0.00  0.00    +0.000 A 
ATOM      3  C   UNL     1       0.607   9.063  22.408  0.00  0.00    +0.000 C 
ATOM      4  N   UNL     1       1.441   7.420  20.867  0.00  0.00    +0.000 NA
ATOM      5  N   UNL     1       1.901   7.350  19.598  0.00  0.00    +0.000 N 
ATOM      6  C   UNL     1       1.801   8.587  18.964  0.00  0.00    +0.000 A 
ATOM      7  C   UNL     1       2.400   8.882  17.627  0.00  0.00    +0.000 C 
ENDROOT
BRANCH   5   8
ATOM      8  C   UNL     1       2.496   6.130  19.156  0.00  0.00    +0.000 A 
ATOM      9  C   UNL     1       1.810   5.198  18.369  0.00  0.00    +0.000 A 
ATOM     10  C   UNL     1       2.495   4.117  17.806  0.00  0.00    +0.000 A 
ATOM     11  C   UNL     1       3.855   3.941  18.054  0.00  0.00    +0.000 A 
ATOM     12  C   UNL     1       4.523   4.811  18.911  0.00  0.00    +0.000 A 
ATOM     13  C   UNL     1       3.843   5.892  19.477  0.00  0.00    +0.000 A 
ENDBRANCH   5   8
BRANCH   1  16
ATOM     14  N   UNL     1      -0.181  11.274  18.807  0.00  0.00    +0.000 N 
ATOM     15  C   UNL     1      -0.255  12.679  18.414  0.00  0.00    +0.000 C 
ATOM     16  C   UNL     1       0.909  10.885  19.608  0.00  0.00    +0.000 C 
ATOM     17  O   UNL     1       1.680  11.728  20.064  0.00  0.00    +0.000 OA
BRANCH  14  18
ATOM     18  C   UNL     1      -1.149  10.388  18.154  0.00  0.00    +0.000 C 
BRANCH  18  23
ATOM     19  C   UNL     1      -6.530  12.487  17.177  0.00  0.00    +0.000 C 
ATOM     20  C   UNL     1      -5.176  11.906  17.464  0.00  0.00    +0.000 A 
ATOM     21  C   UNL     1      -4.446  11.264  16.462  0.00  0.00    +0.000 A 
ATOM     22  C   UNL     1      -3.161  10.778  16.720  0.00  0.00    +0.000 A 
ATOM     23  C   UNL     1      -2.564  10.927  17.985  0.00  0.00    +0.000 A 
ATOM     24  C   UNL     1      -3.327  11.519  19.000  0.00  0.00    +0.000 A 
ATOM     25  C   UNL     1      -4.614  12.008  18.740  0.00  0.00    +0.000 A 
ENDBRANCH  18  23
ENDBRANCH  14  18
ENDBRANCH   1  16
TORSDOF 4
ENDMDL
MODEL 6
REMARK VINA RESULT:      -7.1      4.013      8.735
REMARK  Name = 
REMARK  8 active torsions:
REMARK  status: ('A' for Active; 'I' for Inactive)
REMARK    1  A    between atoms: C_1  and  C_2
REMARK    2  A    between atoms: C_5  and  C_6
REMARK    3  A    between atoms: C_6  and  N_7
REMARK    4  A    between atoms: N_7  and  C_8
REMARK    5  A    between atoms: C_9  and  C_11
REMARK    6  A    between atoms: C_12  and  C_13
REMARK    7  A    between atoms: N_15  and  C_16
REMARK    8  A    between atoms: C_22  and  C_23
REMARK                            x       y       z     vdW  Elec       q    Type
REMARK                         _______ _______ _______ _____ _____    ______ ____
ROOT
ATOM      1  C   UNL     1       0.855   9.995  20.032  0.00  0.00    +0.000 A 
ATOM      2  C   UNL     1       0.690   9.352  21.290  0.00  0.00    +0.000 A 
ATOM      3  C   UNL     1       0.195   9.880  22.584  0.00  0.00    +0.000 C 
ATOM      4  N   UNL     1       1.096   8.084  21.269  0.00  0.00    +0.000 NA
ATOM      5  N   UNL     1       1.604   7.877  20.034  0.00  0.00    +0.000 N 
ATOM      6  C   UNL     1       1.522   9.034  19.262  0.00  0.00    +0.000 A 
ATOM      7  C   UNL     1       2.171   9.183  17.923  0.00  0.00    +0.000 C 
ENDROOT
BRANCH   5   8
ATOM      8  C   UNL     1       2.222   6.620  19.754  0.00  0.00    +0.000 A 
ATOM      9  C   UNL     1       3.211   6.467  18.776  0.00  0.00    +0.000 A 
ATOM     10  C   UNL     1       3.916   5.264  18.675  0.00  0.00    +0.000 A 
ATOM     11  C   UNL     1       3.614   4.200  19.523  0.00  0.00    +0.000 A 
ATOM     12  C   UNL     1       2.569   4.312  20.435  0.00  0.00    +0.000 A 
ATOM     13  C   UNL     1       1.862   5.512  20.540  0.00  0.00    +0.000 A 
ENDBRANCH   5   8
BRANCH   1  16
ATOM     14  N   UNL     1      -0.515  11.678  18.796  0.00  0.00    +0.000 N 
ATOM     15  C   UNL     1      -0.590  13.025  18.234  0.00  0.00    +0.000 C 
ATOM     16  C   UNL     1       0.595  11.381  19.611  0.00  0.00    +0.000 C 
ATOM     17  O   UNL     1       1.383  12.266  19.938  0.00  0.00    +0.000 OA
BRANCH  14  18
ATOM     18  C   UNL     1      -1.505  10.729  18.284  0.00  0.00    +0.000 C 
BRANCH  18  23
ATOM     19  C   UNL     1      -6.936  12.733  17.385  0.00  0.00    +0.000 C 
ATOM     20  C   UNL     1      -5.568  12.176  17.652  0.00  0.00    +0.000 A 
ATOM     21  C   UNL     1      -4.837  11.556  16.636  0.00  0.00    +0.000 A 
ATOM     22  C   UNL     1      -3.541  11.093  16.876  0.00  0.00    +0.000 A 
ATOM     23  C   UNL     1      -2.932  11.242  18.135  0.00  0.00    +0.000 A 
ATOM     24  C   UNL     1      -3.694  11.810  19.164  0.00  0.00    +0.000 A 
ATOM     25  C   UNL     1      -4.994  12.277  18.922  0.00  0.00    +0.000 A 
ENDBRANCH  18  23
ENDBRANCH  14  18
ENDBRANCH   1  16
TORSDOF 4
ENDMDL
MODEL 7
REMARK VINA RESULT:      -7.1      3.910      8.582
REMARK  Name = 
REMARK  8 active torsions:
REMARK  status: ('A' for Active; 'I' for Inactive)
REMARK    1  A    between atoms: C_1  and  C_2
REMARK    2  A    between atoms: C_5  and  C_6
REMARK    3  A    between atoms: C_6  and  N_7
REMARK    4  A    between atoms: N_7  and  C_8
REMARK    5  A    between atoms: C_9  and  C_11
REMARK    6  A    between atoms: C_12  and  C_13
REMARK    7  A    between atoms: N_15  and  C_16
REMARK    8  A    between atoms: C_22  and  C_23
REMARK                            x       y       z     vdW  Elec       q    Type
REMARK                         _______ _______ _______ _____ _____    ______ ____
ROOT
ATOM      1  C   UNL     1       0.887   9.790  20.136  0.00  0.00    +0.000 A 
ATOM      2  C   UNL     1       0.710   9.168  21.402  0.00  0.00    +0.000 A 
ATOM      3  C   UNL     1       0.218   9.723  22.687  0.00  0.00    +0.000 C 
ATOM      4  N   UNL     1       1.098   7.895  21.401  0.00  0.00    +0.000 NA
ATOM      5  N   UNL     1       1.608   7.663  20.171  0.00  0.00    +0.000 N 
ATOM      6  C   UNL     1       1.544   8.809  19.382  0.00  0.00    +0.000 A 
ATOM      7  C   UNL     1       2.199   8.930  18.043  0.00  0.00    +0.000 C 
ENDROOT
BRANCH   5   8
ATOM      8  C   UNL     1       2.209   6.394  19.912  0.00  0.00    +0.000 A 
ATOM      9  C   UNL     1       3.421   6.260  19.225  0.00  0.00    +0.000 A 
ATOM     10  C   UNL     1       4.059   5.017  19.166  0.00  0.00    +0.000 A 
ATOM     11  C   UNL     1       3.476   3.900  19.760  0.00  0.00    +0.000 A 
ATOM     12  C   UNL     1       2.227   4.005  20.364  0.00  0.00    +0.000 A 
ATOM     13  C   UNL     1       1.585   5.244  20.425  0.00  0.00    +0.000 A 
ENDBRANCH   5   8
BRANCH   1  16
ATOM     14  N   UNL     1      -0.412  11.463  18.812  0.00  0.00    +0.000 N 
ATOM     15  C   UNL     1      -0.459  12.807  18.240  0.00  0.00    +0.000 C 
ATOM     16  C   UNL     1       0.648  11.174  19.693  0.00  0.00    +0.000 C 
ATOM     17  O   UNL     1       1.411  12.064  20.063  0.00  0.00    +0.000 OA
BRANCH  14  18
ATOM     18  C   UNL     1      -1.366  10.507  18.245  0.00  0.00    +0.000 C 
BRANCH  18  23
ATOM     19  C   UNL     1      -6.840  12.466  17.524  0.00  0.00    +0.000 C 
ATOM     20  C   UNL     1      -5.417  12.009  17.671  0.00  0.00    +0.000 A 
ATOM     21  C   UNL     1      -4.753  12.122  18.894  0.00  0.00    +0.000 A 
ATOM     22  C   UNL     1      -3.449  11.641  19.041  0.00  0.00    +0.000 A 
ATOM     23  C   UNL     1      -2.773  11.023  17.973  0.00  0.00    +0.000 A 
ATOM     24  C   UNL     1      -3.426  10.968  16.734  0.00  0.00    +0.000 A 
ATOM     25  C   UNL     1      -4.734  11.449  16.589  0.00  0.00    +0.000 A 
ENDBRANCH  18  23
ENDBRANCH  14  18
ENDBRANCH   1  16
TORSDOF 4
ENDMDL
MODEL 8
REMARK VINA RESULT:      -7.0      2.662      7.385
REMARK  Name = 
REMARK  8 active torsions:
REMARK  status: ('A' for Active; 'I' for Inactive)
REMARK    1  A    between atoms: C_1  and  C_2
REMARK    2  A    between atoms: C_5  and  C_6
REMARK    3  A    between atoms: C_6  and  N_7
REMARK    4  A    between atoms: N_7  and  C_8
REMARK    5  A    between atoms: C_9  and  C_11
REMARK    6  A    between atoms: C_12  and  C_13
REMARK    7  A    between atoms: N_15  and  C_16
REMARK    8  A    between atoms: C_22  and  C_23
REMARK                            x       y       z     vdW  Elec       q    Type
REMARK                         _______ _______ _______ _____ _____    ______ ____
ROOT
ATOM      1  C   UNL     1       5.708   4.442  17.977  0.00  0.00    +0.000 A 
ATOM      2  C   UNL     1       6.948   5.135  17.925  0.00  0.00    +0.000 A 
ATOM      3  C   UNL     1       7.676   5.888  18.975  0.00  0.00    +0.000 C 
ATOM      4  N   UNL     1       7.490   5.115  16.709  0.00  0.00    +0.000 NA
ATOM      5  N   UNL     1       6.598   4.481  15.915  0.00  0.00    +0.000 N 
ATOM      6  C   UNL     1       5.472   4.097  16.640  0.00  0.00    +0.000 A 
ATOM      7  C   UNL     1       4.231   3.550  16.012  0.00  0.00    +0.000 C 
ENDROOT
BRANCH   5   8
ATOM      8  C   UNL     1       6.867   4.407  14.515  0.00  0.00    +0.000 A 
ATOM      9  C   UNL     1       6.213   3.505  13.668  0.00  0.00    +0.000 A 
ATOM     10  C   UNL     1       6.371   3.603  12.283  0.00  0.00    +0.000 A 
ATOM     11  C   UNL     1       7.206   4.576  11.739  0.00  0.00    +0.000 A 
ATOM     12  C   UNL     1       7.933   5.417  12.577  0.00  0.00    +0.000 A 
ATOM     13  C   UNL     1       7.779   5.322  13.962  0.00  0.00    +0.000 A 
ENDBRANCH   5   8
BRANCH   1  16
ATOM     14  N   UNL     1       3.587   5.044  19.151  0.00  0.00    +0.000 N 
ATOM     15  C   UNL     1       2.797   4.960  20.377  0.00  0.00    +0.000 C 
ATOM     16  C   UNL     1       4.749   4.252  19.078  0.00  0.00    +0.000 C 
ATOM     17  O   UNL     1       4.998   3.428  19.956  0.00  0.00    +0.000 OA
BRANCH  14  18
ATOM     18  C   UNL     1       3.184   6.097  18.215  0.00  0.00    +0.000 C 
BRANCH  18  23
ATOM     19  C   UNL     1       0.374  10.829  20.222  0.00  0.00    +0.000 C 
ATOM     20  C   UNL     1       1.043   9.583  19.719  0.00  0.00    +0.000 A 
ATOM     21  C   UNL     1       1.388   9.451  18.372  0.00  0.00    +0.000 A 
ATOM     22  C   UNL     1       2.064   8.314  17.921  0.00  0.00    +0.000 A 
ATOM     23  C   UNL     1       2.424   7.279  18.802  0.00  0.00    +0.000 A 
ATOM     24  C   UNL     1       2.021   7.393  20.140  0.00  0.00    +0.000 A 
ATOM     25  C   UNL     1       1.345   8.535  20.592  0.00  0.00    +0.000 A 
ENDBRANCH  18  23
ENDBRANCH  14  18
ENDBRANCH   1  16
TORSDOF 4
ENDMDL
MODEL 9
REMARK VINA RESULT:      -7.0      2.651      7.420
REMARK  Name = 
REMARK  8 active torsions:
REMARK  status: ('A' for Active; 'I' for Inactive)
REMARK    1  A    between atoms: C_1  and  C_2
REMARK    2  A    between atoms: C_5  and  C_6
REMARK    3  A    between atoms: C_6  and  N_7
REMARK    4  A    between atoms: N_7  and  C_8
REMARK    5  A    between atoms: C_9  and  C_11
REMARK    6  A    between atoms: C_12  and  C_13
REMARK    7  A    between atoms: N_15  and  C_16
REMARK    8  A    between atoms: C_22  and  C_23
REMARK                            x       y       z     vdW  Elec       q    Type
REMARK                         _______ _______ _______ _____ _____    ______ ____
ROOT
ATOM      1  C   UNL     1       5.650   4.424  17.977  0.00  0.00    +0.000 A 
ATOM      2  C   UNL     1       6.928   5.045  17.932  0.00  0.00    +0.000 A 
ATOM      3  C   UNL     1       7.730   5.679  19.007  0.00  0.00    +0.000 C 
ATOM      4  N   UNL     1       7.433   5.079  16.700  0.00  0.00    +0.000 NA
ATOM      5  N   UNL     1       6.482   4.556  15.895  0.00  0.00    +0.000 N 
ATOM      6  C   UNL     1       5.356   4.188  16.628  0.00  0.00    +0.000 A 
ATOM      7  C   UNL     1       4.066   3.759  16.005  0.00  0.00    +0.000 C 
ENDROOT
BRANCH   5   8
ATOM      8  C   UNL     1       6.705   4.565  14.484  0.00  0.00    +0.000 A 
ATOM      9  C   UNL     1       7.624   5.424  13.871  0.00  0.00    +0.000 A 
ATOM     10  C   UNL     1       7.942   5.261  12.520  0.00  0.00    +0.000 A 
ATOM     11  C   UNL     1       7.321   4.266  11.767  0.00  0.00    +0.000 A 
ATOM     12  C   UNL     1       6.338   3.468  12.346  0.00  0.00    +0.000 A 
ATOM     13  C   UNL     1       6.016   3.628  13.695  0.00  0.00    +0.000 A 
ENDBRANCH   5   8
BRANCH   1  16
ATOM     14  N   UNL     1       3.624   5.085  19.279  0.00  0.00    +0.000 N 
ATOM     15  C   UNL     1       2.868   4.955  20.523  0.00  0.00    +0.000 C 
ATOM     16  C   UNL     1       4.714   4.212  19.094  0.00  0.00    +0.000 C 
ATOM     17  O   UNL     1       4.921   3.297  19.886  0.00  0.00    +0.000 OA
BRANCH  14  18
ATOM     18  C   UNL     1       3.280   6.246  18.455  0.00  0.00    +0.000 C 
BRANCH  18  23
ATOM     19  C   UNL     1       0.041  10.566  20.727  0.00  0.00    +0.000 C 
ATOM     20  C   UNL     1       0.822   9.421  20.151  0.00  0.00    +0.000 A 
ATOM     21  C   UNL     1       1.223   9.430  18.813  0.00  0.00    +0.000 A 
ATOM     22  C   UNL     1       2.001   8.390  18.298  0.00  0.00    +0.000 A 
ATOM     23  C   UNL     1       2.410   7.313  19.105  0.00  0.00    +0.000 A 
ATOM     24  C   UNL     1       1.953   7.283  20.430  0.00  0.00    +0.000 A 
ATOM     25  C   UNL     1       1.175   8.327  20.946  0.00  0.00    +0.000 A 
ENDBRANCH  18  23
ENDBRANCH  14  18
ENDBRANCH   1  16
TORSDOF 4
ENDMDL
