MODEL 1
REMARK VINA RESULT:      -7.4      0.000      0.000
REMARK  Name = 
REMARK  6 active torsions:
REMARK  status: ('A' for Active; 'I' for Inactive)
REMARK    1  A    between atoms: C_1  and  C_2
REMARK    2  A    between atoms: C_4  and  C_5
REMARK    3  A    between atoms: N_10  and  C_11
REMARK    4  A    between atoms: N_14  and  S_15
REMARK    5  A    between atoms: S_15  and  C_16
REMARK    6  A    between atoms: C_22  and  C_23
REMARK                            x       y       z     vdW  Elec       q    Type
REMARK                         _______ _______ _______ _____ _____    ______ ____
ROOT
ATOM      1  C   UNL     1       6.132   4.631  15.776  0.00  0.00    +0.000 A 
ATOM      2  C   UNL     1       7.378   4.255  16.458  0.00  0.00    +0.000 A 
ATOM      3  C   UNL     1       7.501   4.674  17.717  0.00  0.00    +0.000 A 
ATOM      4  C   UNL     1       6.420   5.431  18.386  0.00  0.00    +0.000 A 
ATOM      5  O   UNL     1       6.606   5.842  19.528  0.00  0.00    +0.000 OA
ATOM      6  N   UNL     1       5.235   5.577  17.662  0.00  0.00    +0.000 N 
ATOM      7  N   UNL     1       5.132   5.232  16.330  0.00  0.00    +0.000 NA
ENDROOT
BRANCH   1  11
ATOM      8  C   UNL     1       4.825   2.755  11.206  0.00  0.00    +0.000 C 
ATOM      9  C   UNL     1       5.419   3.409  12.388  0.00  0.00    +0.000 A 
ATOM     10  C   UNL     1       5.075   3.453  13.719  0.00  0.00    +0.000 A 
ATOM     11  C   UNL     1       6.047   4.267  14.376  0.00  0.00    +0.000 A 
ATOM     12  C   UNL     1       6.928   4.658  13.374  0.00  0.00    +0.000 A 
ATOM     13  C   UNL     1       8.172   5.459  13.331  0.00  0.00    +0.000 C 
ATOM     14  O   UNL     1       6.543   4.138  12.175  0.00  0.00    +0.000 OA
ENDBRANCH   1  11
BRANCH   6  15
ATOM     15  C   UNL     1       4.058   6.222  18.287  0.00  0.00    +0.000 C 
ATOM     16  C   UNL     1       3.886   5.818  19.755  0.00  0.00    +0.000 C 
ATOM     17  C   UNL     1       3.475   4.359  19.899  0.00  0.00    +0.000 C 
ATOM     18  N   UNL     1       2.250   4.055  19.118  0.00  0.00    +0.000 NA
ATOM     19  C   UNL     1       2.257   4.520  17.706  0.00  0.00    +0.000 C 
ATOM     20  C   UNL     1       2.724   5.965  17.571  0.00  0.00    +0.000 C 
BRANCH  18  21
ATOM     21  S   UNL     1       1.623   2.479  19.342  0.00  0.00    +0.000 S 
ATOM     22  C   UNL     1       1.455   2.354  21.119  0.00  0.00    +0.000 C 
ATOM     23  O   UNL     1       0.296   2.430  18.761  0.00  0.00    +0.000 OA
ATOM     24  O   UNL     1       2.647   1.541  18.942  0.00  0.00    +0.000 OA
ENDBRANCH  18  21
ENDBRANCH   6  15
TORSDOF 3
ENDMDL
MODEL 2
REMARK VINA RESULT:      -7.2      7.202      9.477
REMARK  Name = 
REMARK  6 active torsions:
REMARK  status: ('A' for Active; 'I' for Inactive)
REMARK    1  A    between atoms: C_1  and  C_2
REMARK    2  A    between atoms: C_4  and  C_5
REMARK    3  A    between atoms: N_10  and  C_11
REMARK    4  A    between atoms: N_14  and  S_15
REMARK    5  A    between atoms: S_15  and  C_16
REMARK    6  A    between atoms: C_22  and  C_23
REMARK                            x       y       z     vdW  Elec       q    Type
REMARK                         _______ _______ _______ _____ _____    ______ ____
ROOT
ATOM      1  C   UNL     1       0.491   9.551  20.977  0.00  0.00    +0.000 A 
ATOM      2  C   UNL     1       0.129   9.229  22.364  0.00  0.00    +0.000 A 
ATOM      3  C   UNL     1      -0.501  10.191  23.038  0.00  0.00    +0.000 A 
ATOM      4  C   UNL     1      -0.847  11.480  22.400  0.00  0.00    +0.000 A 
ATOM      5  O   UNL     1      -1.377  12.353  23.081  0.00  0.00    +0.000 OA
ATOM      6  N   UNL     1      -0.576  11.579  21.034  0.00  0.00    +0.000 N 
ATOM      7  N   UNL     1       0.158  10.632  20.352  0.00  0.00    +0.000 NA
ENDROOT
BRANCH   1  11
ATOM      8  C   UNL     1       3.078   5.378  19.563  0.00  0.00    +0.000 C 
ATOM      9  C   UNL     1       2.400   6.679  19.717  0.00  0.00    +0.000 A 
ATOM     10  C   UNL     1       1.691   7.262  20.741  0.00  0.00    +0.000 A 
ATOM     11  C   UNL     1       1.270   8.547  20.281  0.00  0.00    +0.000 A 
ATOM     12  C   UNL     1       1.771   8.650  18.988  0.00  0.00    +0.000 A 
ATOM     13  C   UNL     1       1.759   9.699  17.944  0.00  0.00    +0.000 C 
ATOM     14  O   UNL     1       2.451   7.518  18.652  0.00  0.00    +0.000 OA
ENDBRANCH   1  11
BRANCH   6  15
ATOM     15  C   UNL     1      -0.986  12.788  20.282  0.00  0.00    +0.000 C 
ATOM     16  C   UNL     1      -2.500  13.021  20.339  0.00  0.00    +0.000 C 
ATOM     17  C   UNL     1      -3.268  11.967  19.554  0.00  0.00    +0.000 C 
ATOM     18  N   UNL     1      -2.798  11.879  18.149  0.00  0.00    +0.000 NA
ATOM     19  C   UNL     1      -1.326  11.779  17.971  0.00  0.00    +0.000 C 
ATOM     20  C   UNL     1      -0.566  12.804  18.805  0.00  0.00    +0.000 C 
BRANCH  18  21
ATOM     21  S   UNL     1      -3.707  10.832  17.147  0.00  0.00    +0.000 S 
ATOM     22  C   UNL     1      -2.822  10.882  15.593  0.00  0.00    +0.000 C 
ATOM     23  O   UNL     1      -3.603   9.488  17.680  0.00  0.00    +0.000 OA
ATOM     24  O   UNL     1      -4.995  11.449  16.927  0.00  0.00    +0.000 OA
ENDBRANCH  18  21
ENDBRANCH   6  15
TORSDOF 3
ENDMDL
MODEL 3
REMARK VINA RESULT:      -7.0      7.061      9.192
REMARK  Name = 
REMARK  6 active torsions:
REMARK  status: ('A' for Active; 'I' for Inactive)
REMARK    1  A    between atoms: C_1  and  C_2
REMARK    2  A    between atoms: C_4  and  C_5
REMARK    3  A    between atoms: N_10  and  C_11
REMARK    4  A    between atoms: N_14  and  S_15
REMARK    5  A    between atoms: S_15  and  C_16
REMARK    6  A    between atoms: C_22  and  C_23
REMARK                            x       y       z     vdW  Elec       q    Type
REMARK                         _______ _______ _______ _____ _____    ______ ____
ROOT
ATOM      1  C   UNL     1       0.736   9.275  20.923  0.00  0.00    +0.000 A 
ATOM      2  C   UNL     1       0.274   8.847  22.250  0.00  0.00    +0.000 A 
ATOM      3  C   UNL     1      -0.335   9.780  22.982  0.00  0.00    +0.000 A 
ATOM      4  C   UNL     1      -0.565  11.144  22.456  0.00  0.00    +0.000 A 
ATOM      5  O   UNL     1      -1.081  11.981  23.191  0.00  0.00    +0.000 OA
ATOM      6  N   UNL     1      -0.209  11.354  21.123  0.00  0.00    +0.000 N 
ATOM      7  N   UNL     1       0.507  10.429  20.391  0.00  0.00    +0.000 NA
ENDROOT
BRANCH   1  11
ATOM      8  C   UNL     1       3.284   5.150  19.310  0.00  0.00    +0.000 C 
ATOM      9  C   UNL     1       2.608   6.444  19.522  0.00  0.00    +0.000 A 
ATOM     10  C   UNL     1       1.933   6.997  20.585  0.00  0.00    +0.000 A 
ATOM     11  C   UNL     1       1.494   8.292  20.174  0.00  0.00    +0.000 A 
ATOM     12  C   UNL     1       1.950   8.432  18.869  0.00  0.00    +0.000 A 
ATOM     13  C   UNL     1       1.901   9.509  17.854  0.00  0.00    +0.000 C 
ATOM     14  O   UNL     1       2.622   7.312  18.479  0.00  0.00    +0.000 OA
ENDBRANCH   1  11
BRANCH   6  15
ATOM     15  C   UNL     1      -0.500  12.653  20.473  0.00  0.00    +0.000 C 
ATOM     16  C   UNL     1      -1.993  12.998  20.509  0.00  0.00    +0.000 C 
ATOM     17  C   UNL     1      -2.811  12.080  19.610  0.00  0.00    +0.000 C 
ATOM     18  N   UNL     1      -2.301  12.081  18.216  0.00  0.00    +0.000 NA
ATOM     19  C   UNL     1      -0.834  11.882  18.070  0.00  0.00    +0.000 C 
ATOM     20  C   UNL     1      -0.029  12.766  19.015  0.00  0.00    +0.000 C 
BRANCH  18  21
ATOM     21  S   UNL     1      -3.251  11.200  17.099  0.00  0.00    +0.000 S 
ATOM     22  C   UNL     1      -3.284   9.554  17.798  0.00  0.00    +0.000 C 
ATOM     23  O   UNL     1      -4.600  11.729  17.133  0.00  0.00    +0.000 OA
ATOM     24  O   UNL     1      -2.511  11.125  15.861  0.00  0.00    +0.000 OA
ENDBRANCH  18  21
ENDBRANCH   6  15
TORSDOF 3
ENDMDL
MODEL 4
REMARK VINA RESULT:      -7.0      9.844     11.713
REMARK  Name = 
REMARK  6 active torsions:
REMARK  status: ('A' for Active; 'I' for Inactive)
REMARK    1  A    between atoms: C_1  and  C_2
REMARK    2  A    between atoms: C_4  and  C_5
REMARK    3  A    between atoms: N_10  and  C_11
REMARK    4  A    between atoms: N_14  and  S_15
REMARK    5  A    between atoms: S_15  and  C_16
REMARK    6  A    between atoms: C_22  and  C_23
REMARK                            x       y       z     vdW  Elec       q    Type
REMARK                         _______ _______ _______ _____ _____    ______ ____
ROOT
ATOM      1  C   UNL     1      -1.928  11.193  18.807  0.00  0.00    +0.000 A 
ATOM      2  C   UNL     1      -0.998  10.106  19.141  0.00  0.00    +0.000 A 
ATOM      3  C   UNL     1      -0.220  10.313  20.203  0.00  0.00    +0.000 A 
ATOM      4  C   UNL     1      -0.332  11.548  21.012  0.00  0.00    +0.000 A 
ATOM      5  O   UNL     1       0.447  11.715  21.946  0.00  0.00    +0.000 OA
ATOM      6  N   UNL     1      -1.367  12.417  20.662  0.00  0.00    +0.000 N 
ATOM      7  N   UNL     1      -2.112  12.259  19.512  0.00  0.00    +0.000 NA
ENDROOT
BRANCH   1  11
ATOM      8  C   UNL     1      -3.569  10.114  14.089  0.00  0.00    +0.000 C 
ATOM      9  C   UNL     1      -3.358  10.515  15.493  0.00  0.00    +0.000 A 
ATOM     10  C   UNL     1      -2.266  10.495  16.330  0.00  0.00    +0.000 A 
ATOM     11  C   UNL     1      -2.695  11.012  17.590  0.00  0.00    +0.000 A 
ATOM     12  C   UNL     1      -4.039  11.319  17.417  0.00  0.00    +0.000 A 
ATOM     13  C   UNL     1      -5.092  11.917  18.268  0.00  0.00    +0.000 C 
ATOM     14  O   UNL     1      -4.435  11.016  16.148  0.00  0.00    +0.000 OA
ENDBRANCH   1  11
BRANCH   6  15
ATOM     15  C   UNL     1      -1.629  13.625  21.478  0.00  0.00    +0.000 C 
ATOM     16  C   UNL     1      -1.955  13.280  22.936  0.00  0.00    +0.000 C 
ATOM     17  C   UNL     1      -3.306  12.592  23.069  0.00  0.00    +0.000 C 
ATOM     18  N   UNL     1      -4.394  13.395  22.458  0.00  0.00    +0.000 NA
ATOM     19  C   UNL     1      -4.128  13.894  21.083  0.00  0.00    +0.000 C 
ATOM     20  C   UNL     1      -2.750  14.531  20.949  0.00  0.00    +0.000 C 
BRANCH  18  21
ATOM     21  S   UNL     1      -5.971  12.776  22.696  0.00  0.00    +0.000 S 
ATOM     22  C   UNL     1      -7.010  14.219  22.508  0.00  0.00    +0.000 C 
ATOM     23  O   UNL     1      -6.270  11.863  21.611  0.00  0.00    +0.000 OA
ATOM     24  O   UNL     1      -6.070  12.354  24.074  0.00  0.00    +0.000 OA
ENDBRANCH  18  21
ENDBRANCH   6  15
TORSDOF 3
ENDMDL
MODEL 5
REMARK VINA RESULT:      -6.9      8.734     11.095
REMARK  Name = 
REMARK  6 active torsions:
REMARK  status: ('A' for Active; 'I' for Inactive)
REMARK    1  A    between atoms: C_1  and  C_2
REMARK    2  A    between atoms: C_4  and  C_5
REMARK    3  A    between atoms: N_10  and  C_11
REMARK    4  A    between atoms: N_14  and  S_15
REMARK    5  A    between atoms: S_15  and  C_16
REMARK    6  A    between atoms: C_22  and  C_23
REMARK                            x       y       z     vdW  Elec       q    Type
REMARK                         _______ _______ _______ _____ _____    ______ ____
ROOT
ATOM      1  C   UNL     1      -3.738  11.795  18.789  0.00  0.00    +0.000 A 
ATOM      2  C   UNL     1      -5.172  11.850  19.104  0.00  0.00    +0.000 A 
ATOM      3  C   UNL     1      -5.485  12.319  20.312  0.00  0.00    +0.000 A 
ATOM      4  C   UNL     1      -4.442  12.795  21.247  0.00  0.00    +0.000 A 
ATOM      5  O   UNL     1      -4.777  13.164  22.368  0.00  0.00    +0.000 OA
ATOM      6  N   UNL     1      -3.138  12.824  20.747  0.00  0.00    +0.000 N 
ATOM      7  N   UNL     1      -2.793  12.254  19.540  0.00  0.00    +0.000 NA
ENDROOT
BRANCH   1  11
ATOM      8  C   UNL     1      -3.618  10.100  13.970  0.00  0.00    +0.000 C 
ATOM      9  C   UNL     1      -3.403  10.463  15.383  0.00  0.00    +0.000 A 
ATOM     10  C   UNL     1      -4.151  11.155  16.308  0.00  0.00    +0.000 A 
ATOM     11  C   UNL     1      -3.396  11.185  17.520  0.00  0.00    +0.000 A 
ATOM     12  C   UNL     1      -2.227  10.489  17.235  0.00  0.00    +0.000 A 
ATOM     13  C   UNL     1      -1.030  10.096  18.012  0.00  0.00    +0.000 C 
ATOM     14  O   UNL     1      -2.236  10.056  15.943  0.00  0.00    +0.000 OA
ENDBRANCH   1  11
BRANCH   6  15
ATOM     15  C   UNL     1      -2.042  13.386  21.569  0.00  0.00    +0.000 C 
ATOM     16  C   UNL     1      -0.665  13.154  20.936  0.00  0.00    +0.000 C 
ATOM     17  C   UNL     1      -0.267  11.685  20.961  0.00  0.00    +0.000 C 
ATOM     18  N   UNL     1      -0.319  11.126  22.335  0.00  0.00    +0.000 NA
ATOM     19  C   UNL     1      -1.568  11.403  23.093  0.00  0.00    +0.000 C 
ATOM     20  C   UNL     1      -1.986  12.867  23.014  0.00  0.00    +0.000 C 
BRANCH  18  21
ATOM     21  S   UNL     1       0.261   9.524  22.485  0.00  0.00    +0.000 S 
ATOM     22  C   UNL     1       1.080   9.237  20.921  0.00  0.00    +0.000 C 
ATOM     23  O   UNL     1       1.266   9.500  23.529  0.00  0.00    +0.000 OA
ATOM     24  O   UNL     1      -0.886   8.647  22.536  0.00  0.00    +0.000 OA
ENDBRANCH  18  21
ENDBRANCH   6  15
TORSDOF 3
ENDMDL
MODEL 6
REMARK VINA RESULT:      -6.9      9.610     11.501
REMARK  Name = 
REMARK  6 active torsions:
REMARK  status: ('A' for Active; 'I' for Inactive)
REMARK    1  A    between atoms: C_1  and  C_2
REMARK    2  A    between atoms: C_4  and  C_5
REMARK    3  A    between atoms: N_10  and  C_11
REMARK    4  A    between atoms: N_14  and  S_15
REMARK    5  A    between atoms: S_15  and  C_16
REMARK    6  A    between atoms: C_22  and  C_23
REMARK                            x       y       z     vdW  Elec       q    Type
REMARK                         _______ _______ _______ _____ _____    ______ ____
ROOT
ATOM      1  C   UNL     1      -1.634  11.191  18.738  0.00  0.00    +0.000 A 
ATOM      2  C   UNL     1      -0.786  10.036  19.063  0.00  0.00    +0.000 A 
ATOM      3  C   UNL     1       0.121  10.232  20.020  0.00  0.00    +0.000 A 
ATOM      4  C   UNL     1       0.220  11.525  20.734  0.00  0.00    +0.000 A 
ATOM      5  O   UNL     1       1.108  11.672  21.569  0.00  0.00    +0.000 OA
ATOM      6  N   UNL     1      -0.756  12.473  20.422  0.00  0.00    +0.000 N 
ATOM      7  N   UNL     1      -1.634  12.317  19.370  0.00  0.00    +0.000 NA
ENDROOT
BRANCH   1  11
ATOM      8  C   UNL     1      -3.833  10.124  14.250  0.00  0.00    +0.000 C 
ATOM      9  C   UNL     1      -3.454  10.518  15.620  0.00  0.00    +0.000 A 
ATOM     10  C   UNL     1      -2.268  10.505  16.316  0.00  0.00    +0.000 A 
ATOM     11  C   UNL     1      -2.543  11.009  17.624  0.00  0.00    +0.000 A 
ATOM     12  C   UNL     1      -3.902  11.302  17.620  0.00  0.00    +0.000 A 
ATOM     13  C   UNL     1      -4.848  11.883  18.598  0.00  0.00    +0.000 C 
ATOM     14  O   UNL     1      -4.448  11.002  16.407  0.00  0.00    +0.000 OA
ENDBRANCH   1  11
BRANCH   6  15
ATOM     15  C   UNL     1      -0.806  13.756  21.161  0.00  0.00    +0.000 C 
ATOM     16  C   UNL     1      -0.873  13.549  22.679  0.00  0.00    +0.000 C 
ATOM     17  C   UNL     1      -2.207  12.958  23.114  0.00  0.00    +0.000 C 
ATOM     18  N   UNL     1      -3.351  13.776  22.640  0.00  0.00    +0.000 NA
ATOM     19  C   UNL     1      -3.321  14.146  21.200  0.00  0.00    +0.000 C 
ATOM     20  C   UNL     1      -1.964  14.685  20.764  0.00  0.00    +0.000 C 
BRANCH  18  21
ATOM     21  S   UNL     1      -4.883  13.276  23.213  0.00  0.00    +0.000 S 
ATOM     22  C   UNL     1      -4.490  12.404  24.725  0.00  0.00    +0.000 C 
ATOM     23  O   UNL     1      -5.646  14.458  23.562  0.00  0.00    +0.000 OA
ATOM     24  O   UNL     1      -5.401  12.303  22.279  0.00  0.00    +0.000 OA
ENDBRANCH  18  21
ENDBRANCH   6  15
TORSDOF 3
ENDMDL
MODEL 7
REMARK VINA RESULT:      -6.8      3.489      7.364
REMARK  Name = 
REMARK  6 active torsions:
REMARK  status: ('A' for Active; 'I' for Inactive)
REMARK    1  A    between atoms: C_1  and  C_2
REMARK    2  A    between atoms: C_4  and  C_5
REMARK    3  A    between atoms: N_10  and  C_11
REMARK    4  A    between atoms: N_14  and  S_15
REMARK    5  A    between atoms: S_15  and  C_16
REMARK    6  A    between atoms: C_22  and  C_23
REMARK                            x       y       z     vdW  Elec       q    Type
REMARK                         _______ _______ _______ _____ _____    ______ ____
ROOT
ATOM      1  C   UNL     1       1.720   6.787  19.918  0.00  0.00    +0.000 A 
ATOM      2  C   UNL     1       1.361   5.866  21.004  0.00  0.00    +0.000 A 
ATOM      3  C   UNL     1       1.580   4.573  20.767  0.00  0.00    +0.000 A 
ATOM      4  C   UNL     1       2.193   4.115  19.501  0.00  0.00    +0.000 A 
ATOM      5  O   UNL     1       2.322   2.909  19.308  0.00  0.00    +0.000 OA
ATOM      6  N   UNL     1       2.622   5.118  18.630  0.00  0.00    +0.000 N 
ATOM      7  N   UNL     1       2.314   6.449  18.822  0.00  0.00    +0.000 NA
ENDROOT
BRANCH   1  11
ATOM      8  C   UNL     1       0.226  11.294  21.805  0.00  0.00    +0.000 C 
ATOM      9  C   UNL     1       0.706  10.138  21.025  0.00  0.00    +0.000 A 
ATOM     10  C   UNL     1       0.854   8.800  21.308  0.00  0.00    +0.000 A 
ATOM     11  C   UNL     1       1.380   8.179  20.134  0.00  0.00    +0.000 A 
ATOM     12  C   UNL     1       1.507   9.206  19.207  0.00  0.00    +0.000 A 
ATOM     13  C   UNL     1       1.939   9.291  17.794  0.00  0.00    +0.000 C 
ATOM     14  O   UNL     1       1.099  10.388  19.751  0.00  0.00    +0.000 OA
ENDBRANCH   1  11
BRANCH   6  15
ATOM     15  C   UNL     1       3.346   4.763  17.387  0.00  0.00    +0.000 C 
ATOM     16  C   UNL     1       4.264   3.550  17.577  0.00  0.00    +0.000 C 
ATOM     17  C   UNL     1       5.452   3.871  18.474  0.00  0.00    +0.000 C 
ATOM     18  N   UNL     1       6.216   5.041  17.974  0.00  0.00    +0.000 NA
ATOM     19  C   UNL     1       5.404   6.239  17.634  0.00  0.00    +0.000 C 
ATOM     20  C   UNL     1       4.187   5.897  16.783  0.00  0.00    +0.000 C 
BRANCH  18  21
ATOM     21  S   UNL     1       7.658   5.380  18.830  0.00  0.00    +0.000 S 
ATOM     22  C   UNL     1       8.058   7.045  18.313  0.00  0.00    +0.000 C 
ATOM     23  O   UNL     1       7.351   5.412  20.246  0.00  0.00    +0.000 OA
ATOM     24  O   UNL     1       8.688   4.511  18.310  0.00  0.00    +0.000 OA
ENDBRANCH  18  21
ENDBRANCH   6  15
TORSDOF 3
ENDMDL
MODEL 8
REMARK VINA RESULT:      -6.8      3.190      5.884
REMARK  Name = 
REMARK  6 active torsions:
REMARK  status: ('A' for Active; 'I' for Inactive)
REMARK    1  A    between atoms: C_1  and  C_2
REMARK    2  A    between atoms: C_4  and  C_5
REMARK    3  A    between atoms: N_10  and  C_11
REMARK    4  A    between atoms: N_14  and  S_15
REMARK    5  A    between atoms: S_15  and  C_16
REMARK    6  A    between atoms: C_22  and  C_23
REMARK                            x       y       z     vdW  Elec       q    Type
REMARK                         _______ _______ _______ _____ _____    ______ ____
ROOT
ATOM      1  C   UNL     1       3.061   7.117  17.832  0.00  0.00    +0.000 A 
ATOM      2  C   UNL     1       4.404   7.458  17.343  0.00  0.00    +0.000 A 
ATOM      3  C   UNL     1       5.148   6.434  16.926  0.00  0.00    +0.000 A 
ATOM      4  C   UNL     1       4.621   5.052  16.917  0.00  0.00    +0.000 A 
ATOM      5  O   UNL     1       5.365   4.138  16.576  0.00  0.00    +0.000 OA
ATOM      6  N   UNL     1       3.276   4.907  17.264  0.00  0.00    +0.000 N 
ATOM      7  N   UNL     1       2.529   5.942  17.788  0.00  0.00    +0.000 NA
ENDROOT
BRANCH   1  11
ATOM      8  C   UNL     1       0.581  11.502  18.690  0.00  0.00    +0.000 C 
ATOM      9  C   UNL     1       1.219  10.172  18.704  0.00  0.00    +0.000 A 
ATOM     10  C   UNL     1       1.964   9.470  17.785  0.00  0.00    +0.000 A 
ATOM     11  C   UNL     1       2.295   8.217  18.386  0.00  0.00    +0.000 A 
ATOM     12  C   UNL     1       1.720   8.258  19.650  0.00  0.00    +0.000 A 
ATOM     13  C   UNL     1       1.690   7.344  20.814  0.00  0.00    +0.000 C 
ATOM     14  O   UNL     1       1.070   9.441  19.836  0.00  0.00    +0.000 OA
ENDBRANCH   1  11
BRANCH   6  15
ATOM     15  C   UNL     1       2.628   3.578  17.181  0.00  0.00    +0.000 C 
ATOM     16  C   UNL     1       1.248   3.562  17.848  0.00  0.00    +0.000 C 
ATOM     17  C   UNL     1       1.347   3.696  19.361  0.00  0.00    +0.000 C 
ATOM     18  N   UNL     1       2.231   2.658  19.948  0.00  0.00    +0.000 NA
ATOM     19  C   UNL     1       3.555   2.498  19.290  0.00  0.00    +0.000 C 
ATOM     20  C   UNL     1       3.447   2.421  17.772  0.00  0.00    +0.000 C 
BRANCH  18  21
ATOM     21  S   UNL     1       2.279   2.632  21.657  0.00  0.00    +0.000 S 
ATOM     22  C   UNL     1       2.575   4.344  22.085  0.00  0.00    +0.000 C 
ATOM     23  O   UNL     1       0.964   2.269  22.145  0.00  0.00    +0.000 OA
ATOM     24  O   UNL     1       3.452   1.884  22.049  0.00  0.00    +0.000 OA
ENDBRANCH  18  21
ENDBRANCH   6  15
TORSDOF 3
ENDMDL
MODEL 9
REMARK VINA RESULT:      -6.8      3.174      6.986
REMARK  Name = 
REMARK  6 active torsions:
REMARK  status: ('A' for Active; 'I' for Inactive)
REMARK    1  A    between atoms: C_1  and  C_2
REMARK    2  A    between atoms: C_4  and  C_5
REMARK    3  A    between atoms: N_10  and  C_11
REMARK    4  A    between atoms: N_14  and  S_15
REMARK    5  A    between atoms: S_15  and  C_16
REMARK    6  A    between atoms: C_22  and  C_23
REMARK                            x       y       z     vdW  Elec       q    Type
REMARK                         _______ _______ _______ _____ _____    ______ ____
ROOT
ATOM      1  C   UNL     1       2.038   6.124  19.575  0.00  0.00    +0.000 A 
ATOM      2  C   UNL     1       1.316   5.571  20.729  0.00  0.00    +0.000 A 
ATOM      3  C   UNL     1       1.350   4.244  20.855  0.00  0.00    +0.000 A 
ATOM      4  C   UNL     1       2.112   3.400  19.908  0.00  0.00    +0.000 A 
ATOM      5  O   UNL     1       2.065   2.180  20.034  0.00  0.00    +0.000 OA
ATOM      6  N   UNL     1       2.872   4.081  18.955  0.00  0.00    +0.000 N 
ATOM      7  N   UNL     1       2.768   5.442  18.757  0.00  0.00    +0.000 NA
ENDROOT
BRANCH   1  11
ATOM      8  C   UNL     1       2.019  10.904  17.769  0.00  0.00    +0.000 C 
ATOM      9  C   UNL     1       1.926   9.641  18.525  0.00  0.00    +0.000 A 
ATOM     10  C   UNL     1       2.230   8.333  18.226  0.00  0.00    +0.000 A 
ATOM     11  C   UNL     1       1.909   7.554  19.380  0.00  0.00    +0.000 A 
ATOM     12  C   UNL     1       1.431   8.468  20.311  0.00  0.00    +0.000 A 
ATOM     13  C   UNL     1       0.961   8.382  21.713  0.00  0.00    +0.000 C 
ATOM     14  O   UNL     1       1.442   9.727  19.789  0.00  0.00    +0.000 OA
ENDBRANCH   1  11
BRANCH   6  15
ATOM     15  C   UNL     1       3.754   3.328  18.033  0.00  0.00    +0.000 C 
ATOM     16  C   UNL     1       5.167   3.148  18.599  0.00  0.00    +0.000 C 
ATOM     17  C   UNL     1       5.930   4.464  18.654  0.00  0.00    +0.000 C 
ATOM     18  N   UNL     1       5.971   5.129  17.328  0.00  0.00    +0.000 NA
ATOM     19  C   UNL     1       4.665   5.243  16.627  0.00  0.00    +0.000 C 
ATOM     20  C   UNL     1       3.886   3.933  16.628  0.00  0.00    +0.000 C 
BRANCH  18  21
ATOM     21  S   UNL     1       6.940   6.537  17.256  0.00  0.00    +0.000 S 
ATOM     22  C   UNL     1       7.950   6.415  18.728  0.00  0.00    +0.000 C 
ATOM     23  O   UNL     1       7.813   6.431  16.104  0.00  0.00    +0.000 OA
ATOM     24  O   UNL     1       6.068   7.676  17.429  0.00  0.00    +0.000 OA
ENDBRANCH  18  21
ENDBRANCH   6  15
TORSDOF 3
ENDMDL
