MODEL 1
REMARK VINA RESULT:      -7.8      0.000      0.000
REMARK  Name = 
REMARK  4 active torsions:
REMARK  status: ('A' for Active; 'I' for Inactive)
REMARK    1  A    between atoms: C_2  and  C_3
REMARK    2  A    between atoms: C_3  and  C_4
REMARK    3  A    between atoms: C_15  and  N_16
REMARK    4  A    between atoms: N_19  and  C_20
REMARK                            x       y       z     vdW  Elec       q    Type
REMARK                         _______ _______ _______ _____ _____    ______ ____
ROOT
ATOM      1  C   UNL     1       1.643   4.224  18.115  0.00  0.00    +0.000 C 
ATOM      2  C   UNL     1       3.007   3.646  17.708  0.00  0.00    +0.000 C 
ATOM      3  C   UNL     1       4.172   4.594  17.828  0.00  0.00    +0.000 A 
ATOM      4  C   UNL     1       5.476   4.087  18.023  0.00  0.00    +0.000 A 
ATOM      5  C   UNL     1       6.572   4.956  18.138  0.00  0.00    +0.000 A 
ATOM      6  C   UNL     1       6.394   6.302  17.980  0.00  0.00    +0.000 A 
ATOM      7  C   UNL     1       5.086   6.834  17.762  0.00  0.00    +0.000 A 
ATOM      8  C   UNL     1       3.984   5.980  17.746  0.00  0.00    +0.000 A 
ATOM      9  C   UNL     1       2.586   6.526  18.159  0.00  0.00    +0.000 C 
ATOM     10  C   UNL     1       2.790   6.658  19.647  0.00  0.00    +0.000 C 
ATOM     11  C   UNL     1       1.647   7.290  20.372  0.00  0.00    +0.000 C 
ATOM     12  C   UNL     1       1.009   8.596  19.925  0.00  0.00    +0.000 C 
ATOM     13  C   UNL     1       1.073   8.712  18.383  0.00  0.00    +0.000 C 
ATOM     14  C   UNL     1       2.191   7.940  17.626  0.00  0.00    +0.000 C 
ATOM     15  O   UNL     1       1.510   5.630  17.816  0.00  0.00    +0.000 OA
ENDROOT
BRANCH  12  16
ATOM     16  N   UNL     1       1.414   9.628  20.914  0.00  0.00    +0.000 NA
ATOM     17  C   UNL     1       1.214  11.042  20.610  0.00  0.00    +0.000 C 
ATOM     18  C   UNL     1      -0.237  11.500  20.780  0.00  0.00    +0.000 C 
ATOM     19  N   UNL     1      -0.908  11.096  22.021  0.00  0.00    +0.000 NA
ATOM     20  C   UNL     1      -0.419   9.824  22.603  0.00  0.00    +0.000 C 
ATOM     21  C   UNL     1       1.034   9.424  22.310  0.00  0.00    +0.000 C 
BRANCH  19  22
ATOM     22  C   UNL     1      -1.193  12.123  23.034  0.00  0.00    +0.000 C 
ATOM     23  C   UNL     1      -0.888  13.588  22.658  0.00  0.00    +0.000 C 
ATOM     24  C   UNL     1      -1.709  14.073  21.465  0.00  0.00    +0.000 C 
ATOM     25  C   UNL     1      -3.207  13.907  21.702  0.00  0.00    +0.000 C 
ATOM     26  C   UNL     1      -3.590  12.525  22.218  0.00  0.00    +0.000 C 
ATOM     27  C   UNL     1      -2.701  12.072  23.379  0.00  0.00    +0.000 C 
ENDBRANCH  19  22
ENDBRANCH  12  16
BRANCH   1  28
ATOM     28  C   UNL     1       1.155   3.888  19.544  0.00  0.00    +0.000 C 
BRANCH  28  30
ATOM     29  F   UNL     1       2.207   3.594  21.625  0.00  0.00    +0.000 F 
ATOM     30  C   UNL     1       2.107   3.064  20.384  0.00  0.00    +0.000 C 
ENDBRANCH  28  30
ENDBRANCH   1  28
TORSDOF 4
ENDMDL
MODEL 2
REMARK VINA RESULT:      -7.4      2.251      3.936
REMARK  Name = 
REMARK  4 active torsions:
REMARK  status: ('A' for Active; 'I' for Inactive)
REMARK    1  A    between atoms: C_2  and  C_3
REMARK    2  A    between atoms: C_3  and  C_4
REMARK    3  A    between atoms: C_15  and  N_16
REMARK    4  A    between atoms: N_19  and  C_20
REMARK                            x       y       z     vdW  Elec       q    Type
REMARK                         _______ _______ _______ _____ _____    ______ ____
ROOT
ATOM      1  C   UNL     1       5.189   5.487  18.782  0.00  0.00    +0.000 C 
ATOM      2  C   UNL     1       4.958   3.995  18.495  0.00  0.00    +0.000 C 
ATOM      3  C   UNL     1       3.521   3.543  18.550  0.00  0.00    +0.000 A 
ATOM      4  C   UNL     1       3.109   2.414  17.808  0.00  0.00    +0.000 A 
ATOM      5  C   UNL     1       1.776   1.979  17.848  0.00  0.00    +0.000 A 
ATOM      6  C   UNL     1       0.881   2.600  18.673  0.00  0.00    +0.000 A 
ATOM      7  C   UNL     1       1.282   3.732  19.448  0.00  0.00    +0.000 A 
ATOM      8  C   UNL     1       2.581   4.224  19.334  0.00  0.00    +0.000 A 
ATOM      9  C   UNL     1       2.855   5.732  19.609  0.00  0.00    +0.000 C 
ATOM     10  C   UNL     1       2.239   6.336  18.373  0.00  0.00    +0.000 C 
ATOM     11  C   UNL     1       2.217   7.830  18.363  0.00  0.00    +0.000 C 
ATOM     12  C   UNL     1       1.695   8.654  19.529  0.00  0.00    +0.000 C 
ATOM     13  C   UNL     1       1.980   7.919  20.861  0.00  0.00    +0.000 C 
ATOM     14  C   UNL     1       2.132   6.371  20.838  0.00  0.00    +0.000 C 
ATOM     15  O   UNL     1       4.259   6.031  19.743  0.00  0.00    +0.000 OA
ENDROOT
BRANCH  12  16
ATOM     16  N   UNL     1       0.401   9.239  19.092  0.00  0.00    +0.000 NA
ATOM     17  C   UNL     1      -0.568   9.682  20.090  0.00  0.00    +0.000 C 
ATOM     18  C   UNL     1      -0.215  11.030  20.723  0.00  0.00    +0.000 C 
ATOM     19  N   UNL     1       0.167  12.105  19.801  0.00  0.00    +0.000 NA
ATOM     20  C   UNL     1       0.801  11.644  18.542  0.00  0.00    +0.000 C 
ATOM     21  C   UNL     1       0.428  10.245  18.033  0.00  0.00    +0.000 C 
BRANCH  19  22
ATOM     22  C   UNL     1      -0.763  13.226  19.602  0.00  0.00    +0.000 C 
ATOM     23  C   UNL     1      -1.341  13.895  20.866  0.00  0.00    +0.000 C 
ATOM     24  C   UNL     1      -0.261  14.521  21.747  0.00  0.00    +0.000 C 
ATOM     25  C   UNL     1       0.585  15.530  20.976  0.00  0.00    +0.000 C 
ATOM     26  C   UNL     1       1.084  15.003  19.635  0.00  0.00    +0.000 C 
ATOM     27  C   UNL     1      -0.032  14.343  18.820  0.00  0.00    +0.000 C 
ENDBRANCH  19  22
ENDBRANCH  12  16
BRANCH   1  28
ATOM     28  C   UNL     1       5.349   6.406  17.548  0.00  0.00    +0.000 C 
BRANCH  28  30
ATOM     29  F   UNL     1       4.980   6.612  15.236  0.00  0.00    +0.000 F 
ATOM     30  C   UNL     1       5.279   5.714  16.204  0.00  0.00    +0.000 C 
ENDBRANCH  28  30
ENDBRANCH   1  28
TORSDOF 4
ENDMDL
MODEL 3
REMARK VINA RESULT:      -7.3      3.219      9.003
REMARK  Name = 
REMARK  4 active torsions:
REMARK  status: ('A' for Active; 'I' for Inactive)
REMARK    1  A    between atoms: C_2  and  C_3
REMARK    2  A    between atoms: C_3  and  C_4
REMARK    3  A    between atoms: C_15  and  N_16
REMARK    4  A    between atoms: N_19  and  C_20
REMARK                            x       y       z     vdW  Elec       q    Type
REMARK                         _______ _______ _______ _____ _____    ______ ____
ROOT
ATOM      1  C   UNL     1      -0.075  12.019  20.689  0.00  0.00    +0.000 C 
ATOM      2  C   UNL     1      -1.434  12.442  20.110  0.00  0.00    +0.000 C 
ATOM      3  C   UNL     1      -1.987  11.541  19.036  0.00  0.00    +0.000 A 
ATOM      4  C   UNL     1      -3.381  11.477  18.820  0.00  0.00    +0.000 A 
ATOM      5  C   UNL     1      -3.913  10.642  17.825  0.00  0.00    +0.000 A 
ATOM      6  C   UNL     1      -3.075   9.944  17.001  0.00  0.00    +0.000 A 
ATOM      7  C   UNL     1      -1.660  10.011  17.190  0.00  0.00    +0.000 A 
ATOM      8  C   UNL     1      -1.136  10.763  18.240  0.00  0.00    +0.000 A 
ATOM      9  C   UNL     1       0.234  10.361  18.860  0.00  0.00    +0.000 C 
ATOM     10  C   UNL     1      -0.175   9.118  19.609  0.00  0.00    +0.000 C 
ATOM     11  C   UNL     1       0.958   8.381  20.245  0.00  0.00    +0.000 C 
ATOM     12  C   UNL     1       2.225   8.010  19.492  0.00  0.00    +0.000 C 
ATOM     13  C   UNL     1       2.539   9.088  18.427  0.00  0.00    +0.000 C 
ATOM     14  C   UNL     1       1.366   9.943  17.867  0.00  0.00    +0.000 C 
ATOM     15  O   UNL     1       0.782  11.381  19.718  0.00  0.00    +0.000 OA
ENDROOT
BRANCH  12  16
ATOM     16  N   UNL     1       2.184   6.539  19.287  0.00  0.00    +0.000 NA
ATOM     17  C   UNL     1       2.175   5.996  17.931  0.00  0.00    +0.000 C 
ATOM     18  C   UNL     1       3.551   6.014  17.261  0.00  0.00    +0.000 C 
ATOM     19  N   UNL     1       4.672   5.505  18.058  0.00  0.00    +0.000 NA
ATOM     20  C   UNL     1       4.516   5.672  19.522  0.00  0.00    +0.000 C 
ATOM     21  C   UNL     1       3.087   5.711  20.082  0.00  0.00    +0.000 C 
BRANCH  19  22
ATOM     22  C   UNL     1       5.275   4.217  17.684  0.00  0.00    +0.000 C 
ATOM     23  C   UNL     1       4.958   3.673  16.276  0.00  0.00    +0.000 C 
ATOM     24  C   UNL     1       5.450   4.596  15.163  0.00  0.00    +0.000 C 
ATOM     25  C   UNL     1       6.946   4.877  15.278  0.00  0.00    +0.000 C 
ATOM     26  C   UNL     1       7.379   5.283  16.682  0.00  0.00    +0.000 C 
ATOM     27  C   UNL     1       6.815   4.351  17.757  0.00  0.00    +0.000 C 
ENDBRANCH  19  22
ENDBRANCH  12  16
BRANCH   1  28
ATOM     28  C   UNL     1      -0.112  11.242  22.026  0.00  0.00    +0.000 C 
BRANCH  28  30
ATOM     29  F   UNL     1      -1.318  12.689  23.431  0.00  0.00    +0.000 F 
ATOM     30  C   UNL     1      -1.348  11.456  22.874  0.00  0.00    +0.000 C 
ENDBRANCH  28  30
ENDBRANCH   1  28
TORSDOF 4
ENDMDL
MODEL 4
REMARK VINA RESULT:      -6.8      6.627     11.118
REMARK  Name = 
REMARK  4 active torsions:
REMARK  status: ('A' for Active; 'I' for Inactive)
REMARK    1  A    between atoms: C_2  and  C_3
REMARK    2  A    between atoms: C_3  and  C_4
REMARK    3  A    between atoms: C_15  and  N_16
REMARK    4  A    between atoms: N_19  and  C_20
REMARK                            x       y       z     vdW  Elec       q    Type
REMARK                         _______ _______ _______ _____ _____    ______ ____
ROOT
ATOM      1  C   UNL     1       0.962  13.603  19.645  0.00  0.00    +0.000 C 
ATOM      2  C   UNL     1      -0.222  14.522  19.308  0.00  0.00    +0.000 C 
ATOM      3  C   UNL     1       0.140  15.947  18.979  0.00  0.00    +0.000 A 
ATOM      4  C   UNL     1      -0.710  16.718  18.155  0.00  0.00    +0.000 A 
ATOM      5  C   UNL     1      -0.387  18.046  17.837  0.00  0.00    +0.000 A 
ATOM      6  C   UNL     1       0.717  18.631  18.393  0.00  0.00    +0.000 A 
ATOM      7  C   UNL     1       1.579  17.875  19.245  0.00  0.00    +0.000 A 
ATOM      8  C   UNL     1       1.312  16.527  19.482  0.00  0.00    +0.000 A 
ATOM      9  C   UNL     1       2.486  15.562  19.818  0.00  0.00    +0.000 C 
ATOM     10  C   UNL     1       3.137  15.463  18.462  0.00  0.00    +0.000 C 
ATOM     11  C   UNL     1       4.410  14.683  18.444  0.00  0.00    +0.000 C 
ATOM     12  C   UNL     1       5.543  14.932  19.427  0.00  0.00    +0.000 C 
ATOM     13  C   UNL     1       4.966  15.392  20.788  0.00  0.00    +0.000 C 
ATOM     14  C   UNL     1       3.575  16.087  20.809  0.00  0.00    +0.000 C 
ATOM     15  O   UNL     1       2.038  14.288  20.322  0.00  0.00    +0.000 OA
ENDROOT
BRANCH  12  16
ATOM     16  N   UNL     1       6.639  15.576  18.660  0.00  0.00    +0.000 NA
ATOM     17  C   UNL     1       7.799  16.116  19.365  0.00  0.00    +0.000 C 
ATOM     18  C   UNL     1       8.792  15.040  19.811  0.00  0.00    +0.000 C 
ATOM     19  N   UNL     1       9.167  14.040  18.805  0.00  0.00    +0.000 NA
ATOM     20  C   UNL     1       8.125  13.765  17.788  0.00  0.00    +0.000 C 
ATOM     21  C   UNL     1       7.133  14.893  17.467  0.00  0.00    +0.000 C 
BRANCH  19  22
ATOM     22  C   UNL     1      10.525  14.080  18.244  0.00  0.00    +0.000 C 
ATOM     23  C   UNL     1      11.701  14.074  19.243  0.00  0.00    +0.000 C 
ATOM     24  C   UNL     1      11.741  12.809  20.098  0.00  0.00    +0.000 C 
ATOM     25  C   UNL     1      11.790  11.546  19.242  0.00  0.00    +0.000 C 
ATOM     26  C   UNL     1      10.750  11.529  18.127  0.00  0.00    +0.000 C 
ATOM     27  C   UNL     1      10.723  12.841  17.338  0.00  0.00    +0.000 C 
ENDBRANCH  19  22
ENDBRANCH  12  16
BRANCH   1  28
ATOM     28  C   UNL     1       1.480  12.704  18.498  0.00  0.00    +0.000 C 
BRANCH  28  30
ATOM     29  F   UNL     1       2.180  10.574  17.793  0.00  0.00    +0.000 F 
ATOM     30  C   UNL     1       1.587  11.229  18.818  0.00  0.00    +0.000 C 
ENDBRANCH  28  30
ENDBRANCH   1  28
TORSDOF 4
ENDMDL
MODEL 5
REMARK VINA RESULT:      -6.5      3.040      8.623
REMARK  Name = 
REMARK  4 active torsions:
REMARK  status: ('A' for Active; 'I' for Inactive)
REMARK    1  A    between atoms: C_2  and  C_3
REMARK    2  A    between atoms: C_3  and  C_4
REMARK    3  A    between atoms: C_15  and  N_16
REMARK    4  A    between atoms: N_19  and  C_20
REMARK                            x       y       z     vdW  Elec       q    Type
REMARK                         _______ _______ _______ _____ _____    ______ ____
ROOT
ATOM      1  C   UNL     1       0.579  12.428  19.636  0.00  0.00    +0.000 C 
ATOM      2  C   UNL     1      -0.817  12.866  19.165  0.00  0.00    +0.000 C 
ATOM      3  C   UNL     1      -1.663  11.778  18.556  0.00  0.00    +0.000 A 
ATOM      4  C   UNL     1      -3.072  11.878  18.592  0.00  0.00    +0.000 A 
ATOM      5  C   UNL     1      -3.875  10.873  18.032  0.00  0.00    +0.000 A 
ATOM      6  C   UNL     1      -3.296   9.826  17.372  0.00  0.00    +0.000 A 
ATOM      7  C   UNL     1      -1.873   9.716  17.306  0.00  0.00    +0.000 A 
ATOM      8  C   UNL     1      -1.074  10.662  17.948  0.00  0.00    +0.000 A 
ATOM      9  C   UNL     1       0.343  10.255  18.447  0.00  0.00    +0.000 C 
ATOM     10  C   UNL     1      -0.035   9.393  19.625  0.00  0.00    +0.000 C 
ATOM     11  C   UNL     1       1.119   8.716  20.289  0.00  0.00    +0.000 C 
ATOM     12  C   UNL     1       2.165   7.926  19.520  0.00  0.00    +0.000 C 
ATOM     13  C   UNL     1       2.370   8.552  18.118  0.00  0.00    +0.000 C 
ATOM     14  C   UNL     1       1.204   9.368  17.492  0.00  0.00    +0.000 C 
ATOM     15  O   UNL     1       1.154  11.388  18.817  0.00  0.00    +0.000 OA
ENDROOT
BRANCH  12  16
ATOM     16  N   UNL     1       1.931   6.493  19.831  0.00  0.00    +0.000 NA
ATOM     17  C   UNL     1       1.432   5.597  18.791  0.00  0.00    +0.000 C 
ATOM     18  C   UNL     1       2.509   5.167  17.792  0.00  0.00    +0.000 C 
ATOM     19  N   UNL     1       3.781   4.707  18.361  0.00  0.00    +0.000 NA
ATOM     20  C   UNL     1       4.127   5.310  19.670  0.00  0.00    +0.000 C 
ATOM     21  C   UNL     1       2.969   5.773  20.565  0.00  0.00    +0.000 C 
BRANCH  19  22
ATOM     22  C   UNL     1       4.113   3.277  18.279  0.00  0.00    +0.000 C 
ATOM     23  C   UNL     1       4.224   2.502  19.609  0.00  0.00    +0.000 C 
ATOM     24  C   UNL     1       2.913   2.486  20.392  0.00  0.00    +0.000 C 
ATOM     25  C   UNL     1       1.764   1.919  19.564  0.00  0.00    +0.000 C 
ATOM     26  C   UNL     1       1.665   2.526  18.169  0.00  0.00    +0.000 C 
ATOM     27  C   UNL     1       3.018   2.561  17.453  0.00  0.00    +0.000 C 
ENDBRANCH  19  22
ENDBRANCH  12  16
BRANCH   1  28
ATOM     28  C   UNL     1       0.729  12.125  21.145  0.00  0.00    +0.000 C 
BRANCH  28  30
ATOM     29  F   UNL     1      -1.300  11.291  21.990  0.00  0.00    +0.000 F 
ATOM     30  C   UNL     1      -0.500  12.383  21.990  0.00  0.00    +0.000 C 
ENDBRANCH  28  30
ENDBRANCH   1  28
TORSDOF 4
ENDMDL
MODEL 6
REMARK VINA RESULT:      -6.5      2.161      3.803
REMARK  Name = 
REMARK  4 active torsions:
REMARK  status: ('A' for Active; 'I' for Inactive)
REMARK    1  A    between atoms: C_2  and  C_3
REMARK    2  A    between atoms: C_3  and  C_4
REMARK    3  A    between atoms: C_15  and  N_16
REMARK    4  A    between atoms: N_19  and  C_20
REMARK                            x       y       z     vdW  Elec       q    Type
REMARK                         _______ _______ _______ _____ _____    ______ ____
ROOT
ATOM      1  C   UNL     1       5.234   4.920  19.224  0.00  0.00    +0.000 C 
ATOM      2  C   UNL     1       4.906   3.458  18.882  0.00  0.00    +0.000 C 
ATOM      3  C   UNL     1       3.438   3.130  18.793  0.00  0.00    +0.000 A 
ATOM      4  C   UNL     1       3.005   2.051  17.989  0.00  0.00    +0.000 A 
ATOM      5  C   UNL     1       1.642   1.733  17.894  0.00  0.00    +0.000 A 
ATOM      6  C   UNL     1       0.728   2.416  18.647  0.00  0.00    +0.000 A 
ATOM      7  C   UNL     1       1.148   3.497  19.481  0.00  0.00    +0.000 A 
ATOM      8  C   UNL     1       2.489   3.878  19.501  0.00  0.00    +0.000 A 
ATOM      9  C   UNL     1       2.861   5.351  19.835  0.00  0.00    +0.000 C 
ATOM     10  C   UNL     1       2.418   6.025  18.561  0.00  0.00    +0.000 C 
ATOM     11  C   UNL     1       2.523   7.515  18.584  0.00  0.00    +0.000 C 
ATOM     12  C   UNL     1       1.964   8.364  19.715  0.00  0.00    +0.000 C 
ATOM     13  C   UNL     1       2.057   7.587  21.050  0.00  0.00    +0.000 C 
ATOM     14  C   UNL     1       2.081   6.032  21.006  0.00  0.00    +0.000 C 
ATOM     15  O   UNL     1       4.266   5.527  20.106  0.00  0.00    +0.000 OA
ENDROOT
BRANCH  12  16
ATOM     16  N   UNL     1       0.771   9.064  19.172  0.00  0.00    +0.000 NA
ATOM     17  C   UNL     1      -0.205   9.649  20.087  0.00  0.00    +0.000 C 
ATOM     18  C   UNL     1       0.253  10.976  20.696  0.00  0.00    +0.000 C 
ATOM     19  N   UNL     1       0.806  11.966  19.764  0.00  0.00    +0.000 NA
ATOM     20  C   UNL     1       1.463  11.388  18.568  0.00  0.00    +0.000 C 
ATOM     21  C   UNL     1       0.973  10.016  18.083  0.00  0.00    +0.000 C 
BRANCH  19  22
ATOM     22  C   UNL     1       0.017  13.170  19.465  0.00  0.00    +0.000 C 
ATOM     23  C   UNL     1      -0.806  13.166  18.160  0.00  0.00    +0.000 C 
ATOM     24  C   UNL     1      -1.868  12.068  18.137  0.00  0.00    +0.000 C 
ATOM     25  C   UNL     1      -2.808  12.163  19.335  0.00  0.00    +0.000 C 
ATOM     26  C   UNL     1      -2.081  12.317  20.666  0.00  0.00    +0.000 C 
ATOM     27  C   UNL     1      -0.996  13.396  20.613  0.00  0.00    +0.000 C 
ENDBRANCH  19  22
ENDBRANCH  12  16
BRANCH   1  28
ATOM     28  C   UNL     1       5.587   5.840  18.032  0.00  0.00    +0.000 C 
BRANCH  28  30
ATOM     29  F   UNL     1       4.560   5.108  16.049  0.00  0.00    +0.000 F 
ATOM     30  C   UNL     1       5.748   5.147  16.696  0.00  0.00    +0.000 C 
ENDBRANCH  28  30
ENDBRANCH   1  28
TORSDOF 4
ENDMDL
MODEL 7
REMARK VINA RESULT:      -6.2      4.462      6.832
REMARK  Name = 
REMARK  4 active torsions:
REMARK  status: ('A' for Active; 'I' for Inactive)
REMARK    1  A    between atoms: C_2  and  C_3
REMARK    2  A    between atoms: C_3  and  C_4
REMARK    3  A    between atoms: C_15  and  N_16
REMARK    4  A    between atoms: N_19  and  C_20
REMARK                            x       y       z     vdW  Elec       q    Type
REMARK                         _______ _______ _______ _____ _____    ______ ____
ROOT
ATOM      1  C   UNL     1       0.347  10.026  19.530  0.00  0.00    +0.000 C 
ATOM      2  C   UNL     1       1.386  10.725  18.639  0.00  0.00    +0.000 C 
ATOM      3  C   UNL     1       1.390  12.230  18.713  0.00  0.00    +0.000 A 
ATOM      4  C   UNL     1       2.571  12.947  18.414  0.00  0.00    +0.000 A 
ATOM      5  C   UNL     1       2.593  14.348  18.479  0.00  0.00    +0.000 A 
ATOM      6  C   UNL     1       1.444  15.036  18.753  0.00  0.00    +0.000 A 
ATOM      7  C   UNL     1       0.234  14.331  19.039  0.00  0.00    +0.000 A 
ATOM      8  C   UNL     1       0.235  12.937  19.071  0.00  0.00    +0.000 A 
ATOM      9  C   UNL     1      -0.796  12.192  19.968  0.00  0.00    +0.000 C 
ATOM     10  C   UNL     1      -0.214  12.484  21.328  0.00  0.00    +0.000 C 
ATOM     11  C   UNL     1      -1.048  12.002  22.471  0.00  0.00    +0.000 C 
ATOM     12  C   UNL     1      -2.535  12.295  22.587  0.00  0.00    +0.000 C 
ATOM     13  C   UNL     1      -3.169  12.364  21.176  0.00  0.00    +0.000 C 
ATOM     14  C   UNL     1      -2.259  12.739  19.971  0.00  0.00    +0.000 C 
ATOM     15  O   UNL     1      -0.874  10.782  19.680  0.00  0.00    +0.000 OA
ENDROOT
BRANCH  12  16
ATOM     16  N   UNL     1      -2.690  13.284  23.684  0.00  0.00    +0.000 NA
ATOM     17  C   UNL     1      -2.307  14.676  23.465  0.00  0.00    +0.000 C 
ATOM     18  C   UNL     1      -3.335  15.468  22.654  0.00  0.00    +0.000 C 
ATOM     19  N   UNL     1      -4.736  15.335  23.067  0.00  0.00    +0.000 NA
ATOM     20  C   UNL     1      -5.074  14.037  23.698  0.00  0.00    +0.000 C 
ATOM     21  C   UNL     1      -3.948  13.290  24.427  0.00  0.00    +0.000 C 
BRANCH  19  22
ATOM     22  C   UNL     1      -5.392  16.480  23.715  0.00  0.00    +0.000 C 
ATOM     23  C   UNL     1      -5.092  17.881  23.143  0.00  0.00    +0.000 C 
ATOM     24  C   UNL     1      -5.537  18.031  21.690  0.00  0.00    +0.000 C 
ATOM     25  C   UNL     1      -7.019  17.715  21.515  0.00  0.00    +0.000 C 
ATOM     26  C   UNL     1      -7.443  16.409  22.179  0.00  0.00    +0.000 C 
ATOM     27  C   UNL     1      -6.925  16.294  23.615  0.00  0.00    +0.000 C 
ENDBRANCH  19  22
ENDBRANCH  12  16
BRANCH   1  28
ATOM     28  C   UNL     1       0.861   9.483  20.885  0.00  0.00    +0.000 C 
BRANCH  28  30
ATOM     29  F   UNL     1      -0.817   8.834  22.396  0.00  0.00    +0.000 F 
ATOM     30  C   UNL     1       0.057   8.350  21.483  0.00  0.00    +0.000 C 
ENDBRANCH  28  30
ENDBRANCH   1  28
TORSDOF 4
ENDMDL
MODEL 8
REMARK VINA RESULT:      -6.1      3.039      8.492
REMARK  Name = 
REMARK  4 active torsions:
REMARK  status: ('A' for Active; 'I' for Inactive)
REMARK    1  A    between atoms: C_2  and  C_3
REMARK    2  A    between atoms: C_3  and  C_4
REMARK    3  A    between atoms: C_15  and  N_16
REMARK    4  A    between atoms: N_19  and  C_20
REMARK                            x       y       z     vdW  Elec       q    Type
REMARK                         _______ _______ _______ _____ _____    ______ ____
ROOT
ATOM      1  C   UNL     1      -1.654  11.551  18.800  0.00  0.00    +0.000 C 
ATOM      2  C   UNL     1      -1.179  13.011  18.720  0.00  0.00    +0.000 C 
ATOM      3  C   UNL     1       0.241  13.253  19.160  0.00  0.00    +0.000 A 
ATOM      4  C   UNL     1       0.959  14.357  18.649  0.00  0.00    +0.000 A 
ATOM      5  C   UNL     1       2.283  14.596  19.047  0.00  0.00    +0.000 A 
ATOM      6  C   UNL     1       2.862  13.805  19.999  0.00  0.00    +0.000 A 
ATOM      7  C   UNL     1       2.146  12.695  20.544  0.00  0.00    +0.000 A 
ATOM      8  C   UNL     1       0.867  12.398  20.077  0.00  0.00    +0.000 A 
ATOM      9  C   UNL     1       0.352  10.930  20.134  0.00  0.00    +0.000 C 
ATOM     10  C   UNL     1       1.180  10.323  19.029  0.00  0.00    +0.000 C 
ATOM     11  C   UNL     1       1.023   8.845  18.882  0.00  0.00    +0.000 C 
ATOM     12  C   UNL     1       1.134   7.884  20.055  0.00  0.00    +0.000 C 
ATOM     13  C   UNL     1       0.617   8.567  21.345  0.00  0.00    +0.000 C 
ATOM     14  C   UNL     1       0.663  10.119  21.433  0.00  0.00    +0.000 C 
ATOM     15  O   UNL     1      -1.065  10.823  19.899  0.00  0.00    +0.000 OA
ENDROOT
BRANCH  12  16
ATOM     16  N   UNL     1       2.415   7.152  19.886  0.00  0.00    +0.000 NA
ATOM     17  C   UNL     1       2.554   5.800  20.420  0.00  0.00    +0.000 C 
ATOM     18  C   UNL     1       1.873   4.734  19.559  0.00  0.00    +0.000 C 
ATOM     19  N   UNL     1       2.136   4.792  18.117  0.00  0.00    +0.000 NA
ATOM     20  C   UNL     1       2.423   6.150  17.596  0.00  0.00    +0.000 C 
ATOM     21  C   UNL     1       3.042   7.166  18.567  0.00  0.00    +0.000 C 
BRANCH  19  22
ATOM     22  C   UNL     1       2.980   3.752  17.512  0.00  0.00    +0.000 C 
ATOM     23  C   UNL     1       4.501   3.849  17.755  0.00  0.00    +0.000 C 
ATOM     24  C   UNL     1       4.869   3.747  19.234  0.00  0.00    +0.000 C 
ATOM     25  C   UNL     1       4.331   2.466  19.865  0.00  0.00    +0.000 C 
ATOM     26  C   UNL     1       2.861   2.209  19.556  0.00  0.00    +0.000 C 
ATOM     27  C   UNL     1       2.543   2.375  18.067  0.00  0.00    +0.000 C 
ENDBRANCH  19  22
ENDBRANCH  12  16
BRANCH   1  28
ATOM     28  C   UNL     1      -1.611  10.744  17.482  0.00  0.00    +0.000 C 
BRANCH  28  30
ATOM     29  F   UNL     1      -3.351   9.209  17.854  0.00  0.00    +0.000 F 
ATOM     30  C   UNL     1      -2.937  10.185  17.013  0.00  0.00    +0.000 C 
ENDBRANCH  28  30
ENDBRANCH   1  28
TORSDOF 4
ENDMDL
MODEL 9
REMARK VINA RESULT:      -6.0      1.432      2.083
REMARK  Name = 
REMARK  4 active torsions:
REMARK  status: ('A' for Active; 'I' for Inactive)
REMARK    1  A    between atoms: C_2  and  C_3
REMARK    2  A    between atoms: C_3  and  C_4
REMARK    3  A    between atoms: C_15  and  N_16
REMARK    4  A    between atoms: N_19  and  C_20
REMARK                            x       y       z     vdW  Elec       q    Type
REMARK                         _______ _______ _______ _____ _____    ______ ____
ROOT
ATOM      1  C   UNL     1       1.706   4.275  18.788  0.00  0.00    +0.000 C 
ATOM      2  C   UNL     1       3.064   3.622  18.490  0.00  0.00    +0.000 C 
ATOM      3  C   UNL     1       4.216   4.578  18.317  0.00  0.00    +0.000 A 
ATOM      4  C   UNL     1       5.535   4.148  18.584  0.00  0.00    +0.000 A 
ATOM      5  C   UNL     1       6.619   5.026  18.429  0.00  0.00    +0.000 A 
ATOM      6  C   UNL     1       6.412   6.285  17.939  0.00  0.00    +0.000 A 
ATOM      7  C   UNL     1       5.087   6.733  17.644  0.00  0.00    +0.000 A 
ATOM      8  C   UNL     1       4.001   5.895  17.890  0.00  0.00    +0.000 A 
ATOM      9  C   UNL     1       2.609   6.518  18.205  0.00  0.00    +0.000 C 
ATOM     10  C   UNL     1       2.865   7.030  19.600  0.00  0.00    +0.000 C 
ATOM     11  C   UNL     1       1.738   7.817  20.183  0.00  0.00    +0.000 C 
ATOM     12  C   UNL     1       1.061   8.960  19.443  0.00  0.00    +0.000 C 
ATOM     13  C   UNL     1       1.067   8.677  17.921  0.00  0.00    +0.000 C 
ATOM     14  C   UNL     1       2.170   7.746  17.343  0.00  0.00    +0.000 C 
ATOM     15  O   UNL     1       1.538   5.556  18.145  0.00  0.00    +0.000 OA
ENDROOT
BRANCH  12  16
ATOM     16  N   UNL     1       1.483  10.214  20.118  0.00  0.00    +0.000 NA
ATOM     17  C   UNL     1       1.621  11.444  19.343  0.00  0.00    +0.000 C 
ATOM     18  C   UNL     1       0.283  12.111  19.020  0.00  0.00    +0.000 C 
ATOM     19  N   UNL     1      -0.660  12.258  20.134  0.00  0.00    +0.000 NA
ATOM     20  C   UNL     1      -0.540  11.221  21.187  0.00  0.00    +0.000 C 
ATOM     21  C   UNL     1       0.834  10.564  21.379  0.00  0.00    +0.000 C 
BRANCH  19  22
ATOM     22  C   UNL     1      -0.909  13.602  20.675  0.00  0.00    +0.000 C 
ATOM     23  C   UNL     1       0.023  14.091  21.804  0.00  0.00    +0.000 C 
ATOM     24  C   UNL     1       1.482  14.182  21.365  0.00  0.00    +0.000 C 
ATOM     25  C   UNL     1       1.652  15.076  20.139  0.00  0.00    +0.000 C 
ATOM     26  C   UNL     1       0.669  14.760  19.018  0.00  0.00    +0.000 C 
ATOM     27  C   UNL     1      -0.770  14.631  19.527  0.00  0.00    +0.000 C 
ENDBRANCH  19  22
ENDBRANCH  12  16
BRANCH   1  28
ATOM     28  C   UNL     1       1.276   4.313  20.274  0.00  0.00    +0.000 C 
BRANCH  28  30
ATOM     29  F   UNL     1       1.190   2.679  21.961  0.00  0.00    +0.000 F 
ATOM     30  C   UNL     1       2.048   3.401  21.202  0.00  0.00    +0.000 C 
ENDBRANCH  28  30
ENDBRANCH   1  28
TORSDOF 4
ENDMDL
