MODEL 1
REMARK VINA RESULT:      -6.3      0.000      0.000
REMARK  Name = 
REMARK  13 active torsions:
REMARK  status: ('A' for Active; 'I' for Inactive)
REMARK    1  A    between atoms: C_1  and  O_2
REMARK    2  A    between atoms: O_2  and  C_3
REMARK    3  A    between atoms: C_5  and  C_6
REMARK    4  A    between atoms: C_8  and  C_9
REMARK    5  A    between atoms: C_9  and  O_10
REMARK    6  A    between atoms: O_10  and  C_11
REMARK    7  A    between atoms: C_11  and  C_13
REMARK    8  A    between atoms: C_13  and  N_14
REMARK    9  A    between atoms: C_13  and  C_15
REMARK   10  A    between atoms: C_15  and  C_16
REMARK   11  A    between atoms: C_16  and  S_17
REMARK   12  A    between atoms: S_17  and  C_18
REMARK   13  A    between atoms: C_23  and  O_24
REMARK                            x       y       z     vdW  Elec       q    Type
REMARK                         _______ _______ _______ _____ _____    ______ ____
ROOT
ATOM      1  C   UNL     1       3.522   3.632  17.097  0.00  0.00    +0.000 C 
ATOM      2  N   UNL     1       3.470   2.599  17.882  0.00  0.00    +0.000 NA
ATOM      3  C   UNL     1       2.020   2.472  18.163  0.00  0.00    +0.000 C 
ATOM      4  C   UNL     1       1.438   3.810  17.761  0.00  0.00    +0.000 C 
ATOM      5  O   UNL     1       2.393   4.337  16.849  0.00  0.00    +0.000 OA
ENDROOT
BRANCH   1   8
ATOM      6  C   UNL     1       6.558   5.736  16.236  0.00  0.00    +0.000 A 
ATOM      7  C   UNL     1       5.435   5.240  16.913  0.00  0.00    +0.000 A 
ATOM      8  C   UNL     1       4.725   4.142  16.418  0.00  0.00    +0.000 A 
ATOM      9  C   UNL     1       5.150   3.524  15.242  0.00  0.00    +0.000 A 
ATOM     10  C   UNL     1       6.253   4.019  14.546  0.00  0.00    +0.000 A 
ATOM     11  C   UNL     1       6.953   5.124  15.040  0.00  0.00    +0.000 A 
BRANCH   6  13
ATOM     12  C   UNL     1       7.528   6.639  18.228  0.00  0.00    +0.000 C 
ATOM     13  O   UNL     1       7.127   6.804  16.876  0.00  0.00    +0.000 OA
ENDBRANCH   6  13
BRANCH  11  14
ATOM     14  O   UNL     1       8.022   5.580  14.322  0.00  0.00    +0.000 OA
ATOM     15  H   UNL     1       8.844   5.231  14.706  0.00  0.00    +0.000 HD
ENDBRANCH  11  14
ENDBRANCH   1   8
BRANCH   3  16
ATOM     16  C   UNL     1       1.778   2.129  19.633  0.00  0.00    +0.000 C 
BRANCH  16  17
ATOM     17  O   UNL     1       1.288   3.269  20.367  0.00  0.00    +0.000 OA
BRANCH  17  18
ATOM     18  C   UNL     1       2.067   3.691  21.398  0.00  0.00    +0.000 C 
ATOM     19  O   UNL     1       2.333   3.027  22.395  0.00  0.00    +0.000 OA
BRANCH  18  20
ATOM     20  C   UNL     1       2.556   5.128  21.148  0.00  0.00    +0.000 C 
BRANCH  20  21
ATOM     21  N   UNL     1       3.636   5.113  20.127  0.00  0.00    +0.000 NA
ATOM     22  H   UNL     1       4.506   4.837  20.592  0.00  0.00    +0.000 HD
ATOM     23  H   UNL     1       3.810   6.071  19.821  0.00  0.00    +0.000 HD
ENDBRANCH  20  21
BRANCH  20  24
ATOM     24  C   UNL     1       1.423   6.035  20.649  0.00  0.00    +0.000 C 
BRANCH  24  25
ATOM     25  C   UNL     1       1.908   7.405  20.169  0.00  0.00    +0.000 C 
BRANCH  25  26
ATOM     26  S   UNL     1       1.099   8.707  21.162  0.00  0.00    +0.000 S 
ATOM     27  C   UNL     1       0.765   9.896  19.844  0.00  0.00    +0.000 C 
ENDBRANCH  25  26
ENDBRANCH  24  25
ENDBRANCH  20  24
ENDBRANCH  18  20
ENDBRANCH  17  18
ENDBRANCH  16  17
ENDBRANCH   3  16
TORSDOF 11
ENDMDL
MODEL 2
REMARK VINA RESULT:      -6.2      3.595      7.063
REMARK  Name = 
REMARK  13 active torsions:
REMARK  status: ('A' for Active; 'I' for Inactive)
REMARK    1  A    between atoms: C_1  and  O_2
REMARK    2  A    between atoms: O_2  and  C_3
REMARK    3  A    between atoms: C_5  and  C_6
REMARK    4  A    between atoms: C_8  and  C_9
REMARK    5  A    between atoms: C_9  and  O_10
REMARK    6  A    between atoms: O_10  and  C_11
REMARK    7  A    between atoms: C_11  and  C_13
REMARK    8  A    between atoms: C_13  and  N_14
REMARK    9  A    between atoms: C_13  and  C_15
REMARK   10  A    between atoms: C_15  and  C_16
REMARK   11  A    between atoms: C_16  and  S_17
REMARK   12  A    between atoms: S_17  and  C_18
REMARK   13  A    between atoms: C_23  and  O_24
REMARK                            x       y       z     vdW  Elec       q    Type
REMARK                         _______ _______ _______ _____ _____    ______ ____
ROOT
ATOM      1  C   UNL     1       2.574   6.478  19.428  0.00  0.00    +0.000 C 
ATOM      2  N   UNL     1       3.518   6.011  18.670  0.00  0.00    +0.000 NA
ATOM      3  C   UNL     1       3.600   4.589  19.081  0.00  0.00    +0.000 C 
ATOM      4  C   UNL     1       2.877   4.539  20.410  0.00  0.00    +0.000 C 
ATOM      5  O   UNL     1       2.036   5.685  20.385  0.00  0.00    +0.000 OA
ENDROOT
BRANCH   1   8
ATOM      6  C   UNL     1       0.778   9.684  20.363  0.00  0.00    +0.000 A 
ATOM      7  C   UNL     1       1.350   8.408  20.455  0.00  0.00    +0.000 A 
ATOM      8  C   UNL     1       2.000   7.831  19.360  0.00  0.00    +0.000 A 
ATOM      9  C   UNL     1       2.090   8.544  18.163  0.00  0.00    +0.000 A 
ATOM     10  C   UNL     1       1.507   9.806  18.050  0.00  0.00    +0.000 A 
ATOM     11  C   UNL     1       0.850  10.374  19.146  0.00  0.00    +0.000 A 
BRANCH   6  13
ATOM     12  C   UNL     1       0.537   9.385  22.725  0.00  0.00    +0.000 C 
ATOM     13  O   UNL     1       0.198  10.085  21.537  0.00  0.00    +0.000 OA
ENDBRANCH   6  13
BRANCH  11  14
ATOM     14  O   UNL     1       0.286  11.608  18.988  0.00  0.00    +0.000 OA
ATOM     15  H   UNL     1       0.667  12.041  18.206  0.00  0.00    +0.000 HD
ENDBRANCH  11  14
ENDBRANCH   1   8
BRANCH   3  16
ATOM     16  C   UNL     1       5.055   4.130  19.172  0.00  0.00    +0.000 C 
BRANCH  16  17
ATOM     17  O   UNL     1       5.952   5.246  19.339  0.00  0.00    +0.000 OA
BRANCH  17  18
ATOM     18  C   UNL     1       7.076   5.224  18.576  0.00  0.00    +0.000 C 
ATOM     19  O   UNL     1       8.206   4.993  18.996  0.00  0.00    +0.000 OA
BRANCH  18  20
ATOM     20  C   UNL     1       6.738   5.545  17.110  0.00  0.00    +0.000 C 
BRANCH  20  21
ATOM     21  N   UNL     1       7.468   6.770  16.691  0.00  0.00    +0.000 NA
ATOM     22  H   UNL     1       6.774   7.477  16.428  0.00  0.00    +0.000 HD
ATOM     23  H   UNL     1       7.964   6.573  15.820  0.00  0.00    +0.000 HD
ENDBRANCH  20  21
BRANCH  20  24
ATOM     24  C   UNL     1       7.129   4.395  16.171  0.00  0.00    +0.000 C 
BRANCH  24  25
ATOM     25  C   UNL     1       7.139   4.794  14.694  0.00  0.00    +0.000 C 
BRANCH  25  26
ATOM     26  S   UNL     1       5.700   4.041  13.861  0.00  0.00    +0.000 S 
ATOM     27  C   UNL     1       6.493   3.563  12.310  0.00  0.00    +0.000 C 
ENDBRANCH  25  26
ENDBRANCH  24  25
ENDBRANCH  20  24
ENDBRANCH  18  20
ENDBRANCH  17  18
ENDBRANCH  16  17
ENDBRANCH   3  16
TORSDOF 11
ENDMDL
MODEL 3
REMARK VINA RESULT:      -6.1      3.414      6.803
REMARK  Name = 
REMARK  13 active torsions:
REMARK  status: ('A' for Active; 'I' for Inactive)
REMARK    1  A    between atoms: C_1  and  O_2
REMARK    2  A    between atoms: O_2  and  C_3
REMARK    3  A    between atoms: C_5  and  C_6
REMARK    4  A    between atoms: C_8  and  C_9
REMARK    5  A    between atoms: C_9  and  O_10
REMARK    6  A    between atoms: O_10  and  C_11
REMARK    7  A    between atoms: C_11  and  C_13
REMARK    8  A    between atoms: C_13  and  N_14
REMARK    9  A    between atoms: C_13  and  C_15
REMARK   10  A    between atoms: C_15  and  C_16
REMARK   11  A    between atoms: C_16  and  S_17
REMARK   12  A    between atoms: S_17  and  C_18
REMARK   13  A    between atoms: C_23  and  O_24
REMARK                            x       y       z     vdW  Elec       q    Type
REMARK                         _______ _______ _______ _____ _____    ______ ____
ROOT
ATOM      1  C   UNL     1       3.357   6.031  18.617  0.00  0.00    +0.000 C 
ATOM      2  N   UNL     1       3.638   5.627  17.416  0.00  0.00    +0.000 NA
ATOM      3  C   UNL     1       4.299   4.321  17.653  0.00  0.00    +0.000 C 
ATOM      4  C   UNL     1       4.673   4.348  19.119  0.00  0.00    +0.000 C 
ATOM      5  O   UNL     1       3.790   5.311  19.680  0.00  0.00    +0.000 OA
ENDROOT
BRANCH   1   8
ATOM      6  C   UNL     1       1.322   8.572  20.562  0.00  0.00    +0.000 A 
ATOM      7  C   UNL     1       2.083   7.436  20.255  0.00  0.00    +0.000 A 
ATOM      8  C   UNL     1       2.587   7.235  18.966  0.00  0.00    +0.000 A 
ATOM      9  C   UNL     1       2.338   8.188  17.977  0.00  0.00    +0.000 A 
ATOM     10  C   UNL     1       1.564   9.313  18.262  0.00  0.00    +0.000 A 
ATOM     11  C   UNL     1       1.055   9.503  19.550  0.00  0.00    +0.000 A 
BRANCH   6  13
ATOM     12  C   UNL     1      -0.393   9.032  22.167  0.00  0.00    +0.000 C 
ATOM     13  O   UNL     1       0.928   8.600  21.873  0.00  0.00    +0.000 OA
ENDBRANCH   6  13
BRANCH  11  14
ATOM     14  O   UNL     1       0.295  10.615  19.784  0.00  0.00    +0.000 OA
ATOM     15  H   UNL     1       0.493  10.962  20.670  0.00  0.00    +0.000 HD
ENDBRANCH  11  14
ENDBRANCH   1   8
BRANCH   3  16
ATOM     16  C   UNL     1       5.504   4.144  16.730  0.00  0.00    +0.000 C 
BRANCH  16  17
ATOM     17  O   UNL     1       6.718   4.609  17.351  0.00  0.00    +0.000 OA
BRANCH  17  18
ATOM     18  C   UNL     1       7.179   5.815  16.924  0.00  0.00    +0.000 C 
ATOM     19  O   UNL     1       7.505   6.074  15.769  0.00  0.00    +0.000 OA
BRANCH  18  20
ATOM     20  C   UNL     1       7.252   6.808  18.096  0.00  0.00    +0.000 C 
BRANCH  20  21
ATOM     21  N   UNL     1       8.129   6.255  19.160  0.00  0.00    +0.000 NA
ATOM     22  H   UNL     1       7.659   5.440  19.566  0.00  0.00    +0.000 HD
ATOM     23  H   UNL     1       8.174   6.926  19.929  0.00  0.00    +0.000 HD
ENDBRANCH  20  21
BRANCH  20  24
ATOM     24  C   UNL     1       7.813   8.167  17.655  0.00  0.00    +0.000 C 
BRANCH  24  25
ATOM     25  C   UNL     1       8.682   8.840  18.721  0.00  0.00    +0.000 C 
BRANCH  25  26
ATOM     26  S   UNL     1       9.050  10.550  18.199  0.00  0.00    +0.000 S 
ATOM     27  C   UNL     1       9.859  11.134  19.706  0.00  0.00    +0.000 C 
ENDBRANCH  25  26
ENDBRANCH  24  25
ENDBRANCH  20  24
ENDBRANCH  18  20
ENDBRANCH  17  18
ENDBRANCH  16  17
ENDBRANCH   3  16
TORSDOF 11
ENDMDL
MODEL 4
REMARK VINA RESULT:      -6.1      3.092      5.655
REMARK  Name = 
REMARK  13 active torsions:
REMARK  status: ('A' for Active; 'I' for Inactive)
REMARK    1  A    between atoms: C_1  and  O_2
REMARK    2  A    between atoms: O_2  and  C_3
REMARK    3  A    between atoms: C_5  and  C_6
REMARK    4  A    between atoms: C_8  and  C_9
REMARK    5  A    between atoms: C_9  and  O_10
REMARK    6  A    between atoms: O_10  and  C_11
REMARK    7  A    between atoms: C_11  and  C_13
REMARK    8  A    between atoms: C_13  and  N_14
REMARK    9  A    between atoms: C_13  and  C_15
REMARK   10  A    between atoms: C_15  and  C_16
REMARK   11  A    between atoms: C_16  and  S_17
REMARK   12  A    between atoms: S_17  and  C_18
REMARK   13  A    between atoms: C_23  and  O_24
REMARK                            x       y       z     vdW  Elec       q    Type
REMARK                         _______ _______ _______ _____ _____    ______ ____
ROOT
ATOM      1  C   UNL     1       1.831   5.512  20.030  0.00  0.00    +0.000 C 
ATOM      2  N   UNL     1       1.280   4.477  19.473  0.00  0.00    +0.000 NA
ATOM      3  C   UNL     1       1.361   3.448  20.538  0.00  0.00    +0.000 C 
ATOM      4  C   UNL     1       2.387   3.990  21.510  0.00  0.00    +0.000 C 
ATOM      5  O   UNL     1       2.391   5.389  21.257  0.00  0.00    +0.000 OA
ENDROOT
BRANCH   1   8
ATOM      6  C   UNL     1       1.458   9.253  19.533  0.00  0.00    +0.000 A 
ATOM      7  C   UNL     1       1.401   7.979  20.114  0.00  0.00    +0.000 A 
ATOM      8  C   UNL     1       1.916   6.862  19.450  0.00  0.00    +0.000 A 
ATOM      9  C   UNL     1       2.507   7.023  18.196  0.00  0.00    +0.000 A 
ATOM     10  C   UNL     1       2.553   8.281  17.595  0.00  0.00    +0.000 A 
ATOM     11  C   UNL     1       2.027   9.393  18.261  0.00  0.00    +0.000 A 
BRANCH   6  13
ATOM     12  C   UNL     1       0.452   9.841  21.623  0.00  0.00    +0.000 C 
ATOM     13  O   UNL     1       0.917  10.221  20.336  0.00  0.00    +0.000 OA
ENDBRANCH   6  13
BRANCH  11  14
ATOM     14  O   UNL     1       2.086  10.605  17.632  0.00  0.00    +0.000 OA
ATOM     15  H   UNL     1       2.733  10.564  16.908  0.00  0.00    +0.000 HD
ENDBRANCH  11  14
ENDBRANCH   1   8
BRANCH   3  16
ATOM     16  C   UNL     1       1.747   2.088  19.955  0.00  0.00    +0.000 C 
BRANCH  16  17
ATOM     17  O   UNL     1       2.169   2.204  18.581  0.00  0.00    +0.000 OA
BRANCH  17  18
ATOM     18  C   UNL     1       3.467   1.886  18.330  0.00  0.00    +0.000 C 
ATOM     19  O   UNL     1       3.986   0.802  18.581  0.00  0.00    +0.000 OA
BRANCH  18  20
ATOM     20  C   UNL     1       4.202   3.083  17.703  0.00  0.00    +0.000 C 
BRANCH  20  21
ATOM     21  N   UNL     1       3.224   3.944  16.988  0.00  0.00    +0.000 NA
ATOM     22  H   UNL     1       3.748   4.667  16.486  0.00  0.00    +0.000 HD
ATOM     23  H   UNL     1       2.680   4.464  17.678  0.00  0.00    +0.000 HD
ENDBRANCH  20  21
BRANCH  20  24
ATOM     24  C   UNL     1       4.917   3.930  18.764  0.00  0.00    +0.000 C 
BRANCH  24  25
ATOM     25  C   UNL     1       5.631   5.154  18.184  0.00  0.00    +0.000 C 
BRANCH  25  26
ATOM     26  S   UNL     1       7.269   4.648  17.556  0.00  0.00    +0.000 S 
ATOM     27  C   UNL     1       6.930   4.744  15.784  0.00  0.00    +0.000 C 
ENDBRANCH  25  26
ENDBRANCH  24  25
ENDBRANCH  20  24
ENDBRANCH  18  20
ENDBRANCH  17  18
ENDBRANCH  16  17
ENDBRANCH   3  16
TORSDOF 11
ENDMDL
MODEL 5
REMARK VINA RESULT:      -6.0      2.208      3.199
REMARK  Name = 
REMARK  13 active torsions:
REMARK  status: ('A' for Active; 'I' for Inactive)
REMARK    1  A    between atoms: C_1  and  O_2
REMARK    2  A    between atoms: O_2  and  C_3
REMARK    3  A    between atoms: C_5  and  C_6
REMARK    4  A    between atoms: C_8  and  C_9
REMARK    5  A    between atoms: C_9  and  O_10
REMARK    6  A    between atoms: O_10  and  C_11
REMARK    7  A    between atoms: C_11  and  C_13
REMARK    8  A    between atoms: C_13  and  N_14
REMARK    9  A    between atoms: C_13  and  C_15
REMARK   10  A    between atoms: C_15  and  C_16
REMARK   11  A    between atoms: C_16  and  S_17
REMARK   12  A    between atoms: S_17  and  C_18
REMARK   13  A    between atoms: C_23  and  O_24
REMARK                            x       y       z     vdW  Elec       q    Type
REMARK                         _______ _______ _______ _____ _____    ______ ____
ROOT
ATOM      1  C   UNL     1       3.881   4.853  18.344  0.00  0.00    +0.000 C 
ATOM      2  N   UNL     1       3.720   5.677  19.333  0.00  0.00    +0.000 NA
ATOM      3  C   UNL     1       2.615   5.057  20.103  0.00  0.00    +0.000 C 
ATOM      4  C   UNL     1       1.992   4.070  19.141  0.00  0.00    +0.000 C 
ATOM      5  O   UNL     1       3.025   3.813  18.198  0.00  0.00    +0.000 OA
ENDROOT
BRANCH   1   8
ATOM      6  C   UNL     1       6.894   6.000  16.348  0.00  0.00    +0.000 A 
ATOM      7  C   UNL     1       5.917   5.922  17.350  0.00  0.00    +0.000 A 
ATOM      8  C   UNL     1       4.935   4.927  17.320  0.00  0.00    +0.000 A 
ATOM      9  C   UNL     1       4.939   3.991  16.285  0.00  0.00    +0.000 A 
ATOM     10  C   UNL     1       5.892   4.068  15.270  0.00  0.00    +0.000 A 
ATOM     11  C   UNL     1       6.866   5.072  15.299  0.00  0.00    +0.000 A 
BRANCH   6  13
ATOM     12  C   UNL     1       7.720   7.720  17.791  0.00  0.00    +0.000 C 
ATOM     13  O   UNL     1       7.774   7.028  16.552  0.00  0.00    +0.000 OA
ENDBRANCH   6  13
BRANCH  11  14
ATOM     14  O   UNL     1       7.775   5.115  14.280  0.00  0.00    +0.000 OA
ATOM     15  H   UNL     1       8.640   4.814  14.605  0.00  0.00    +0.000 HD
ENDBRANCH  11  14
ENDBRANCH   1   8
BRANCH   3  16
ATOM     16  C   UNL     1       1.630   6.118  20.595  0.00  0.00    +0.000 C 
BRANCH  16  17
ATOM     17  O   UNL     1       2.055   7.445  20.224  0.00  0.00    +0.000 OA
BRANCH  17  18
ATOM     18  C   UNL     1       1.217   8.457  20.575  0.00  0.00    +0.000 C 
ATOM     19  O   UNL     1       0.587   8.514  21.627  0.00  0.00    +0.000 OA
BRANCH  18  20
ATOM     20  C   UNL     1       1.156   9.514  19.460  0.00  0.00    +0.000 C 
BRANCH  20  21
ATOM     21  N   UNL     1       1.508   8.885  18.161  0.00  0.00    +0.000 NA
ATOM     22  H   UNL     1       2.465   9.163  17.924  0.00  0.00    +0.000 HD
ATOM     23  H   UNL     1       0.937   9.308  17.427  0.00  0.00    +0.000 HD
ENDBRANCH  20  21
BRANCH  20  24
ATOM     24  C   UNL     1      -0.244  10.133  19.342  0.00  0.00    +0.000 C 
BRANCH  24  25
ATOM     25  C   UNL     1      -0.225  11.657  19.205  0.00  0.00    +0.000 C 
BRANCH  25  26
ATOM     26  S   UNL     1       0.589  12.380  20.671  0.00  0.00    +0.000 S 
ATOM     27  C   UNL     1      -0.594  11.859  21.932  0.00  0.00    +0.000 C 
ENDBRANCH  25  26
ENDBRANCH  24  25
ENDBRANCH  20  24
ENDBRANCH  18  20
ENDBRANCH  17  18
ENDBRANCH  16  17
ENDBRANCH   3  16
TORSDOF 11
ENDMDL
MODEL 6
REMARK VINA RESULT:      -5.9      3.256      5.841
REMARK  Name = 
REMARK  13 active torsions:
REMARK  status: ('A' for Active; 'I' for Inactive)
REMARK    1  A    between atoms: C_1  and  O_2
REMARK    2  A    between atoms: O_2  and  C_3
REMARK    3  A    between atoms: C_5  and  C_6
REMARK    4  A    between atoms: C_8  and  C_9
REMARK    5  A    between atoms: C_9  and  O_10
REMARK    6  A    between atoms: O_10  and  C_11
REMARK    7  A    between atoms: C_11  and  C_13
REMARK    8  A    between atoms: C_13  and  N_14
REMARK    9  A    between atoms: C_13  and  C_15
REMARK   10  A    between atoms: C_15  and  C_16
REMARK   11  A    between atoms: C_16  and  S_17
REMARK   12  A    between atoms: S_17  and  C_18
REMARK   13  A    between atoms: C_23  and  O_24
REMARK                            x       y       z     vdW  Elec       q    Type
REMARK                         _______ _______ _______ _____ _____    ______ ____
ROOT
ATOM      1  C   UNL     1       1.891   5.672  19.793  0.00  0.00    +0.000 C 
ATOM      2  N   UNL     1       1.712   4.613  19.064  0.00  0.00    +0.000 NA
ATOM      3  C   UNL     1       1.569   3.538  20.075  0.00  0.00    +0.000 C 
ATOM      4  C   UNL     1       2.116   4.142  21.350  0.00  0.00    +0.000 C 
ATOM      5  O   UNL     1       2.011   5.544  21.136  0.00  0.00    +0.000 OA
ENDROOT
BRANCH   1   8
ATOM      6  C   UNL     1       1.497   9.434  19.516  0.00  0.00    +0.000 A 
ATOM      7  C   UNL     1       1.435   8.126  20.016  0.00  0.00    +0.000 A 
ATOM      8  C   UNL     1       1.979   7.056  19.300  0.00  0.00    +0.000 A 
ATOM      9  C   UNL     1       2.604   7.298  18.076  0.00  0.00    +0.000 A 
ATOM     10  C   UNL     1       2.655   8.591  17.555  0.00  0.00    +0.000 A 
ATOM     11  C   UNL     1       2.100   9.656  18.272  0.00  0.00    +0.000 A 
BRANCH   6  13
ATOM     12  C   UNL     1      -0.483  10.534  20.290  0.00  0.00    +0.000 C 
ATOM     13  O   UNL     1       0.923  10.346  20.361  0.00  0.00    +0.000 OA
ENDBRANCH   6  13
BRANCH  11  14
ATOM     14  O   UNL     1       2.165  10.905  17.721  0.00  0.00    +0.000 OA
ATOM     15  H   UNL     1       2.614  11.508  18.336  0.00  0.00    +0.000 HD
ENDBRANCH  11  14
ENDBRANCH   1   8
BRANCH   3  16
ATOM     16  C   UNL     1       2.316   2.277  19.640  0.00  0.00    +0.000 C 
BRANCH  16  17
ATOM     17  O   UNL     1       3.340   2.578  18.671  0.00  0.00    +0.000 OA
BRANCH  17  18
ATOM     18  C   UNL     1       4.555   2.916  19.177  0.00  0.00    +0.000 C 
ATOM     19  O   UNL     1       5.093   2.372  20.137  0.00  0.00    +0.000 OA
BRANCH  18  20
ATOM     20  C   UNL     1       5.158   4.091  18.388  0.00  0.00    +0.000 C 
BRANCH  20  21
ATOM     21  N   UNL     1       6.634   4.094  18.554  0.00  0.00    +0.000 NA
ATOM     22  H   UNL     1       7.056   4.228  17.631  0.00  0.00    +0.000 HD
ATOM     23  H   UNL     1       6.934   3.157  18.831  0.00  0.00    +0.000 HD
ENDBRANCH  20  21
BRANCH  20  24
ATOM     24  C   UNL     1       4.833   3.994  16.890  0.00  0.00    +0.000 C 
BRANCH  24  25
ATOM     25  C   UNL     1       5.160   5.273  16.115  0.00  0.00    +0.000 C 
BRANCH  25  26
ATOM     26  S   UNL     1       6.727   5.039  15.207  0.00  0.00    +0.000 S 
ATOM     27  C   UNL     1       6.130   3.946  13.898  0.00  0.00    +0.000 C 
ENDBRANCH  25  26
ENDBRANCH  24  25
ENDBRANCH  20  24
ENDBRANCH  18  20
ENDBRANCH  17  18
ENDBRANCH  16  17
ENDBRANCH   3  16
TORSDOF 11
ENDMDL
MODEL 7
REMARK VINA RESULT:      -5.9      3.741      7.282
REMARK  Name = 
REMARK  13 active torsions:
REMARK  status: ('A' for Active; 'I' for Inactive)
REMARK    1  A    between atoms: C_1  and  O_2
REMARK    2  A    between atoms: O_2  and  C_3
REMARK    3  A    between atoms: C_5  and  C_6
REMARK    4  A    between atoms: C_8  and  C_9
REMARK    5  A    between atoms: C_9  and  O_10
REMARK    6  A    between atoms: O_10  and  C_11
REMARK    7  A    between atoms: C_11  and  C_13
REMARK    8  A    between atoms: C_13  and  N_14
REMARK    9  A    between atoms: C_13  and  C_15
REMARK   10  A    between atoms: C_15  and  C_16
REMARK   11  A    between atoms: C_16  and  S_17
REMARK   12  A    between atoms: S_17  and  C_18
REMARK   13  A    between atoms: C_23  and  O_24
REMARK                            x       y       z     vdW  Elec       q    Type
REMARK                         _______ _______ _______ _____ _____    ______ ____
ROOT
ATOM      1  C   UNL     1       2.636   6.382  19.384  0.00  0.00    +0.000 C 
ATOM      2  N   UNL     1       3.585   5.993  18.589  0.00  0.00    +0.000 NA
ATOM      3  C   UNL     1       3.654   4.535  18.848  0.00  0.00    +0.000 C 
ATOM      4  C   UNL     1       2.918   4.348  20.156  0.00  0.00    +0.000 C 
ATOM      5  O   UNL     1       2.083   5.495  20.246  0.00  0.00    +0.000 OA
ENDROOT
BRANCH   1   8
ATOM      6  C   UNL     1       1.140   9.600  20.722  0.00  0.00    +0.000 A 
ATOM      7  C   UNL     1       1.710   8.321  20.674  0.00  0.00    +0.000 A 
ATOM      8  C   UNL     1       2.070   7.739  19.454  0.00  0.00    +0.000 A 
ATOM      9  C   UNL     1       1.869   8.450  18.270  0.00  0.00    +0.000 A 
ATOM     10  C   UNL     1       1.282   9.715  18.300  0.00  0.00    +0.000 A 
ATOM     11  C   UNL     1       0.916  10.288  19.522  0.00  0.00    +0.000 A 
BRANCH   6  13
ATOM     12  C   UNL     1      -0.467   9.890  22.471  0.00  0.00    +0.000 C 
ATOM     13  O   UNL     1       0.868  10.006  22.001  0.00  0.00    +0.000 OA
ENDBRANCH   6  13
BRANCH  11  14
ATOM     14  O   UNL     1       0.338  11.526  19.504  0.00  0.00    +0.000 OA
ATOM     15  H   UNL     1       0.114  11.766  18.590  0.00  0.00    +0.000 HD
ENDBRANCH  11  14
ENDBRANCH   1   8
BRANCH   3  16
ATOM     16  C   UNL     1       5.106   4.059  18.903  0.00  0.00    +0.000 C 
BRANCH  16  17
ATOM     17  O   UNL     1       6.016   5.088  18.466  0.00  0.00    +0.000 OA
BRANCH  17  18
ATOM     18  C   UNL     1       6.780   4.784  17.384  0.00  0.00    +0.000 C 
ATOM     19  O   UNL     1       7.948   4.410  17.431  0.00  0.00    +0.000 OA
BRANCH  18  20
ATOM     20  C   UNL     1       5.980   4.992  16.087  0.00  0.00    +0.000 C 
BRANCH  20  21
ATOM     21  N   UNL     1       5.589   6.421  15.970  0.00  0.00    +0.000 NA
ATOM     22  H   UNL     1       5.173   6.708  16.861  0.00  0.00    +0.000 HD
ATOM     23  H   UNL     1       4.821   6.496  15.300  0.00  0.00    +0.000 HD
ENDBRANCH  20  21
BRANCH  20  24
ATOM     24  C   UNL     1       6.799   4.605  14.847  0.00  0.00    +0.000 C 
BRANCH  24  25
ATOM     25  C   UNL     1       6.001   3.797  13.821  0.00  0.00    +0.000 C 
BRANCH  25  26
ATOM     26  S   UNL     1       6.836   3.896  12.200  0.00  0.00    +0.000 S 
ATOM     27  C   UNL     1       7.925   5.298  12.533  0.00  0.00    +0.000 C 
ENDBRANCH  25  26
ENDBRANCH  24  25
ENDBRANCH  20  24
ENDBRANCH  18  20
ENDBRANCH  17  18
ENDBRANCH  16  17
ENDBRANCH   3  16
TORSDOF 11
ENDMDL
MODEL 8
REMARK VINA RESULT:      -5.9      4.341      6.216
REMARK  Name = 
REMARK  13 active torsions:
REMARK  status: ('A' for Active; 'I' for Inactive)
REMARK    1  A    between atoms: C_1  and  O_2
REMARK    2  A    between atoms: O_2  and  C_3
REMARK    3  A    between atoms: C_5  and  C_6
REMARK    4  A    between atoms: C_8  and  C_9
REMARK    5  A    between atoms: C_9  and  O_10
REMARK    6  A    between atoms: O_10  and  C_11
REMARK    7  A    between atoms: C_11  and  C_13
REMARK    8  A    between atoms: C_13  and  N_14
REMARK    9  A    between atoms: C_13  and  C_15
REMARK   10  A    between atoms: C_15  and  C_16
REMARK   11  A    between atoms: C_16  and  S_17
REMARK   12  A    between atoms: S_17  and  C_18
REMARK   13  A    between atoms: C_23  and  O_24
REMARK                            x       y       z     vdW  Elec       q    Type
REMARK                         _______ _______ _______ _____ _____    ______ ____
ROOT
ATOM      1  C   UNL     1       2.333   7.124  18.979  0.00  0.00    +0.000 C 
ATOM      2  N   UNL     1       2.181   8.084  18.118  0.00  0.00    +0.000 NA
ATOM      3  C   UNL     1       1.718   9.212  18.962  0.00  0.00    +0.000 C 
ATOM      4  C   UNL     1       1.268   8.560  20.251  0.00  0.00    +0.000 C 
ATOM      5  O   UNL     1       1.962   7.319  20.267  0.00  0.00    +0.000 OA
ENDROOT
BRANCH   1   8
ATOM      6  C   UNL     1       4.756   4.226  18.637  0.00  0.00    +0.000 A 
ATOM      7  C   UNL     1       4.233   5.489  18.944  0.00  0.00    +0.000 A 
ATOM      8  C   UNL     1       2.890   5.791  18.696  0.00  0.00    +0.000 A 
ATOM      9  C   UNL     1       2.058   4.813  18.149  0.00  0.00    +0.000 A 
ATOM     10  C   UNL     1       2.569   3.558  17.818  0.00  0.00    +0.000 A 
ATOM     11  C   UNL     1       3.915   3.266  18.059  0.00  0.00    +0.000 A 
BRANCH   6  13
ATOM     12  C   UNL     1       6.835   5.308  19.120  0.00  0.00    +0.000 C 
ATOM     13  O   UNL     1       6.081   4.115  18.960  0.00  0.00    +0.000 OA
ENDBRANCH   6  13
BRANCH  11  14
ATOM     14  O   UNL     1       4.376   2.027  17.713  0.00  0.00    +0.000 OA
ATOM     15  H   UNL     1       5.091   2.118  17.061  0.00  0.00    +0.000 HD
ENDBRANCH  11  14
ENDBRANCH   1   8
BRANCH   3  16
ATOM     16  C   UNL     1       0.604   9.993  18.265  0.00  0.00    +0.000 C 
BRANCH  16  17
ATOM     17  O   UNL     1      -0.515  10.218  19.146  0.00  0.00    +0.000 OA
BRANCH  17  18
ATOM     18  C   UNL     1      -0.647  11.482  19.627  0.00  0.00    +0.000 C 
ATOM     19  O   UNL     1      -0.052  11.929  20.603  0.00  0.00    +0.000 OA
BRANCH  18  20
ATOM     20  C   UNL     1      -1.661  12.274  18.784  0.00  0.00    +0.000 C 
BRANCH  20  21
ATOM     21  N   UNL     1      -0.941  13.039  17.733  0.00  0.00    +0.000 NA
ATOM     22  H   UNL     1      -1.226  12.669  16.821  0.00  0.00    +0.000 HD
ATOM     23  H   UNL     1       0.055  12.818  17.791  0.00  0.00    +0.000 HD
ENDBRANCH  20  21
BRANCH  20  24
ATOM     24  C   UNL     1      -2.680  11.349  18.105  0.00  0.00    +0.000 C 
BRANCH  24  25
ATOM     25  C   UNL     1      -2.576  11.348  16.578  0.00  0.00    +0.000 C 
BRANCH  25  26
ATOM     26  S   UNL     1      -3.055   9.703  15.946  0.00  0.00    +0.000 S 
ATOM     27  C   UNL     1      -3.334  10.138  14.216  0.00  0.00    +0.000 C 
ENDBRANCH  25  26
ENDBRANCH  24  25
ENDBRANCH  20  24
ENDBRANCH  18  20
ENDBRANCH  17  18
ENDBRANCH  16  17
ENDBRANCH   3  16
TORSDOF 11
ENDMDL
MODEL 9
REMARK VINA RESULT:      -5.9      3.528      7.298
REMARK  Name = 
REMARK  13 active torsions:
REMARK  status: ('A' for Active; 'I' for Inactive)
REMARK    1  A    between atoms: C_1  and  O_2
REMARK    2  A    between atoms: O_2  and  C_3
REMARK    3  A    between atoms: C_5  and  C_6
REMARK    4  A    between atoms: C_8  and  C_9
REMARK    5  A    between atoms: C_9  and  O_10
REMARK    6  A    between atoms: O_10  and  C_11
REMARK    7  A    between atoms: C_11  and  C_13
REMARK    8  A    between atoms: C_13  and  N_14
REMARK    9  A    between atoms: C_13  and  C_15
REMARK   10  A    between atoms: C_15  and  C_16
REMARK   11  A    between atoms: C_16  and  S_17
REMARK   12  A    between atoms: S_17  and  C_18
REMARK   13  A    between atoms: C_23  and  O_24
REMARK                            x       y       z     vdW  Elec       q    Type
REMARK                         _______ _______ _______ _____ _____    ______ ____
ROOT
ATOM      1  C   UNL     1       1.807   8.198  19.370  0.00  0.00    +0.000 C 
ATOM      2  N   UNL     1       2.414   7.889  18.265  0.00  0.00    +0.000 NA
ATOM      3  C   UNL     1       2.807   6.477  18.489  0.00  0.00    +0.000 C 
ATOM      4  C   UNL     1       2.686   6.283  19.985  0.00  0.00    +0.000 C 
ATOM      5  O   UNL     1       1.786   7.307  20.390  0.00  0.00    +0.000 OA
ENDROOT
BRANCH   1   8
ATOM      6  C   UNL     1       0.137  11.067  21.203  0.00  0.00    +0.000 A 
ATOM      7  C   UNL     1       0.833   9.876  20.955  0.00  0.00    +0.000 A 
ATOM      8  C   UNL     1       1.110   9.464  19.648  0.00  0.00    +0.000 A 
ATOM      9  C   UNL     1       0.699  10.259  18.577  0.00  0.00    +0.000 A 
ATOM     10  C   UNL     1      -0.012  11.436  18.807  0.00  0.00    +0.000 A 
ATOM     11  C   UNL     1      -0.296  11.838  20.116  0.00  0.00    +0.000 A 
BRANCH   6  13
ATOM     12  C   UNL     1      -1.272  10.965  23.134  0.00  0.00    +0.000 C 
ATOM     13  O   UNL     1      -0.029  11.309  22.540  0.00  0.00    +0.000 OA
ENDBRANCH   6  13
BRANCH  11  14
ATOM     14  O   UNL     1      -1.002  12.994  20.295  0.00  0.00    +0.000 OA
ATOM     15  H   UNL     1      -0.750  13.401  21.141  0.00  0.00    +0.000 HD
ENDBRANCH  11  14
ENDBRANCH   1   8
BRANCH   3  16
ATOM     16  C   UNL     1       4.217   6.213  17.961  0.00  0.00    +0.000 C 
BRANCH  16  17
ATOM     17  O   UNL     1       4.308   4.927  17.316  0.00  0.00    +0.000 OA
BRANCH  17  18
ATOM     18  C   UNL     1       4.509   3.863  18.138  0.00  0.00    +0.000 C 
ATOM     19  O   UNL     1       5.260   3.857  19.108  0.00  0.00    +0.000 OA
BRANCH  18  20
ATOM     20  C   UNL     1       3.673   2.659  17.671  0.00  0.00    +0.000 C 
BRANCH  20  21
ATOM     21  N   UNL     1       4.078   1.450  18.434  0.00  0.00    +0.000 NA
ATOM     22  H   UNL     1       4.864   1.707  19.038  0.00  0.00    +0.000 HD
ATOM     23  H   UNL     1       4.475   0.771  17.783  0.00  0.00    +0.000 HD
ENDBRANCH  20  21
BRANCH  20  24
ATOM     24  C   UNL     1       2.171   2.894  17.885  0.00  0.00    +0.000 C 
BRANCH  24  25
ATOM     25  C   UNL     1       1.575   2.033  19.002  0.00  0.00    +0.000 C 
BRANCH  25  26
ATOM     26  S   UNL     1       1.083   3.111  20.391  0.00  0.00    +0.000 S 
ATOM     27  C   UNL     1       2.473   2.789  21.499  0.00  0.00    +0.000 C 
ENDBRANCH  25  26
ENDBRANCH  24  25
ENDBRANCH  20  24
ENDBRANCH  18  20
ENDBRANCH  17  18
ENDBRANCH  16  17
ENDBRANCH   3  16
TORSDOF 11
ENDMDL
