MODEL 1
REMARK VINA RESULT:      -7.9      0.000      0.000
REMARK  Name = 
REMARK  13 active torsions:
REMARK  status: ('A' for Active; 'I' for Inactive)
REMARK    1  A    between atoms: C_1  and  N_2
REMARK    2  A    between atoms: N_2  and  C_3
REMARK    3  A    between atoms: N_2  and  C_12
REMARK    4  A    between atoms: C_3  and  C_4
REMARK    5  A    between atoms: C_4  and  C_5
REMARK    6  A    between atoms: C_8  and  O_9
REMARK    7  A    between atoms: C_12  and  C_13
REMARK    8  A    between atoms: C_18  and  C_19
REMARK    9  A    between atoms: N_21  and  C_22
REMARK   10  A    between atoms: C_22  and  C_23
REMARK   11  A    between atoms: C_23  and  C_24
REMARK   12  A    between atoms: C_24  and  C_25
REMARK   13  A    between atoms: C_25  and  C_26
REMARK                            x       y       z     vdW  Elec       q    Type
REMARK                         _______ _______ _______ _____ _____    ______ ____
ROOT
ATOM      1  C   UNL     1       2.214   4.466  19.376  0.00  0.00    +0.000 A 
ATOM      2  C   UNL     1       1.077   4.154  20.168  0.00  0.00    +0.000 A 
ATOM      3  C   UNL     1       1.141   3.230  21.209  0.00  0.00    +0.000 A 
ATOM      4  C   UNL     1       2.345   2.607  21.491  0.00  0.00    +0.000 A 
ATOM      5  C   UNL     1       3.456   2.852  20.676  0.00  0.00    +0.000 A 
ATOM      6  C   UNL     1       3.411   3.748  19.587  0.00  0.00    +0.000 A 
ENDROOT
BRANCH   6   7
ATOM      7  C   UNL     1       4.693   3.825  18.793  0.00  0.00    +0.000 C 
ATOM      8  O   UNL     1       4.713   3.370  17.658  0.00  0.00    +0.000 OA
ATOM      9  N   UNL     1       5.784   4.470  19.338  0.00  0.00    +0.000 N 
ATOM     10  H   UNL     1       5.770   4.703  20.331  0.00  0.00    +0.000 HD
BRANCH   9  11
ATOM     11  C   UNL     1       7.016   4.686  18.598  0.00  0.00    +0.000 C 
BRANCH  11  12
ATOM     12  C   UNL     1       7.119   6.053  17.901  0.00  0.00    +0.000 C 
BRANCH  12  13
ATOM     13  C   UNL     1       7.231   6.013  16.372  0.00  0.00    +0.000 C 
BRANCH  13  14
ATOM     14  C   UNL     1       5.979   5.465  15.682  0.00  0.00    +0.000 C 
BRANCH  14  15
ATOM     15  C   UNL     1       6.264   4.875  14.321  0.00  0.00    +0.000 A 
ATOM     16  C   UNL     1       7.389   5.290  13.594  0.00  0.00    +0.000 A 
ATOM     17  C   UNL     1       7.691   4.710  12.360  0.00  0.00    +0.000 A 
ATOM     18  C   UNL     1       6.871   3.711  11.841  0.00  0.00    +0.000 A 
ATOM     19  C   UNL     1       5.742   3.300  12.546  0.00  0.00    +0.000 A 
ATOM     20  C   UNL     1       5.440   3.878  13.781  0.00  0.00    +0.000 A 
ENDBRANCH  14  15
ENDBRANCH  13  14
ENDBRANCH  12  13
ENDBRANCH  11  12
ENDBRANCH   9  11
ENDBRANCH   6   7
BRANCH   1  21
ATOM     21  C   UNL     1       2.068   5.663  18.463  0.00  0.00    +0.000 C 
BRANCH  21  23
ATOM     22  C   UNL     1       3.716   7.274  17.698  0.00  0.00    +0.000 C 
ATOM     23  N   UNL     1       2.874   6.843  18.818  0.00  0.00    +0.000 NA
BRANCH  23  24
ATOM     24  C   UNL     1       1.992   7.943  19.289  0.00  0.00    +0.000 C 
BRANCH  24  25
ATOM     25  C   UNL     1       1.372   7.724  20.683  0.00  0.00    +0.000 C 
BRANCH  25  26
ATOM     26  C   UNL     1       0.552   8.874  21.185  0.00  0.00    +0.000 A 
ATOM     27  C   UNL     1       0.372   9.034  22.563  0.00  0.00    +0.000 A 
ATOM     28  C   UNL     1      -0.332  10.132  23.058  0.00  0.00    +0.000 A 
ATOM     29  C   UNL     1      -0.856  11.063  22.165  0.00  0.00    +0.000 A 
ATOM     30  C   UNL     1      -0.704  10.904  20.793  0.00  0.00    +0.000 A 
ATOM     31  C   UNL     1       0.006   9.810  20.301  0.00  0.00    +0.000 A 
BRANCH  29  32
ATOM     32  O   UNL     1      -1.525  12.164  22.611  0.00  0.00    +0.000 OA
ATOM     33  H   UNL     1      -2.371  11.873  22.990  0.00  0.00    +0.000 HD
ENDBRANCH  29  32
ENDBRANCH  25  26
ENDBRANCH  24  25
ENDBRANCH  23  24
ENDBRANCH  21  23
ENDBRANCH   1  21
TORSDOF 12
ENDMDL
MODEL 2
REMARK VINA RESULT:      -7.8      3.313      5.055
REMARK  Name = 
REMARK  13 active torsions:
REMARK  status: ('A' for Active; 'I' for Inactive)
REMARK    1  A    between atoms: C_1  and  N_2
REMARK    2  A    between atoms: N_2  and  C_3
REMARK    3  A    between atoms: N_2  and  C_12
REMARK    4  A    between atoms: C_3  and  C_4
REMARK    5  A    between atoms: C_4  and  C_5
REMARK    6  A    between atoms: C_8  and  O_9
REMARK    7  A    between atoms: C_12  and  C_13
REMARK    8  A    between atoms: C_18  and  C_19
REMARK    9  A    between atoms: N_21  and  C_22
REMARK   10  A    between atoms: C_22  and  C_23
REMARK   11  A    between atoms: C_23  and  C_24
REMARK   12  A    between atoms: C_24  and  C_25
REMARK   13  A    between atoms: C_25  and  C_26
REMARK                            x       y       z     vdW  Elec       q    Type
REMARK                         _______ _______ _______ _____ _____    ______ ____
ROOT
ATOM      1  C   UNL     1       2.726   5.087  19.006  0.00  0.00    +0.000 A 
ATOM      2  C   UNL     1       1.462   4.487  18.762  0.00  0.00    +0.000 A 
ATOM      3  C   UNL     1       1.351   3.199  18.243  0.00  0.00    +0.000 A 
ATOM      4  C   UNL     1       2.499   2.476  17.968  0.00  0.00    +0.000 A 
ATOM      5  C   UNL     1       3.751   3.079  18.137  0.00  0.00    +0.000 A 
ATOM      6  C   UNL     1       3.895   4.398  18.619  0.00  0.00    +0.000 A 
ENDROOT
BRANCH   6   7
ATOM      7  C   UNL     1       5.323   4.888  18.668  0.00  0.00    +0.000 C 
ATOM      8  O   UNL     1       6.134   4.275  19.347  0.00  0.00    +0.000 OA
ATOM      9  N   UNL     1       5.690   5.967  17.891  0.00  0.00    +0.000 N 
ATOM     10  H   UNL     1       4.959   6.531  17.458  0.00  0.00    +0.000 HD
BRANCH   9  11
ATOM     11  C   UNL     1       7.064   6.429  17.794  0.00  0.00    +0.000 C 
BRANCH  11  12
ATOM     12  C   UNL     1       7.222   7.914  17.428  0.00  0.00    +0.000 C 
BRANCH  12  13
ATOM     13  C   UNL     1       8.426   8.629  18.054  0.00  0.00    +0.000 C 
BRANCH  13  14
ATOM     14  C   UNL     1       8.234  10.142  18.192  0.00  0.00    +0.000 C 
BRANCH  14  15
ATOM     15  C   UNL     1       9.467  10.851  18.701  0.00  0.00    +0.000 A 
ATOM     16  C   UNL     1       9.596  11.150  20.065  0.00  0.00    +0.000 A 
ATOM     17  C   UNL     1      10.756  11.755  20.553  0.00  0.00    +0.000 A 
ATOM     18  C   UNL     1      11.797  12.068  19.682  0.00  0.00    +0.000 A 
ATOM     19  C   UNL     1      11.675  11.790  18.323  0.00  0.00    +0.000 A 
ATOM     20  C   UNL     1      10.517  11.184  17.834  0.00  0.00    +0.000 A 
ENDBRANCH  14  15
ENDBRANCH  13  14
ENDBRANCH  12  13
ENDBRANCH  11  12
ENDBRANCH   9  11
ENDBRANCH   6   7
BRANCH   1  21
ATOM     21  C   UNL     1       2.698   6.371  19.806  0.00  0.00    +0.000 C 
BRANCH  21  23
ATOM     22  C   UNL     1       2.393   7.326  17.594  0.00  0.00    +0.000 C 
ATOM     23  N   UNL     1       2.547   7.609  19.024  0.00  0.00    +0.000 NA
BRANCH  23  24
ATOM     24  C   UNL     1       1.405   8.407  19.545  0.00  0.00    +0.000 C 
BRANCH  24  25
ATOM     25  C   UNL     1       1.233   8.367  21.076  0.00  0.00    +0.000 C 
BRANCH  25  26
ATOM     26  C   UNL     1       0.512   9.549  21.651  0.00  0.00    +0.000 A 
ATOM     27  C   UNL     1       0.647  10.797  21.036  0.00  0.00    +0.000 A 
ATOM     28  C   UNL     1      -0.065  11.898  21.512  0.00  0.00    +0.000 A 
ATOM     29  C   UNL     1      -0.907  11.740  22.610  0.00  0.00    +0.000 A 
ATOM     30  C   UNL     1      -1.033  10.510  23.245  0.00  0.00    +0.000 A 
ATOM     31  C   UNL     1      -0.326   9.410  22.762  0.00  0.00    +0.000 A 
BRANCH  29  32
ATOM     32  O   UNL     1      -1.641  12.785  23.088  0.00  0.00    +0.000 OA
ATOM     33  H   UNL     1      -1.494  12.846  24.046  0.00  0.00    +0.000 HD
ENDBRANCH  29  32
ENDBRANCH  25  26
ENDBRANCH  24  25
ENDBRANCH  23  24
ENDBRANCH  21  23
ENDBRANCH   1  21
TORSDOF 12
ENDMDL
MODEL 3
REMARK VINA RESULT:      -7.8      4.020      7.468
REMARK  Name = 
REMARK  13 active torsions:
REMARK  status: ('A' for Active; 'I' for Inactive)
REMARK    1  A    between atoms: C_1  and  N_2
REMARK    2  A    between atoms: N_2  and  C_3
REMARK    3  A    between atoms: N_2  and  C_12
REMARK    4  A    between atoms: C_3  and  C_4
REMARK    5  A    between atoms: C_4  and  C_5
REMARK    6  A    between atoms: C_8  and  O_9
REMARK    7  A    between atoms: C_12  and  C_13
REMARK    8  A    between atoms: C_18  and  C_19
REMARK    9  A    between atoms: N_21  and  C_22
REMARK   10  A    between atoms: C_22  and  C_23
REMARK   11  A    between atoms: C_23  and  C_24
REMARK   12  A    between atoms: C_24  and  C_25
REMARK   13  A    between atoms: C_25  and  C_26
REMARK                            x       y       z     vdW  Elec       q    Type
REMARK                         _______ _______ _______ _____ _____    ______ ____
ROOT
ATOM      1  C   UNL     1       6.940   5.255  16.994  0.00  0.00    +0.000 A 
ATOM      2  C   UNL     1       7.321   5.246  15.626  0.00  0.00    +0.000 A 
ATOM      3  C   UNL     1       6.617   4.510  14.675  0.00  0.00    +0.000 A 
ATOM      4  C   UNL     1       5.510   3.778  15.066  0.00  0.00    +0.000 A 
ATOM      5  C   UNL     1       5.163   3.721  16.421  0.00  0.00    +0.000 A 
ATOM      6  C   UNL     1       5.884   4.419  17.414  0.00  0.00    +0.000 A 
ENDROOT
BRANCH   6   7
ATOM      7  C   UNL     1       5.393   4.176  18.822  0.00  0.00    +0.000 C 
ATOM      8  O   UNL     1       5.334   5.119  19.597  0.00  0.00    +0.000 OA
ATOM      9  N   UNL     1       4.957   2.915  19.174  0.00  0.00    +0.000 N 
ATOM     10  H   UNL     1       5.159   2.134  18.549  0.00  0.00    +0.000 HD
BRANCH   9  11
ATOM     11  C   UNL     1       4.366   2.625  20.469  0.00  0.00    +0.000 C 
BRANCH  11  12
ATOM     12  C   UNL     1       2.939   2.053  20.415  0.00  0.00    +0.000 C 
BRANCH  12  13
ATOM     13  C   UNL     1       2.270   2.063  19.035  0.00  0.00    +0.000 C 
BRANCH  13  14
ATOM     14  C   UNL     1       1.164   3.114  18.899  0.00  0.00    +0.000 C 
BRANCH  14  15
ATOM     15  C   UNL     1       1.678   4.530  19.009  0.00  0.00    +0.000 A 
ATOM     16  C   UNL     1       2.177   5.189  17.876  0.00  0.00    +0.000 A 
ATOM     17  C   UNL     1       2.602   6.516  17.957  0.00  0.00    +0.000 A 
ATOM     18  C   UNL     1       2.534   7.198  19.170  0.00  0.00    +0.000 A 
ATOM     19  C   UNL     1       2.054   6.550  20.306  0.00  0.00    +0.000 A 
ATOM     20  C   UNL     1       1.627   5.223  20.227  0.00  0.00    +0.000 A 
ENDBRANCH  14  15
ENDBRANCH  13  14
ENDBRANCH  12  13
ENDBRANCH  11  12
ENDBRANCH   9  11
ENDBRANCH   6   7
BRANCH   1  21
ATOM     21  C   UNL     1       7.625   6.290  17.858  0.00  0.00    +0.000 C 
BRANCH  21  23
ATOM     22  C   UNL     1       6.116   8.128  17.368  0.00  0.00    +0.000 C 
ATOM     23  N   UNL     1       7.513   7.684  17.399  0.00  0.00    +0.000 NA
BRANCH  23  24
ATOM     24  C   UNL     1       8.345   8.573  18.252  0.00  0.00    +0.000 C 
BRANCH  24  25
ATOM     25  C   UNL     1       8.597   9.978  17.670  0.00  0.00    +0.000 C 
BRANCH  25  26
ATOM     26  C   UNL     1       9.101  10.981  18.664  0.00  0.00    +0.000 A 
ATOM     27  C   UNL     1       9.166  12.329  18.302  0.00  0.00    +0.000 A 
ATOM     28  C   UNL     1       9.569  13.290  19.229  0.00  0.00    +0.000 A 
ATOM     29  C   UNL     1       9.910  12.890  20.518  0.00  0.00    +0.000 A 
ATOM     30  C   UNL     1       9.871  11.549  20.886  0.00  0.00    +0.000 A 
ATOM     31  C   UNL     1       9.461  10.593  19.959  0.00  0.00    +0.000 A 
BRANCH  29  32
ATOM     32  O   UNL     1      10.281  13.801  21.462  0.00  0.00    +0.000 OA
ATOM     33  H   UNL     1       9.578  14.468  21.533  0.00  0.00    +0.000 HD
ENDBRANCH  29  32
ENDBRANCH  25  26
ENDBRANCH  24  25
ENDBRANCH  23  24
ENDBRANCH  21  23
ENDBRANCH   1  21
TORSDOF 12
ENDMDL
MODEL 4
REMARK VINA RESULT:      -7.7      0.774      1.218
REMARK  Name = 
REMARK  13 active torsions:
REMARK  status: ('A' for Active; 'I' for Inactive)
REMARK    1  A    between atoms: C_1  and  N_2
REMARK    2  A    between atoms: N_2  and  C_3
REMARK    3  A    between atoms: N_2  and  C_12
REMARK    4  A    between atoms: C_3  and  C_4
REMARK    5  A    between atoms: C_4  and  C_5
REMARK    6  A    between atoms: C_8  and  O_9
REMARK    7  A    between atoms: C_12  and  C_13
REMARK    8  A    between atoms: C_18  and  C_19
REMARK    9  A    between atoms: N_21  and  C_22
REMARK   10  A    between atoms: C_22  and  C_23
REMARK   11  A    between atoms: C_23  and  C_24
REMARK   12  A    between atoms: C_24  and  C_25
REMARK   13  A    between atoms: C_25  and  C_26
REMARK                            x       y       z     vdW  Elec       q    Type
REMARK                         _______ _______ _______ _____ _____    ______ ____
ROOT
ATOM      1  C   UNL     1       2.302   4.526  19.079  0.00  0.00    +0.000 A 
ATOM      2  C   UNL     1       0.996   4.123  19.465  0.00  0.00    +0.000 A 
ATOM      3  C   UNL     1       0.785   3.240  20.523  0.00  0.00    +0.000 A 
ATOM      4  C   UNL     1       1.872   2.752  21.227  0.00  0.00    +0.000 A 
ATOM      5  C   UNL     1       3.168   3.085  20.815  0.00  0.00    +0.000 A 
ATOM      6  C   UNL     1       3.415   3.940  19.719  0.00  0.00    +0.000 A 
ENDROOT
BRANCH   6   7
ATOM      7  C   UNL     1       4.878   4.124  19.393  0.00  0.00    +0.000 C 
ATOM      8  O   UNL     1       5.590   3.135  19.298  0.00  0.00    +0.000 OA
ATOM      9  N   UNL     1       5.356   5.393  19.140  0.00  0.00    +0.000 N 
ATOM     10  H   UNL     1       4.768   6.194  19.371  0.00  0.00    +0.000 HD
BRANCH   9  11
ATOM     11  C   UNL     1       6.721   5.644  18.709  0.00  0.00    +0.000 C 
BRANCH  11  12
ATOM     12  C   UNL     1       6.851   6.323  17.336  0.00  0.00    +0.000 C 
BRANCH  12  13
ATOM     13  C   UNL     1       5.739   6.007  16.329  0.00  0.00    +0.000 C 
BRANCH  13  14
ATOM     14  C   UNL     1       5.763   4.560  15.826  0.00  0.00    +0.000 C 
BRANCH  14  15
ATOM     15  C   UNL     1       6.313   4.430  14.425  0.00  0.00    +0.000 A 
ATOM     16  C   UNL     1       5.740   3.520  13.525  0.00  0.00    +0.000 A 
ATOM     17  C   UNL     1       6.207   3.432  12.212  0.00  0.00    +0.000 A 
ATOM     18  C   UNL     1       7.250   4.251  11.786  0.00  0.00    +0.000 A 
ATOM     19  C   UNL     1       7.837   5.149  12.676  0.00  0.00    +0.000 A 
ATOM     20  C   UNL     1       7.371   5.239  13.988  0.00  0.00    +0.000 A 
ENDBRANCH  14  15
ENDBRANCH  13  14
ENDBRANCH  12  13
ENDBRANCH  11  12
ENDBRANCH   9  11
ENDBRANCH   6   7
BRANCH   1  21
ATOM     21  C   UNL     1       2.369   5.676  18.098  0.00  0.00    +0.000 C 
BRANCH  21  23
ATOM     22  C   UNL     1       3.173   7.914  17.607  0.00  0.00    +0.000 C 
ATOM     23  N   UNL     1       2.770   6.976  18.660  0.00  0.00    +0.000 NA
BRANCH  23  24
ATOM     24  C   UNL     1       1.672   7.534  19.492  0.00  0.00    +0.000 C 
BRANCH  24  25
ATOM     25  C   UNL     1       1.375   9.028  19.253  0.00  0.00    +0.000 C 
BRANCH  25  26
ATOM     26  C   UNL     1       0.636   9.700  20.370  0.00  0.00    +0.000 A 
ATOM     27  C   UNL     1       0.722   9.173  21.662  0.00  0.00    +0.000 A 
ATOM     28  C   UNL     1       0.097   9.817  22.730  0.00  0.00    +0.000 A 
ATOM     29  C   UNL     1      -0.618  10.987  22.493  0.00  0.00    +0.000 A 
ATOM     30  C   UNL     1      -0.732  11.511  21.210  0.00  0.00    +0.000 A 
ATOM     31  C   UNL     1      -0.099  10.869  20.147  0.00  0.00    +0.000 A 
BRANCH  29  32
ATOM     32  O   UNL     1      -1.220  11.662  23.514  0.00  0.00    +0.000 OA
ATOM     33  H   UNL     1      -1.789  11.039  23.996  0.00  0.00    +0.000 HD
ENDBRANCH  29  32
ENDBRANCH  25  26
ENDBRANCH  24  25
ENDBRANCH  23  24
ENDBRANCH  21  23
ENDBRANCH   1  21
TORSDOF 12
ENDMDL
MODEL 5
REMARK VINA RESULT:      -7.7      4.744      6.829
REMARK  Name = 
REMARK  13 active torsions:
REMARK  status: ('A' for Active; 'I' for Inactive)
REMARK    1  A    between atoms: C_1  and  N_2
REMARK    2  A    between atoms: N_2  and  C_3
REMARK    3  A    between atoms: N_2  and  C_12
REMARK    4  A    between atoms: C_3  and  C_4
REMARK    5  A    between atoms: C_4  and  C_5
REMARK    6  A    between atoms: C_8  and  O_9
REMARK    7  A    between atoms: C_12  and  C_13
REMARK    8  A    between atoms: C_18  and  C_19
REMARK    9  A    between atoms: N_21  and  C_22
REMARK   10  A    between atoms: C_22  and  C_23
REMARK   11  A    between atoms: C_23  and  C_24
REMARK   12  A    between atoms: C_24  and  C_25
REMARK   13  A    between atoms: C_25  and  C_26
REMARK                            x       y       z     vdW  Elec       q    Type
REMARK                         _______ _______ _______ _____ _____    ______ ____
ROOT
ATOM      1  C   UNL     1       5.543   4.707  17.590  0.00  0.00    +0.000 A 
ATOM      2  C   UNL     1       4.877   3.996  16.557  0.00  0.00    +0.000 A 
ATOM      3  C   UNL     1       5.415   3.888  15.277  0.00  0.00    +0.000 A 
ATOM      4  C   UNL     1       6.638   4.477  15.003  0.00  0.00    +0.000 A 
ATOM      5  C   UNL     1       7.274   5.239  15.990  0.00  0.00    +0.000 A 
ATOM      6  C   UNL     1       6.731   5.404  17.282  0.00  0.00    +0.000 A 
ENDROOT
BRANCH   6   7
ATOM      7  C   UNL     1       7.534   6.316  18.180  0.00  0.00    +0.000 C 
ATOM      8  O   UNL     1       8.062   5.846  19.177  0.00  0.00    +0.000 OA
ATOM      9  N   UNL     1       7.712   7.634  17.813  0.00  0.00    +0.000 N 
ATOM     10  H   UNL     1       7.140   8.015  17.060  0.00  0.00    +0.000 HD
BRANCH   9  11
ATOM     11  C   UNL     1       8.562   8.546  18.560  0.00  0.00    +0.000 C 
BRANCH  11  12
ATOM     12  C   UNL     1       8.580   9.990  18.033  0.00  0.00    +0.000 C 
BRANCH  12  13
ATOM     13  C   UNL     1       9.543  10.947  18.748  0.00  0.00    +0.000 C 
BRANCH  13  14
ATOM     14  C   UNL     1      10.732  11.375  17.884  0.00  0.00    +0.000 C 
BRANCH  14  15
ATOM     15  C   UNL     1      11.113  12.824  18.078  0.00  0.00    +0.000 A 
ATOM     16  C   UNL     1      11.429  13.305  19.357  0.00  0.00    +0.000 A 
ATOM     17  C   UNL     1      11.835  14.628  19.537  0.00  0.00    +0.000 A 
ATOM     18  C   UNL     1      11.928  15.484  18.442  0.00  0.00    +0.000 A 
ATOM     19  C   UNL     1      11.603  15.023  17.169  0.00  0.00    +0.000 A 
ATOM     20  C   UNL     1      11.199  13.699  16.986  0.00  0.00    +0.000 A 
ENDBRANCH  14  15
ENDBRANCH  13  14
ENDBRANCH  12  13
ENDBRANCH  11  12
ENDBRANCH   9  11
ENDBRANCH   6   7
BRANCH   1  21
ATOM     21  C   UNL     1       4.979   4.523  18.982  0.00  0.00    +0.000 C 
BRANCH  21  23
ATOM     22  C   UNL     1       3.230   3.144  19.948  0.00  0.00    +0.000 C 
ATOM     23  N   UNL     1       3.531   4.270  19.058  0.00  0.00    +0.000 NA
BRANCH  23  24
ATOM     24  C   UNL     1       2.817   5.503  19.483  0.00  0.00    +0.000 C 
BRANCH  24  25
ATOM     25  C   UNL     1       2.917   6.681  18.495  0.00  0.00    +0.000 C 
BRANCH  25  26
ATOM     26  C   UNL     1       2.120   7.889  18.887  0.00  0.00    +0.000 A 
ATOM     27  C   UNL     1       1.652   8.003  20.199  0.00  0.00    +0.000 A 
ATOM     28  C   UNL     1       0.965   9.147  20.605  0.00  0.00    +0.000 A 
ATOM     29  C   UNL     1       0.747  10.171  19.688  0.00  0.00    +0.000 A 
ATOM     30  C   UNL     1       1.186  10.061  18.374  0.00  0.00    +0.000 A 
ATOM     31  C   UNL     1       1.879   8.920  17.973  0.00  0.00    +0.000 A 
BRANCH  29  32
ATOM     32  O   UNL     1       0.104  11.316  20.054  0.00  0.00    +0.000 OA
ATOM     33  H   UNL     1       0.774  11.970  20.316  0.00  0.00    +0.000 HD
ENDBRANCH  29  32
ENDBRANCH  25  26
ENDBRANCH  24  25
ENDBRANCH  23  24
ENDBRANCH  21  23
ENDBRANCH   1  21
TORSDOF 12
ENDMDL
MODEL 6
REMARK VINA RESULT:      -7.5      4.504      6.726
REMARK  Name = 
REMARK  13 active torsions:
REMARK  status: ('A' for Active; 'I' for Inactive)
REMARK    1  A    between atoms: C_1  and  N_2
REMARK    2  A    between atoms: N_2  and  C_3
REMARK    3  A    between atoms: N_2  and  C_12
REMARK    4  A    between atoms: C_3  and  C_4
REMARK    5  A    between atoms: C_4  and  C_5
REMARK    6  A    between atoms: C_8  and  O_9
REMARK    7  A    between atoms: C_12  and  C_13
REMARK    8  A    between atoms: C_18  and  C_19
REMARK    9  A    between atoms: N_21  and  C_22
REMARK   10  A    between atoms: C_22  and  C_23
REMARK   11  A    between atoms: C_23  and  C_24
REMARK   12  A    between atoms: C_24  and  C_25
REMARK   13  A    between atoms: C_25  and  C_26
REMARK                            x       y       z     vdW  Elec       q    Type
REMARK                         _______ _______ _______ _____ _____    ______ ____
ROOT
ATOM      1  C   UNL     1       5.353   4.879  16.837  0.00  0.00    +0.000 A 
ATOM      2  C   UNL     1       4.834   4.256  15.671  0.00  0.00    +0.000 A 
ATOM      3  C   UNL     1       5.551   4.226  14.477  0.00  0.00    +0.000 A 
ATOM      4  C   UNL     1       6.808   4.803  14.425  0.00  0.00    +0.000 A 
ATOM      5  C   UNL     1       7.303   5.481  15.545  0.00  0.00    +0.000 A 
ATOM      6  C   UNL     1       6.581   5.568  16.754  0.00  0.00    +0.000 A 
ENDROOT
BRANCH   6   7
ATOM      7  C   UNL     1       7.257   6.396  17.821  0.00  0.00    +0.000 C 
ATOM      8  O   UNL     1       7.415   5.912  18.933  0.00  0.00    +0.000 OA
ATOM      9  N   UNL     1       7.743   7.646  17.495  0.00  0.00    +0.000 N 
ATOM     10  H   UNL     1       7.464   8.064  16.608  0.00  0.00    +0.000 HD
BRANCH   9  11
ATOM     11  C   UNL     1       8.504   8.458  18.430  0.00  0.00    +0.000 C 
BRANCH  11  12
ATOM     12  C   UNL     1       8.548   9.958  18.096  0.00  0.00    +0.000 C 
BRANCH  12  13
ATOM     13  C   UNL     1       9.105  10.869  19.196  0.00  0.00    +0.000 C 
BRANCH  13  14
ATOM     14  C   UNL     1      10.626  11.040  19.136  0.00  0.00    +0.000 C 
BRANCH  14  15
ATOM     15  C   UNL     1      11.049  12.406  18.649  0.00  0.00    +0.000 A 
ATOM     16  C   UNL     1      11.002  12.712  17.281  0.00  0.00    +0.000 A 
ATOM     17  C   UNL     1      11.339  13.988  16.827  0.00  0.00    +0.000 A 
ATOM     18  C   UNL     1      11.726  14.971  17.735  0.00  0.00    +0.000 A 
ATOM     19  C   UNL     1      11.790  14.675  19.095  0.00  0.00    +0.000 A 
ATOM     20  C   UNL     1      11.452  13.400  19.550  0.00  0.00    +0.000 A 
ENDBRANCH  14  15
ENDBRANCH  13  14
ENDBRANCH  12  13
ENDBRANCH  11  12
ENDBRANCH   9  11
ENDBRANCH   6   7
BRANCH   1  21
ATOM     21  C   UNL     1       4.591   4.612  18.117  0.00  0.00    +0.000 C 
BRANCH  21  23
ATOM     22  C   UNL     1       2.297   4.098  18.727  0.00  0.00    +0.000 C 
ATOM     23  N   UNL     1       3.201   5.097  18.148  0.00  0.00    +0.000 NA
BRANCH  23  24
ATOM     24  C   UNL     1       3.126   6.387  18.883  0.00  0.00    +0.000 C 
BRANCH  24  25
ATOM     25  C   UNL     1       2.702   7.596  18.027  0.00  0.00    +0.000 C 
BRANCH  25  26
ATOM     26  C   UNL     1       1.774   8.550  18.716  0.00  0.00    +0.000 A 
ATOM     27  C   UNL     1       1.107   9.520  17.961  0.00  0.00    +0.000 A 
ATOM     28  C   UNL     1       0.189  10.376  18.568  0.00  0.00    +0.000 A 
ATOM     29  C   UNL     1      -0.053  10.258  19.934  0.00  0.00    +0.000 A 
ATOM     30  C   UNL     1       0.620   9.313  20.701  0.00  0.00    +0.000 A 
ATOM     31  C   UNL     1       1.531   8.453  20.090  0.00  0.00    +0.000 A 
BRANCH  29  32
ATOM     32  O   UNL     1      -0.964  11.057  20.558  0.00  0.00    +0.000 OA
ATOM     33  H   UNL     1      -1.258  11.734  19.926  0.00  0.00    +0.000 HD
ENDBRANCH  29  32
ENDBRANCH  25  26
ENDBRANCH  24  25
ENDBRANCH  23  24
ENDBRANCH  21  23
ENDBRANCH   1  21
TORSDOF 12
ENDMDL
MODEL 7
REMARK VINA RESULT:      -7.5      1.684      1.858
REMARK  Name = 
REMARK  13 active torsions:
REMARK  status: ('A' for Active; 'I' for Inactive)
REMARK    1  A    between atoms: C_1  and  N_2
REMARK    2  A    between atoms: N_2  and  C_3
REMARK    3  A    between atoms: N_2  and  C_12
REMARK    4  A    between atoms: C_3  and  C_4
REMARK    5  A    between atoms: C_4  and  C_5
REMARK    6  A    between atoms: C_8  and  O_9
REMARK    7  A    between atoms: C_12  and  C_13
REMARK    8  A    between atoms: C_18  and  C_19
REMARK    9  A    between atoms: N_21  and  C_22
REMARK   10  A    between atoms: C_22  and  C_23
REMARK   11  A    between atoms: C_23  and  C_24
REMARK   12  A    between atoms: C_24  and  C_25
REMARK   13  A    between atoms: C_25  and  C_26
REMARK                            x       y       z     vdW  Elec       q    Type
REMARK                         _______ _______ _______ _____ _____    ______ ____
ROOT
ATOM      1  C   UNL     1       2.228   4.395  19.252  0.00  0.00    +0.000 A 
ATOM      2  C   UNL     1       1.153   4.134  20.143  0.00  0.00    +0.000 A 
ATOM      3  C   UNL     1       1.267   3.206  21.175  0.00  0.00    +0.000 A 
ATOM      4  C   UNL     1       2.461   2.528  21.350  0.00  0.00    +0.000 A 
ATOM      5  C   UNL     1       3.506   2.723  20.439  0.00  0.00    +0.000 A 
ATOM      6  C   UNL     1       3.404   3.622  19.356  0.00  0.00    +0.000 A 
ENDROOT
BRANCH   6   7
ATOM      7  C   UNL     1       4.612   3.640  18.450  0.00  0.00    +0.000 C 
ATOM      8  O   UNL     1       4.487   3.271  17.291  0.00  0.00    +0.000 OA
ATOM      9  N   UNL     1       5.805   4.141  18.930  0.00  0.00    +0.000 N 
ATOM     10  H   UNL     1       5.902   4.300  19.933  0.00  0.00    +0.000 HD
BRANCH   9  11
ATOM     11  C   UNL     1       6.981   4.299  18.092  0.00  0.00    +0.000 C 
BRANCH  11  12
ATOM     12  C   UNL     1       7.176   5.709  17.510  0.00  0.00    +0.000 C 
BRANCH  12  13
ATOM     13  C   UNL     1       7.352   5.782  15.989  0.00  0.00    +0.000 C 
BRANCH  13  14
ATOM     14  C   UNL     1       6.043   5.605  15.213  0.00  0.00    +0.000 C 
BRANCH  14  15
ATOM     15  C   UNL     1       6.214   4.816  13.937  0.00  0.00    +0.000 A 
ATOM     16  C   UNL     1       7.372   4.974  13.160  0.00  0.00    +0.000 A 
ATOM     17  C   UNL     1       7.563   4.209  12.008  0.00  0.00    +0.000 A 
ATOM     18  C   UNL     1       6.601   3.280  11.620  0.00  0.00    +0.000 A 
ATOM     19  C   UNL     1       5.440   3.124  12.375  0.00  0.00    +0.000 A 
ATOM     20  C   UNL     1       5.248   3.887  13.528  0.00  0.00    +0.000 A 
ENDBRANCH  14  15
ENDBRANCH  13  14
ENDBRANCH  12  13
ENDBRANCH  11  12
ENDBRANCH   9  11
ENDBRANCH   6   7
BRANCH   1  21
ATOM     21  C   UNL     1       2.056   5.599  18.353  0.00  0.00    +0.000 C 
BRANCH  21  23
ATOM     22  C   UNL     1       3.817   7.084  17.582  0.00  0.00    +0.000 C 
ATOM     23  N   UNL     1       2.894   6.766  18.677  0.00  0.00    +0.000 NA
BRANCH  23  24
ATOM     24  C   UNL     1       2.038   7.931  19.020  0.00  0.00    +0.000 C 
BRANCH  24  25
ATOM     25  C   UNL     1       1.960   9.020  17.931  0.00  0.00    +0.000 C 
BRANCH  25  26
ATOM     26  C   UNL     1       0.970  10.110  18.212  0.00  0.00    +0.000 A 
ATOM     27  C   UNL     1      -0.395   9.851  18.055  0.00  0.00    +0.000 A 
ATOM     28  C   UNL     1      -1.338  10.828  18.373  0.00  0.00    +0.000 A 
ATOM     29  C   UNL     1      -0.905  12.064  18.842  0.00  0.00    +0.000 A 
ATOM     30  C   UNL     1       0.450  12.344  18.982  0.00  0.00    +0.000 A 
ATOM     31  C   UNL     1       1.390  11.363  18.671  0.00  0.00    +0.000 A 
BRANCH  29  32
ATOM     32  O   UNL     1      -1.797  13.035  19.190  0.00  0.00    +0.000 OA
ATOM     33  H   UNL     1      -2.071  12.881  20.109  0.00  0.00    +0.000 HD
ENDBRANCH  29  32
ENDBRANCH  25  26
ENDBRANCH  24  25
ENDBRANCH  23  24
ENDBRANCH  21  23
ENDBRANCH   1  21
TORSDOF 12
ENDMDL
MODEL 8
REMARK VINA RESULT:      -7.4      2.116      2.955
REMARK  Name = 
REMARK  13 active torsions:
REMARK  status: ('A' for Active; 'I' for Inactive)
REMARK    1  A    between atoms: C_1  and  N_2
REMARK    2  A    between atoms: N_2  and  C_3
REMARK    3  A    between atoms: N_2  and  C_12
REMARK    4  A    between atoms: C_3  and  C_4
REMARK    5  A    between atoms: C_4  and  C_5
REMARK    6  A    between atoms: C_8  and  O_9
REMARK    7  A    between atoms: C_12  and  C_13
REMARK    8  A    between atoms: C_18  and  C_19
REMARK    9  A    between atoms: N_21  and  C_22
REMARK   10  A    between atoms: C_22  and  C_23
REMARK   11  A    between atoms: C_23  and  C_24
REMARK   12  A    between atoms: C_24  and  C_25
REMARK   13  A    between atoms: C_25  and  C_26
REMARK                            x       y       z     vdW  Elec       q    Type
REMARK                         _______ _______ _______ _____ _____    ______ ____
ROOT
ATOM      1  C   UNL     1       1.892   6.064  19.986  0.00  0.00    +0.000 A 
ATOM      2  C   UNL     1       0.984   5.147  20.579  0.00  0.00    +0.000 A 
ATOM      3  C   UNL     1       0.981   3.796  20.239  0.00  0.00    +0.000 A 
ATOM      4  C   UNL     1       1.894   3.328  19.311  0.00  0.00    +0.000 A 
ATOM      5  C   UNL     1       2.749   4.230  18.667  0.00  0.00    +0.000 A 
ATOM      6  C   UNL     1       2.744   5.612  18.956  0.00  0.00    +0.000 A 
ENDROOT
BRANCH   6   7
ATOM      7  C   UNL     1       3.693   6.426  18.109  0.00  0.00    +0.000 C 
ATOM      8  O   UNL     1       3.255   7.381  17.485  0.00  0.00    +0.000 OA
ATOM      9  N   UNL     1       5.038   6.117  18.120  0.00  0.00    +0.000 N 
ATOM     10  H   UNL     1       5.334   5.233  18.534  0.00  0.00    +0.000 HD
BRANCH   9  11
ATOM     11  C   UNL     1       6.030   6.919  17.424  0.00  0.00    +0.000 C 
BRANCH  11  12
ATOM     12  C   UNL     1       7.244   6.133  16.901  0.00  0.00    +0.000 C 
BRANCH  12  13
ATOM     13  C   UNL     1       7.051   4.617  16.773  0.00  0.00    +0.000 C 
BRANCH  13  14
ATOM     14  C   UNL     1       5.917   4.224  15.821  0.00  0.00    +0.000 C 
BRANCH  14  15
ATOM     15  C   UNL     1       6.329   4.251  14.368  0.00  0.00    +0.000 A 
ATOM     16  C   UNL     1       7.390   5.068  13.951  0.00  0.00    +0.000 A 
ATOM     17  C   UNL     1       7.813   5.058  12.621  0.00  0.00    +0.000 A 
ATOM     18  C   UNL     1       7.180   4.234  11.694  0.00  0.00    +0.000 A 
ATOM     19  C   UNL     1       6.115   3.429  12.092  0.00  0.00    +0.000 A 
ATOM     20  C   UNL     1       5.692   3.436  13.423  0.00  0.00    +0.000 A 
ENDBRANCH  14  15
ENDBRANCH  13  14
ENDBRANCH  12  13
ENDBRANCH  11  12
ENDBRANCH   9  11
ENDBRANCH   6   7
BRANCH   1  21
ATOM     21  C   UNL     1       1.959   7.431  20.632  0.00  0.00    +0.000 C 
BRANCH  21  23
ATOM     22  C   UNL     1       0.161   8.749  21.594  0.00  0.00    +0.000 C 
ATOM     23  N   UNL     1       0.823   8.326  20.356  0.00  0.00    +0.000 NA
BRANCH  23  24
ATOM     24  C   UNL     1       1.276   9.495  19.556  0.00  0.00    +0.000 C 
BRANCH  24  25
ATOM     25  C   UNL     1       0.610   9.629  18.173  0.00  0.00    +0.000 C 
BRANCH  25  26
ATOM     26  C   UNL     1      -0.704  10.351  18.183  0.00  0.00    +0.000 A 
ATOM     27  C   UNL     1      -1.728   9.920  17.335  0.00  0.00    +0.000 A 
ATOM     28  C   UNL     1      -2.980  10.534  17.373  0.00  0.00    +0.000 A 
ATOM     29  C   UNL     1      -3.196  11.583  18.261  0.00  0.00    +0.000 A 
ATOM     30  C   UNL     1      -2.180  12.038  19.094  0.00  0.00    +0.000 A 
ATOM     31  C   UNL     1      -0.933  11.417  19.060  0.00  0.00    +0.000 A 
BRANCH  29  32
ATOM     32  O   UNL     1      -4.414  12.190  18.348  0.00  0.00    +0.000 OA
ATOM     33  H   UNL     1      -4.372  13.027  17.855  0.00  0.00    +0.000 HD
ENDBRANCH  29  32
ENDBRANCH  25  26
ENDBRANCH  24  25
ENDBRANCH  23  24
ENDBRANCH  21  23
ENDBRANCH   1  21
TORSDOF 12
ENDMDL
MODEL 9
REMARK VINA RESULT:      -7.4      4.406      7.925
REMARK  Name = 
REMARK  13 active torsions:
REMARK  status: ('A' for Active; 'I' for Inactive)
REMARK    1  A    between atoms: C_1  and  N_2
REMARK    2  A    between atoms: N_2  and  C_3
REMARK    3  A    between atoms: N_2  and  C_12
REMARK    4  A    between atoms: C_3  and  C_4
REMARK    5  A    between atoms: C_4  and  C_5
REMARK    6  A    between atoms: C_8  and  O_9
REMARK    7  A    between atoms: C_12  and  C_13
REMARK    8  A    between atoms: C_18  and  C_19
REMARK    9  A    between atoms: N_21  and  C_22
REMARK   10  A    between atoms: C_22  and  C_23
REMARK   11  A    between atoms: C_23  and  C_24
REMARK   12  A    between atoms: C_24  and  C_25
REMARK   13  A    between atoms: C_25  and  C_26
REMARK                            x       y       z     vdW  Elec       q    Type
REMARK                         _______ _______ _______ _____ _____    ______ ____
ROOT
ATOM      1  C   UNL     1       6.266   6.245  16.678  0.00  0.00    +0.000 A 
ATOM      2  C   UNL     1       7.062   5.227  16.089  0.00  0.00    +0.000 A 
ATOM      3  C   UNL     1       6.532   3.982  15.758  0.00  0.00    +0.000 A 
ATOM      4  C   UNL     1       5.192   3.730  15.996  0.00  0.00    +0.000 A 
ATOM      5  C   UNL     1       4.411   4.697  16.639  0.00  0.00    +0.000 A 
ATOM      6  C   UNL     1       4.931   5.951  17.027  0.00  0.00    +0.000 A 
ENDROOT
BRANCH   6   7
ATOM      7  C   UNL     1       3.948   6.828  17.765  0.00  0.00    +0.000 C 
ATOM      8  O   UNL     1       3.645   7.910  17.284  0.00  0.00    +0.000 OA
ATOM      9  N   UNL     1       3.364   6.356  18.923  0.00  0.00    +0.000 N 
ATOM     10  H   UNL     1       3.750   5.521  19.362  0.00  0.00    +0.000 HD
BRANCH   9  11
ATOM     11  C   UNL     1       2.326   7.088  19.630  0.00  0.00    +0.000 C 
BRANCH  11  12
ATOM     12  C   UNL     1       1.721   6.349  20.835  0.00  0.00    +0.000 C 
BRANCH  12  13
ATOM     13  C   UNL     1       0.979   5.047  20.512  0.00  0.00    +0.000 C 
BRANCH  13  14
ATOM     14  C   UNL     1       1.637   3.803  21.116  0.00  0.00    +0.000 C 
BRANCH  14  15
ATOM     15  C   UNL     1       2.334   2.944  20.086  0.00  0.00    +0.000 A 
ATOM     16  C   UNL     1       1.715   2.674  18.858  0.00  0.00    +0.000 A 
ATOM     17  C   UNL     1       2.374   1.927  17.879  0.00  0.00    +0.000 A 
ATOM     18  C   UNL     1       3.658   1.443  18.120  0.00  0.00    +0.000 A 
ATOM     19  C   UNL     1       4.279   1.693  19.342  0.00  0.00    +0.000 A 
ATOM     20  C   UNL     1       3.621   2.440  20.320  0.00  0.00    +0.000 A 
ENDBRANCH  14  15
ENDBRANCH  13  14
ENDBRANCH  12  13
ENDBRANCH  11  12
ENDBRANCH   9  11
ENDBRANCH   6   7
BRANCH   1  21
ATOM     21  C   UNL     1       6.899   7.617  16.742  0.00  0.00    +0.000 C 
BRANCH  21  23
ATOM     22  C   UNL     1       8.147   6.874  18.688  0.00  0.00    +0.000 C 
ATOM     23  N   UNL     1       7.465   8.002  18.045  0.00  0.00    +0.000 NA
BRANCH  23  24
ATOM     24  C   UNL     1       8.376   9.166  17.884  0.00  0.00    +0.000 C 
BRANCH  24  25
ATOM     25  C   UNL     1       8.936   9.736  19.202  0.00  0.00    +0.000 C 
BRANCH  25  26
ATOM     26  C   UNL     1       9.794  10.954  19.037  0.00  0.00    +0.000 A 
ATOM     27  C   UNL     1      10.694  11.299  20.050  0.00  0.00    +0.000 A 
ATOM     28  C   UNL     1      11.549  12.390  19.892  0.00  0.00    +0.000 A 
ATOM     29  C   UNL     1      11.491  13.134  18.717  0.00  0.00    +0.000 A 
ATOM     30  C   UNL     1      10.586  12.816  17.711  0.00  0.00    +0.000 A 
ATOM     31  C   UNL     1       9.738  11.721  17.869  0.00  0.00    +0.000 A 
BRANCH  29  32
ATOM     32  O   UNL     1      12.330  14.190  18.512  0.00  0.00    +0.000 OA
ATOM     33  H   UNL     1      11.924  14.980  18.906  0.00  0.00    +0.000 HD
ENDBRANCH  29  32
ENDBRANCH  25  26
ENDBRANCH  24  25
ENDBRANCH  23  24
ENDBRANCH  21  23
ENDBRANCH   1  21
TORSDOF 12
ENDMDL
