MODEL 1
REMARK VINA RESULT:      -7.6      0.000      0.000
REMARK  Name = 
REMARK  8 active torsions:
REMARK  status: ('A' for Active; 'I' for Inactive)
REMARK    1  A    between atoms: C_1  and  C_2
REMARK    2  A    between atoms: C_5  and  C_6
REMARK    3  A    between atoms: C_7  and  N_8
REMARK    4  A    between atoms: C_9  and  C_11
REMARK    5  A    between atoms: C_11  and  N_12
REMARK    6  A    between atoms: N_12  and  C_13
REMARK    7  A    between atoms: C_14  and  C_16
REMARK    8  A    between atoms: C_16  and  C_17
REMARK                            x       y       z     vdW  Elec       q    Type
REMARK                         _______ _______ _______ _____ _____    ______ ____
ROOT
ATOM      1  C   UNL     1       1.701   8.685  21.098  0.00  0.00    +0.000 C 
ENDROOT
BRANCH   1   3
ATOM      2  N   UNL     1       2.313   6.498  20.192  0.00  0.00    +0.000 N 
ATOM      3  C   UNL     1       1.973   7.807  19.873  0.00  0.00    +0.000 C 
ATOM      4  O   UNL     1       1.815   8.239  18.735  0.00  0.00    +0.000 OA
ATOM      5  H   UNL     1       1.945   6.169  21.084  0.00  0.00    +0.000 HD
BRANCH   2  12
ATOM      6  C   UNL     1       5.118   5.154  16.319  0.00  0.00    +0.000 C 
ATOM      7  C   UNL     1       4.017   4.862  17.297  0.00  0.00    +0.000 A 
ATOM      8  C   UNL     1       3.337   3.644  17.259  0.00  0.00    +0.000 A 
ATOM      9  C   UNL     1       2.347   3.361  18.201  0.00  0.00    +0.000 A 
ATOM     10  C   UNL     1       2.014   4.287  19.202  0.00  0.00    +0.000 A 
ATOM     11  C   UNL     1       0.914   3.952  20.166  0.00  0.00    +0.000 C 
ATOM     12  C   UNL     1       2.657   5.535  19.216  0.00  0.00    +0.000 A 
ATOM     13  C   UNL     1       3.661   5.808  18.270  0.00  0.00    +0.000 A 
ENDBRANCH   2  12
ENDBRANCH   1   3
BRANCH   1  14
ATOM     14  N   UNL     1       0.390   9.340  21.101  0.00  0.00    +0.000 N 
ATOM     15  C   UNL     1      -0.700   8.684  21.814  0.00  0.00    +0.000 C 
ATOM     16  C   UNL     1       0.291  10.611  20.559  0.00  0.00    +0.000 C 
ATOM     17  O   UNL     1       1.306  11.233  20.225  0.00  0.00    +0.000 OA
BRANCH  16  18
ATOM     18  C   UNL     1      -1.091  11.235  20.401  0.00  0.00    +0.000 C 
BRANCH  18  19
ATOM     19  C   UNL     1      -1.778  11.034  19.064  0.00  0.00    +0.000 A 
ATOM     20  C   UNL     1      -1.230  10.209  18.069  0.00  0.00    +0.000 A 
ATOM     21  C   UNL     1      -1.888  10.012  16.851  0.00  0.00    +0.000 A 
ATOM     22  C   UNL     1      -3.100  10.646  16.610  0.00  0.00    +0.000 A 
ATOM     23 CL   UNL     1      -3.908  10.399  15.111  0.00  0.00    +0.000 Cl
ATOM     24  C   UNL     1      -3.661  11.479  17.576  0.00  0.00    +0.000 A 
ATOM     25  C   UNL     1      -3.006  11.667  18.787  0.00  0.00    +0.000 A 
ATOM     26 CL   UNL     1      -3.757  12.722  19.938  0.00  0.00    +0.000 Cl
ENDBRANCH  18  19
ENDBRANCH  16  18
ENDBRANCH   1  14
TORSDOF 5
ENDMDL
MODEL 2
REMARK VINA RESULT:      -7.6      2.527      3.502
REMARK  Name = 
REMARK  8 active torsions:
REMARK  status: ('A' for Active; 'I' for Inactive)
REMARK    1  A    between atoms: C_1  and  C_2
REMARK    2  A    between atoms: C_5  and  C_6
REMARK    3  A    between atoms: C_7  and  N_8
REMARK    4  A    between atoms: C_9  and  C_11
REMARK    5  A    between atoms: C_11  and  N_12
REMARK    6  A    between atoms: N_12  and  C_13
REMARK    7  A    between atoms: C_14  and  C_16
REMARK    8  A    between atoms: C_16  and  C_17
REMARK                            x       y       z     vdW  Elec       q    Type
REMARK                         _______ _______ _______ _____ _____    ______ ____
ROOT
ATOM      1  C   UNL     1       1.144   9.675  22.055  0.00  0.00    +0.000 C 
ENDROOT
BRANCH   1   3
ATOM      2  N   UNL     1       2.021   7.734  20.854  0.00  0.00    +0.000 N 
ATOM      3  C   UNL     1       0.870   8.368  21.304  0.00  0.00    +0.000 C 
ATOM      4  O   UNL     1      -0.269   7.920  21.204  0.00  0.00    +0.000 OA
ATOM      5  H   UNL     1       2.859   7.937  21.399  0.00  0.00    +0.000 HD
BRANCH   2  12
ATOM      6  C   UNL     1       1.224   2.837  20.603  0.00  0.00    +0.000 C 
ATOM      7  C   UNL     1       1.622   4.129  19.952  0.00  0.00    +0.000 A 
ATOM      8  C   UNL     1       1.955   4.170  18.597  0.00  0.00    +0.000 A 
ATOM      9  C   UNL     1       2.279   5.383  17.988  0.00  0.00    +0.000 A 
ATOM     10  C   UNL     1       2.278   6.583  18.717  0.00  0.00    +0.000 A 
ATOM     11  C   UNL     1       2.673   7.854  18.025  0.00  0.00    +0.000 C 
ATOM     12  C   UNL     1       1.993   6.544  20.092  0.00  0.00    +0.000 A 
ATOM     13  C   UNL     1       1.658   5.320  20.696  0.00  0.00    +0.000 A 
ENDBRANCH   2  12
ENDBRANCH   1   3
BRANCH   1  14
ATOM     14  N   UNL     1       0.431  10.843  21.529  0.00  0.00    +0.000 N 
ATOM     15  C   UNL     1       0.688  11.236  20.150  0.00  0.00    +0.000 C 
ATOM     16  C   UNL     1      -0.554  11.417  22.316  0.00  0.00    +0.000 C 
ATOM     17  O   UNL     1      -0.926  10.869  23.360  0.00  0.00    +0.000 OA
BRANCH  16  18
ATOM     18  C   UNL     1      -1.185  12.729  21.859  0.00  0.00    +0.000 C 
BRANCH  18  19
ATOM     19  C   UNL     1      -2.616  12.656  21.363  0.00  0.00    +0.000 A 
ATOM     20  C   UNL     1      -2.919  12.447  20.008  0.00  0.00    +0.000 A 
ATOM     21  C   UNL     1      -4.244  12.357  19.570  0.00  0.00    +0.000 A 
ATOM     22  C   UNL     1      -5.284  12.482  20.482  0.00  0.00    +0.000 A 
ATOM     23 CL   UNL     1      -6.913  12.366  19.940  0.00  0.00    +0.000 Cl
ATOM     24  C   UNL     1      -5.012  12.699  21.831  0.00  0.00    +0.000 A 
ATOM     25  C   UNL     1      -3.693  12.784  22.263  0.00  0.00    +0.000 A 
ATOM     26 CL   UNL     1      -3.429  13.065  23.951  0.00  0.00    +0.000 Cl
ENDBRANCH  18  19
ENDBRANCH  16  18
ENDBRANCH   1  14
TORSDOF 5
ENDMDL
MODEL 3
REMARK VINA RESULT:      -7.6      4.599      8.183
REMARK  Name = 
REMARK  8 active torsions:
REMARK  status: ('A' for Active; 'I' for Inactive)
REMARK    1  A    between atoms: C_1  and  C_2
REMARK    2  A    between atoms: C_5  and  C_6
REMARK    3  A    between atoms: C_7  and  N_8
REMARK    4  A    between atoms: C_9  and  C_11
REMARK    5  A    between atoms: C_11  and  N_12
REMARK    6  A    between atoms: N_12  and  C_13
REMARK    7  A    between atoms: C_14  and  C_16
REMARK    8  A    between atoms: C_16  and  C_17
REMARK                            x       y       z     vdW  Elec       q    Type
REMARK                         _______ _______ _______ _____ _____    ______ ____
ROOT
ATOM      1  C   UNL     1       2.299   2.972  20.571  0.00  0.00    +0.000 C 
ENDROOT
BRANCH   1   3
ATOM      2  N   UNL     1       2.435   5.403  20.352  0.00  0.00    +0.000 N 
ATOM      3  C   UNL     1       1.578   4.311  20.386  0.00  0.00    +0.000 C 
ATOM      4  O   UNL     1       0.364   4.358  20.208  0.00  0.00    +0.000 OA
ATOM      5  H   UNL     1       3.380   5.193  20.031  0.00  0.00    +0.000 HD
BRANCH   2  12
ATOM      6  C   UNL     1       0.065   9.281  22.358  0.00  0.00    +0.000 C 
ATOM      7  C   UNL     1       0.796   8.651  21.209  0.00  0.00    +0.000 A 
ATOM      8  C   UNL     1       1.037   9.371  20.038  0.00  0.00    +0.000 A 
ATOM      9  C   UNL     1       1.758   8.794  18.992  0.00  0.00    +0.000 A 
ATOM     10  C   UNL     1       2.256   7.485  19.091  0.00  0.00    +0.000 A 
ATOM     11  C   UNL     1       2.990   6.897  17.922  0.00  0.00    +0.000 C 
ATOM     12  C   UNL     1       1.975   6.736  20.245  0.00  0.00    +0.000 A 
ATOM     13  C   UNL     1       1.257   7.327  21.298  0.00  0.00    +0.000 A 
ENDBRANCH   2  12
ENDBRANCH   1   3
BRANCH   1  14
ATOM     14  N   UNL     1       3.487   2.796  19.731  0.00  0.00    +0.000 N 
ATOM     15  C   UNL     1       4.654   2.153  20.324  0.00  0.00    +0.000 C 
ATOM     16  C   UNL     1       3.390   3.111  18.385  0.00  0.00    +0.000 C 
ATOM     17  O   UNL     1       2.295   3.384  17.880  0.00  0.00    +0.000 OA
BRANCH  16  18
ATOM     18  C   UNL     1       4.657   3.096  17.536  0.00  0.00    +0.000 C 
BRANCH  18  19
ATOM     19  C   UNL     1       5.496   4.359  17.547  0.00  0.00    +0.000 A 
ATOM     20  C   UNL     1       5.984   4.912  18.742  0.00  0.00    +0.000 A 
ATOM     21  C   UNL     1       6.778   6.063  18.734  0.00  0.00    +0.000 A 
ATOM     22  C   UNL     1       7.089   6.680  17.529  0.00  0.00    +0.000 A 
ATOM     23 CL   UNL     1       8.070   8.093  17.523  0.00  0.00    +0.000 Cl
ATOM     24  C   UNL     1       6.611   6.158  16.329  0.00  0.00    +0.000 A 
ATOM     25  C   UNL     1       5.825   5.011  16.342  0.00  0.00    +0.000 A 
ATOM     26 CL   UNL     1       5.258   4.423  14.815  0.00  0.00    +0.000 Cl
ENDBRANCH  18  19
ENDBRANCH  16  18
ENDBRANCH   1  14
TORSDOF 5
ENDMDL
MODEL 4
REMARK VINA RESULT:      -7.4      2.522      3.830
REMARK  Name = 
REMARK  8 active torsions:
REMARK  status: ('A' for Active; 'I' for Inactive)
REMARK    1  A    between atoms: C_1  and  C_2
REMARK    2  A    between atoms: C_5  and  C_6
REMARK    3  A    between atoms: C_7  and  N_8
REMARK    4  A    between atoms: C_9  and  C_11
REMARK    5  A    between atoms: C_11  and  N_12
REMARK    6  A    between atoms: N_12  and  C_13
REMARK    7  A    between atoms: C_14  and  C_16
REMARK    8  A    between atoms: C_16  and  C_17
REMARK                            x       y       z     vdW  Elec       q    Type
REMARK                         _______ _______ _______ _____ _____    ______ ____
ROOT
ATOM      1  C   UNL     1       1.188   9.583  22.101  0.00  0.00    +0.000 C 
ENDROOT
BRANCH   1   3
ATOM      2  N   UNL     1       2.052   7.654  20.871  0.00  0.00    +0.000 N 
ATOM      3  C   UNL     1       0.904   8.301  21.312  0.00  0.00    +0.000 C 
ATOM      4  O   UNL     1      -0.241   7.879  21.177  0.00  0.00    +0.000 OA
ATOM      5  H   UNL     1       2.881   7.827  21.438  0.00  0.00    +0.000 HD
BRANCH   2  12
ATOM      6  C   UNL     1       1.210   2.773  20.493  0.00  0.00    +0.000 C 
ATOM      7  C   UNL     1       1.623   4.078  19.876  0.00  0.00    +0.000 A 
ATOM      8  C   UNL     1       1.963   4.149  18.524  0.00  0.00    +0.000 A 
ATOM      9  C   UNL     1       2.301   5.374  17.948  0.00  0.00    +0.000 A 
ATOM     10  C   UNL     1       2.307   6.555  18.706  0.00  0.00    +0.000 A 
ATOM     11  C   UNL     1       2.718   7.840  18.049  0.00  0.00    +0.000 C 
ATOM     12  C   UNL     1       2.016   6.484  20.078  0.00  0.00    +0.000 A 
ATOM     13  C   UNL     1       1.667   5.248  20.650  0.00  0.00    +0.000 A 
ENDBRANCH   2  12
ENDBRANCH   1   3
BRANCH   1  14
ATOM     14  N   UNL     1       0.500  10.775  21.598  0.00  0.00    +0.000 N 
ATOM     15  C   UNL     1       0.806  11.220  20.244  0.00  0.00    +0.000 C 
ATOM     16  C   UNL     1      -0.509  11.325  22.373  0.00  0.00    +0.000 C 
ATOM     17  O   UNL     1      -0.918  10.739  23.381  0.00  0.00    +0.000 OA
BRANCH  16  18
ATOM     18  C   UNL     1      -1.116  12.658  21.946  0.00  0.00    +0.000 C 
BRANCH  18  19
ATOM     19  C   UNL     1      -2.628  12.713  21.846  0.00  0.00    +0.000 A 
ATOM     20  C   UNL     1      -3.436  12.913  22.977  0.00  0.00    +0.000 A 
ATOM     21  C   UNL     1      -4.828  12.988  22.866  0.00  0.00    +0.000 A 
ATOM     22  C   UNL     1      -5.430  12.856  21.621  0.00  0.00    +0.000 A 
ATOM     23 CL   UNL     1      -7.143  12.953  21.487  0.00  0.00    +0.000 Cl
ATOM     24  C   UNL     1      -4.652  12.648  20.484  0.00  0.00    +0.000 A 
ATOM     25  C   UNL     1      -3.268  12.579  20.598  0.00  0.00    +0.000 A 
ATOM     26 CL   UNL     1      -2.366  12.309  19.145  0.00  0.00    +0.000 Cl
ENDBRANCH  18  19
ENDBRANCH  16  18
ENDBRANCH   1  14
TORSDOF 5
ENDMDL
MODEL 5
REMARK VINA RESULT:      -7.3      2.009      3.183
REMARK  Name = 
REMARK  8 active torsions:
REMARK  status: ('A' for Active; 'I' for Inactive)
REMARK    1  A    between atoms: C_1  and  C_2
REMARK    2  A    between atoms: C_5  and  C_6
REMARK    3  A    between atoms: C_7  and  N_8
REMARK    4  A    between atoms: C_9  and  C_11
REMARK    5  A    between atoms: C_11  and  N_12
REMARK    6  A    between atoms: N_12  and  C_13
REMARK    7  A    between atoms: C_14  and  C_16
REMARK    8  A    between atoms: C_16  and  C_17
REMARK                            x       y       z     vdW  Elec       q    Type
REMARK                         _______ _______ _______ _____ _____    ______ ____
ROOT
ATOM      1  C   UNL     1       2.409   6.782  19.693  0.00  0.00    +0.000 C 
ENDROOT
BRANCH   1   3
ATOM      2  N   UNL     1       4.499   6.286  18.523  0.00  0.00    +0.000 N 
ATOM      3  C   UNL     1       3.204   5.850  18.772  0.00  0.00    +0.000 C 
ATOM      4  O   UNL     1       2.727   4.788  18.380  0.00  0.00    +0.000 OA
ATOM      5  H   UNL     1       4.898   6.872  19.256  0.00  0.00    +0.000 HD
BRANCH   2  12
ATOM      6  C   UNL     1       5.427   4.284  14.073  0.00  0.00    +0.000 C 
ATOM      7  C   UNL     1       5.854   4.598  15.477  0.00  0.00    +0.000 A 
ATOM      8  C   UNL     1       7.122   4.234  15.932  0.00  0.00    +0.000 A 
ATOM      9  C   UNL     1       7.529   4.571  17.224  0.00  0.00    +0.000 A 
ATOM     10  C   UNL     1       6.680   5.280  18.090  0.00  0.00    +0.000 A 
ATOM     11  C   UNL     1       7.150   5.582  19.482  0.00  0.00    +0.000 C 
ATOM     12  C   UNL     1       5.385   5.605  17.657  0.00  0.00    +0.000 A 
ATOM     13  C   UNL     1       4.986   5.271  16.351  0.00  0.00    +0.000 A 
ENDBRANCH   2  12
ENDBRANCH   1   3
BRANCH   1  14
ATOM     14  N   UNL     1       2.031   8.062  19.088  0.00  0.00    +0.000 N 
ATOM     15  C   UNL     1       2.402   8.297  17.698  0.00  0.00    +0.000 C 
ATOM     16  C   UNL     1       1.216   8.914  19.816  0.00  0.00    +0.000 C 
ATOM     17  O   UNL     1       0.700   8.540  20.875  0.00  0.00    +0.000 OA
BRANCH  16  18
ATOM     18  C   UNL     1       0.953  10.316  19.275  0.00  0.00    +0.000 C 
BRANCH  18  19
ATOM     19  C   UNL     1      -0.440  10.586  18.741  0.00  0.00    +0.000 A 
ATOM     20  C   UNL     1      -0.948   9.906  17.622  0.00  0.00    +0.000 A 
ATOM     21  C   UNL     1      -2.244  10.148  17.158  0.00  0.00    +0.000 A 
ATOM     22  C   UNL     1      -3.048  11.080  17.803  0.00  0.00    +0.000 A 
ATOM     23 CL   UNL     1      -4.644  11.371  17.231  0.00  0.00    +0.000 Cl
ATOM     24  C   UNL     1      -2.565  11.776  18.909  0.00  0.00    +0.000 A 
ATOM     25  C   UNL     1      -1.277  11.529  19.370  0.00  0.00    +0.000 A 
ATOM     26 CL   UNL     1      -0.740  12.437  20.744  0.00  0.00    +0.000 Cl
ENDBRANCH  18  19
ENDBRANCH  16  18
ENDBRANCH   1  14
TORSDOF 5
ENDMDL
MODEL 6
REMARK VINA RESULT:      -7.2      3.374      8.243
REMARK  Name = 
REMARK  8 active torsions:
REMARK  status: ('A' for Active; 'I' for Inactive)
REMARK    1  A    between atoms: C_1  and  C_2
REMARK    2  A    between atoms: C_5  and  C_6
REMARK    3  A    between atoms: C_7  and  N_8
REMARK    4  A    between atoms: C_9  and  C_11
REMARK    5  A    between atoms: C_11  and  N_12
REMARK    6  A    between atoms: N_12  and  C_13
REMARK    7  A    between atoms: C_14  and  C_16
REMARK    8  A    between atoms: C_16  and  C_17
REMARK                            x       y       z     vdW  Elec       q    Type
REMARK                         _______ _______ _______ _____ _____    ______ ____
ROOT
ATOM      1  C   UNL     1       1.210  10.969  18.630  0.00  0.00    +0.000 C 
ENDROOT
BRANCH   1   3
ATOM      2  N   UNL     1      -1.139  10.823  17.966  0.00  0.00    +0.000 N 
ATOM      3  C   UNL     1      -0.224  11.491  18.770  0.00  0.00    +0.000 C 
ATOM      4  O   UNL     1      -0.505  12.363  19.587  0.00  0.00    +0.000 OA
ATOM      5  H   UNL     1      -0.880   9.865  17.733  0.00  0.00    +0.000 HD
BRANCH   2  12
ATOM      6  C   UNL     1      -5.159  12.767  20.142  0.00  0.00    +0.000 C 
ATOM      7  C   UNL     1      -4.501  12.118  18.960  0.00  0.00    +0.000 A 
ATOM      8  C   UNL     1      -5.221  11.874  17.790  0.00  0.00    +0.000 A 
ATOM      9  C   UNL     1      -4.590  11.313  16.679  0.00  0.00    +0.000 A 
ATOM     10  C   UNL     1      -3.226  10.984  16.710  0.00  0.00    +0.000 A 
ATOM     11  C   UNL     1      -2.604  10.346  15.503  0.00  0.00    +0.000 C 
ATOM     12  C   UNL     1      -2.506  11.180  17.899  0.00  0.00    +0.000 A 
ATOM     13  C   UNL     1      -3.146  11.755  19.011  0.00  0.00    +0.000 A 
ENDBRANCH   2  12
ENDBRANCH   1   3
BRANCH   1  14
ATOM     14  N   UNL     1       1.422   9.616  19.153  0.00  0.00    +0.000 N 
ATOM     15  C   UNL     1       0.897   9.305  20.476  0.00  0.00    +0.000 C 
ATOM     16  C   UNL     1       1.974   8.667  18.307  0.00  0.00    +0.000 C 
ATOM     17  O   UNL     1       2.137   8.913  17.107  0.00  0.00    +0.000 OA
BRANCH  16  18
ATOM     18  C   UNL     1       2.356   7.308  18.883  0.00  0.00    +0.000 C 
BRANCH  18  19
ATOM     19  C   UNL     1       3.254   6.436  18.026  0.00  0.00    +0.000 A 
ATOM     20  C   UNL     1       4.399   6.949  17.396  0.00  0.00    +0.000 A 
ATOM     21  C   UNL     1       5.231   6.127  16.630  0.00  0.00    +0.000 A 
ATOM     22  C   UNL     1       4.924   4.781  16.479  0.00  0.00    +0.000 A 
ATOM     23 CL   UNL     1       5.953   3.772  15.539  0.00  0.00    +0.000 Cl
ATOM     24  C   UNL     1       3.789   4.248  17.086  0.00  0.00    +0.000 A 
ATOM     25  C   UNL     1       2.966   5.068  17.850  0.00  0.00    +0.000 A 
ATOM     26 CL   UNL     1       1.568   4.340  18.566  0.00  0.00    +0.000 Cl
ENDBRANCH  18  19
ENDBRANCH  16  18
ENDBRANCH   1  14
TORSDOF 5
ENDMDL
MODEL 7
REMARK VINA RESULT:      -7.1      1.996      3.179
REMARK  Name = 
REMARK  8 active torsions:
REMARK  status: ('A' for Active; 'I' for Inactive)
REMARK    1  A    between atoms: C_1  and  C_2
REMARK    2  A    between atoms: C_5  and  C_6
REMARK    3  A    between atoms: C_7  and  N_8
REMARK    4  A    between atoms: C_9  and  C_11
REMARK    5  A    between atoms: C_11  and  N_12
REMARK    6  A    between atoms: N_12  and  C_13
REMARK    7  A    between atoms: C_14  and  C_16
REMARK    8  A    between atoms: C_16  and  C_17
REMARK                            x       y       z     vdW  Elec       q    Type
REMARK                         _______ _______ _______ _____ _____    ______ ____
ROOT
ATOM      1  C   UNL     1       1.135   9.800  21.532  0.00  0.00    +0.000 C 
ENDROOT
BRANCH   1   3
ATOM      2  N   UNL     1       2.063   7.748  20.579  0.00  0.00    +0.000 N 
ATOM      3  C   UNL     1       0.926   8.341  21.112  0.00  0.00    +0.000 C 
ATOM      4  O   UNL     1      -0.140   7.768  21.319  0.00  0.00    +0.000 OA
ATOM      5  H   UNL     1       2.943   8.147  20.904  0.00  0.00    +0.000 HD
BRANCH   2  12
ATOM      6  C   UNL     1       1.333   2.890  21.320  0.00  0.00    +0.000 C 
ATOM      7  C   UNL     1       1.738   4.028  20.429  0.00  0.00    +0.000 A 
ATOM      8  C   UNL     1       2.117   3.795  19.106  0.00  0.00    +0.000 A 
ATOM      9  C   UNL     1       2.447   4.862  18.270  0.00  0.00    +0.000 A 
ATOM     10  C   UNL     1       2.406   6.186  18.735  0.00  0.00    +0.000 A 
ATOM     11  C   UNL     1       2.810   7.295  17.808  0.00  0.00    +0.000 C 
ATOM     12  C   UNL     1       2.076   6.425  20.078  0.00  0.00    +0.000 A 
ATOM     13  C   UNL     1       1.735   5.346  20.911  0.00  0.00    +0.000 A 
ENDBRANCH   2  12
ENDBRANCH   1   3
BRANCH   1  14
ATOM     14  N   UNL     1       0.509  10.787  20.647  0.00  0.00    +0.000 N 
ATOM     15  C   UNL     1       1.111  11.010  19.339  0.00  0.00    +0.000 C 
ATOM     16  C   UNL     1      -0.699  11.342  21.038  0.00  0.00    +0.000 C 
ATOM     17  O   UNL     1      -1.303  10.905  22.023  0.00  0.00    +0.000 OA
BRANCH  16  18
ATOM     18  C   UNL     1      -1.276  12.490  20.215  0.00  0.00    +0.000 C 
BRANCH  18  19
ATOM     19  C   UNL     1      -2.721  12.351  19.778  0.00  0.00    +0.000 A 
ATOM     20  C   UNL     1      -3.776  12.905  20.522  0.00  0.00    +0.000 A 
ATOM     21  C   UNL     1      -5.101  12.791  20.091  0.00  0.00    +0.000 A 
ATOM     22  C   UNL     1      -5.390  12.113  18.914  0.00  0.00    +0.000 A 
ATOM     23 CL   UNL     1      -7.022  11.978  18.386  0.00  0.00    +0.000 Cl
ATOM     24  C   UNL     1      -4.364  11.545  18.162  0.00  0.00    +0.000 A 
ATOM     25  C   UNL     1      -3.047  11.665  18.591  0.00  0.00    +0.000 A 
ATOM     26 CL   UNL     1      -1.825  10.926  17.611  0.00  0.00    +0.000 Cl
ENDBRANCH  18  19
ENDBRANCH  16  18
ENDBRANCH   1  14
TORSDOF 5
ENDMDL
MODEL 8
REMARK VINA RESULT:      -7.1      3.567      5.414
REMARK  Name = 
REMARK  8 active torsions:
REMARK  status: ('A' for Active; 'I' for Inactive)
REMARK    1  A    between atoms: C_1  and  C_2
REMARK    2  A    between atoms: C_5  and  C_6
REMARK    3  A    between atoms: C_7  and  N_8
REMARK    4  A    between atoms: C_9  and  C_11
REMARK    5  A    between atoms: C_11  and  N_12
REMARK    6  A    between atoms: N_12  and  C_13
REMARK    7  A    between atoms: C_14  and  C_16
REMARK    8  A    between atoms: C_16  and  C_17
REMARK                            x       y       z     vdW  Elec       q    Type
REMARK                         _______ _______ _______ _____ _____    ______ ____
ROOT
ATOM      1  C   UNL     1       2.869   2.874  18.874  0.00  0.00    +0.000 C 
ENDROOT
BRANCH   1   3
ATOM      2  N   UNL     1       4.862   3.440  17.576  0.00  0.00    +0.000 N 
ATOM      3  C   UNL     1       3.473   3.412  17.573  0.00  0.00    +0.000 C 
ATOM      4  O   UNL     1       2.762   3.701  16.615  0.00  0.00    +0.000 OA
ATOM      5  H   UNL     1       5.300   2.755  18.190  0.00  0.00    +0.000 HD
BRANCH   2  12
ATOM      6  C   UNL     1       5.908   3.464  12.719  0.00  0.00    +0.000 C 
ATOM      7  C   UNL     1       6.162   3.965  14.111  0.00  0.00    +0.000 A 
ATOM      8  C   UNL     1       7.134   4.937  14.351  0.00  0.00    +0.000 A 
ATOM      9  C   UNL     1       7.332   5.431  15.641  0.00  0.00    +0.000 A 
ATOM     10  C   UNL     1       6.565   4.965  16.721  0.00  0.00    +0.000 A 
ATOM     11  C   UNL     1       6.845   5.499  18.095  0.00  0.00    +0.000 C 
ATOM     12  C   UNL     1       5.621   3.951  16.497  0.00  0.00    +0.000 A 
ATOM     13  C   UNL     1       5.420   3.466  15.193  0.00  0.00    +0.000 A 
ENDBRANCH   2  12
ENDBRANCH   1   3
BRANCH   1  14
ATOM     14  N   UNL     1       2.081   3.851  19.631  0.00  0.00    +0.000 N 
ATOM     15  C   UNL     1       0.728   3.479  20.024  0.00  0.00    +0.000 C 
ATOM     16  C   UNL     1       2.711   5.008  20.061  0.00  0.00    +0.000 C 
ATOM     17  O   UNL     1       3.935   5.139  19.943  0.00  0.00    +0.000 OA
BRANCH  16  18
ATOM     18  C   UNL     1       1.868   6.106  20.701  0.00  0.00    +0.000 C 
BRANCH  18  19
ATOM     19  C   UNL     1       1.817   7.434  19.969  0.00  0.00    +0.000 A 
ATOM     20  C   UNL     1       2.387   7.600  18.697  0.00  0.00    +0.000 A 
ATOM     21  C   UNL     1       2.309   8.822  18.025  0.00  0.00    +0.000 A 
ATOM     22  C   UNL     1       1.664   9.899  18.620  0.00  0.00    +0.000 A 
ATOM     23 CL   UNL     1       1.567  11.402  17.787  0.00  0.00    +0.000 Cl
ATOM     24  C   UNL     1       1.098   9.765  19.886  0.00  0.00    +0.000 A 
ATOM     25  C   UNL     1       1.174   8.546  20.550  0.00  0.00    +0.000 A 
ATOM     26 CL   UNL     1       0.457   8.454  22.123  0.00  0.00    +0.000 Cl
ENDBRANCH  18  19
ENDBRANCH  16  18
ENDBRANCH   1  14
TORSDOF 5
ENDMDL
MODEL 9
REMARK VINA RESULT:      -6.9      1.794      3.018
REMARK  Name = 
REMARK  8 active torsions:
REMARK  status: ('A' for Active; 'I' for Inactive)
REMARK    1  A    between atoms: C_1  and  C_2
REMARK    2  A    between atoms: C_5  and  C_6
REMARK    3  A    between atoms: C_7  and  N_8
REMARK    4  A    between atoms: C_9  and  C_11
REMARK    5  A    between atoms: C_11  and  N_12
REMARK    6  A    between atoms: N_12  and  C_13
REMARK    7  A    between atoms: C_14  and  C_16
REMARK    8  A    between atoms: C_16  and  C_17
REMARK                            x       y       z     vdW  Elec       q    Type
REMARK                         _______ _______ _______ _____ _____    ______ ____
ROOT
ATOM      1  C   UNL     1       0.925  10.064  21.815  0.00  0.00    +0.000 C 
ENDROOT
BRANCH   1   3
ATOM      2  N   UNL     1       1.911   8.124  20.700  0.00  0.00    +0.000 N 
ATOM      3  C   UNL     1       0.734   8.683  21.181  0.00  0.00    +0.000 C 
ATOM      4  O   UNL     1      -0.361   8.126  21.192  0.00  0.00    +0.000 OA
ATOM      5  H   UNL     1       2.757   8.445  21.169  0.00  0.00    +0.000 HD
BRANCH   2  12
ATOM      6  C   UNL     1       1.181   3.211  20.757  0.00  0.00    +0.000 C 
ATOM      7  C   UNL     1       1.614   4.457  20.042  0.00  0.00    +0.000 A 
ATOM      8  C   UNL     1       2.047   4.402  18.717  0.00  0.00    +0.000 A 
ATOM      9  C   UNL     1       2.404   5.572  18.044  0.00  0.00    +0.000 A 
ATOM     10  C   UNL     1       2.337   6.822  18.679  0.00  0.00    +0.000 A 
ATOM     11  C   UNL     1       2.770   8.045  17.925  0.00  0.00    +0.000 C 
ATOM     12  C   UNL     1       1.951   6.880  20.028  0.00  0.00    +0.000 A 
ATOM     13  C   UNL     1       1.583   5.700  20.695  0.00  0.00    +0.000 A 
ENDBRANCH   2  12
ENDBRANCH   1   3
BRANCH   1  14
ATOM     14  N   UNL     1       0.170  11.143  21.171  0.00  0.00    +0.000 N 
ATOM     15  C   UNL     1      -0.500  12.113  22.028  0.00  0.00    +0.000 C 
ATOM     16  C   UNL     1       0.257  11.270  19.794  0.00  0.00    +0.000 C 
ATOM     17  O   UNL     1       1.065  10.594  19.149  0.00  0.00    +0.000 OA
BRANCH  16  18
ATOM     18  C   UNL     1      -0.651  12.276  19.094  0.00  0.00    +0.000 C 
BRANCH  18  19
ATOM     19  C   UNL     1      -2.108  11.883  18.941  0.00  0.00    +0.000 A 
ATOM     20  C   UNL     1      -3.130  12.549  19.637  0.00  0.00    +0.000 A 
ATOM     21  C   UNL     1      -4.471  12.193  19.466  0.00  0.00    +0.000 A 
ATOM     22  C   UNL     1      -4.806  11.159  18.601  0.00  0.00    +0.000 A 
ATOM     23 CL   UNL     1      -6.458  10.726  18.390  0.00  0.00    +0.000 Cl
ATOM     24  C   UNL     1      -3.812  10.475  17.905  0.00  0.00    +0.000 A 
ATOM     25  C   UNL     1      -2.480  10.836  18.075  0.00  0.00    +0.000 A 
ATOM     26 CL   UNL     1      -1.297   9.937  17.186  0.00  0.00    +0.000 Cl
ENDBRANCH  18  19
ENDBRANCH  16  18
ENDBRANCH   1  14
TORSDOF 5
ENDMDL
