MODEL 1
REMARK VINA RESULT:      -7.9      0.000      0.000
REMARK  Name = 
REMARK  7 active torsions:
REMARK  status: ('A' for Active; 'I' for Inactive)
REMARK    1  A    between atoms: C_1  and  C_2
REMARK    2  A    between atoms: C_5  and  S_6
REMARK    3  A    between atoms: S_6  and  N_9
REMARK    4  A    between atoms: N_9  and  N_10
REMARK    5  A    between atoms: C_11  and  C_13
REMARK    6  A    between atoms: C_18  and  C_19
REMARK    7  A    between atoms: C_19  and  O_21
REMARK                            x       y       z     vdW  Elec       q    Type
REMARK                         _______ _______ _______ _____ _____    ______ ____
ROOT
ATOM      1  N   UNL     1       5.086   3.273  18.013  0.00  0.00    +0.000 N 
ATOM      2  C   UNL     1       5.654   4.226  18.836  0.00  0.00    +0.000 C 
ATOM      3  O   UNL     1       5.294   4.361  20.006  0.00  0.00    +0.000 OA
ATOM      4  H   UNL     1       5.386   3.100  17.056  0.00  0.00    +0.000 HD
ENDROOT
BRANCH   2   5
ATOM      5  C   UNL     1       6.806   5.034  18.211  0.00  0.00    +0.000 C 
ATOM      6  C   UNL     1       7.210   4.505  16.818  0.00  0.00    +0.000 C 
ATOM      7  C   UNL     1       6.336   5.016  15.711  0.00  0.00    +0.000 C 
ATOM      8  C   UNL     1       5.470   6.027  15.858  0.00  0.00    +0.000 C 
ATOM      9  C   UNL     1       5.318   6.802  17.130  0.00  0.00    +0.000 C 
ATOM     10  C   UNL     1       6.446   6.545  18.148  0.00  0.00    +0.000 C 
BRANCH  10  11
ATOM     11  C   UNL     1       7.681   7.390  17.842  0.00  0.00    +0.000 C 
ATOM     12  O   UNL     1       7.893   7.954  16.779  0.00  0.00    +0.000 OA
BRANCH  11  13
ATOM     13  O   UNL     1       8.596   7.415  18.838  0.00  0.00    +0.000 OA
ATOM     14  H   UNL     1       8.283   7.093  19.703  0.00  0.00    +0.000 HD
ENDBRANCH  11  13
ENDBRANCH  10  11
ENDBRANCH   2   5
BRANCH   1  15
ATOM     15  N   UNL     1       4.000   2.451  18.526  0.00  0.00    +0.000 NA
ATOM     16  H   UNL     1       4.217   1.641  19.113  0.00  0.00    +0.000 HD
BRANCH  15  17
ATOM     17  S   UNL     1       2.415   2.818  18.079  0.00  0.00    +0.000 S 
ATOM     18  O   UNL     1       1.569   1.813  18.685  0.00  0.00    +0.000 OA
ATOM     19  O   UNL     1       2.407   3.025  16.643  0.00  0.00    +0.000 OA
BRANCH  17  24
ATOM     20  C   UNL     1       1.626   8.168  20.845  0.00  0.00    +0.000 C 
ATOM     21  C   UNL     1       1.763   6.842  20.152  0.00  0.00    +0.000 A 
ATOM     22  C   UNL     1       1.554   5.643  20.845  0.00  0.00    +0.000 A 
ATOM     23  C   UNL     1       1.720   4.411  20.204  0.00  0.00    +0.000 A 
ATOM     24  C   UNL     1       2.088   4.379  18.856  0.00  0.00    +0.000 A 
ATOM     25  C   UNL     1       2.296   5.567  18.150  0.00  0.00    +0.000 A 
ATOM     26  C   UNL     1       2.135   6.795  18.800  0.00  0.00    +0.000 A 
ENDBRANCH  17  24
ENDBRANCH  15  17
ENDBRANCH   1  15
TORSDOF 6
ENDMDL
MODEL 2
REMARK VINA RESULT:      -7.9      1.288      1.829
REMARK  Name = 
REMARK  7 active torsions:
REMARK  status: ('A' for Active; 'I' for Inactive)
REMARK    1  A    between atoms: C_1  and  C_2
REMARK    2  A    between atoms: C_5  and  S_6
REMARK    3  A    between atoms: S_6  and  N_9
REMARK    4  A    between atoms: N_9  and  N_10
REMARK    5  A    between atoms: C_11  and  C_13
REMARK    6  A    between atoms: C_18  and  C_19
REMARK    7  A    between atoms: C_19  and  O_21
REMARK                            x       y       z     vdW  Elec       q    Type
REMARK                         _______ _______ _______ _____ _____    ______ ____
ROOT
ATOM      1  N   UNL     1       5.216   3.189  19.067  0.00  0.00    +0.000 N 
ATOM      2  C   UNL     1       5.432   3.562  17.755  0.00  0.00    +0.000 C 
ATOM      3  O   UNL     1       4.705   3.161  16.845  0.00  0.00    +0.000 OA
ATOM      4  H   UNL     1       5.765   3.535  19.852  0.00  0.00    +0.000 HD
ENDROOT
BRANCH   2   5
ATOM      5  C   UNL     1       6.580   4.564  17.535  0.00  0.00    +0.000 C 
ATOM      6  C   UNL     1       7.206   4.445  16.129  0.00  0.00    +0.000 C 
ATOM      7  C   UNL     1       6.441   5.187  15.072  0.00  0.00    +0.000 C 
ATOM      8  C   UNL     1       5.479   6.078  15.344  0.00  0.00    +0.000 C 
ATOM      9  C   UNL     1       5.095   6.478  16.735  0.00  0.00    +0.000 C 
ATOM     10  C   UNL     1       6.101   6.018  17.808  0.00  0.00    +0.000 C 
BRANCH  10  11
ATOM     11  C   UNL     1       7.286   6.974  17.915  0.00  0.00    +0.000 C 
ATOM     12  O   UNL     1       7.498   7.908  17.155  0.00  0.00    +0.000 OA
BRANCH  11  13
ATOM     13  O   UNL     1       8.161   6.666  18.899  0.00  0.00    +0.000 OA
ATOM     14  H   UNL     1       8.964   7.218  18.933  0.00  0.00    +0.000 HD
ENDBRANCH  11  13
ENDBRANCH  10  11
ENDBRANCH   2   5
BRANCH   1  15
ATOM     15  N   UNL     1       4.139   2.258  19.371  0.00  0.00    +0.000 NA
ATOM     16  H   UNL     1       4.253   1.266  19.143  0.00  0.00    +0.000 HD
BRANCH  15  17
ATOM     17  S   UNL     1       2.704   2.854  20.028  0.00  0.00    +0.000 S 
ATOM     18  O   UNL     1       2.909   2.947  21.457  0.00  0.00    +0.000 OA
ATOM     19  O   UNL     1       1.618   2.060  19.486  0.00  0.00    +0.000 OA
BRANCH  17  24
ATOM     20  C   UNL     1       1.902   8.486  17.900  0.00  0.00    +0.000 C 
ATOM     21  C   UNL     1       2.151   7.090  18.395  0.00  0.00    +0.000 A 
ATOM     22  C   UNL     1       1.780   5.977  17.628  0.00  0.00    +0.000 A 
ATOM     23  C   UNL     1       1.979   4.680  18.111  0.00  0.00    +0.000 A 
ATOM     24  C   UNL     1       2.564   4.493  19.367  0.00  0.00    +0.000 A 
ATOM     25  C   UNL     1       2.941   5.594  20.142  0.00  0.00    +0.000 A 
ATOM     26  C   UNL     1       2.732   6.887  19.656  0.00  0.00    +0.000 A 
ENDBRANCH  17  24
ENDBRANCH  15  17
ENDBRANCH   1  15
TORSDOF 6
ENDMDL
MODEL 3
REMARK VINA RESULT:      -7.9      1.260      1.753
REMARK  Name = 
REMARK  7 active torsions:
REMARK  status: ('A' for Active; 'I' for Inactive)
REMARK    1  A    between atoms: C_1  and  C_2
REMARK    2  A    between atoms: C_5  and  S_6
REMARK    3  A    between atoms: S_6  and  N_9
REMARK    4  A    between atoms: N_9  and  N_10
REMARK    5  A    between atoms: C_11  and  C_13
REMARK    6  A    between atoms: C_18  and  C_19
REMARK    7  A    between atoms: C_19  and  O_21
REMARK                            x       y       z     vdW  Elec       q    Type
REMARK                         _______ _______ _______ _____ _____    ______ ____
ROOT
ATOM      1  N   UNL     1       5.064   3.163  19.047  0.00  0.00    +0.000 N 
ATOM      2  C   UNL     1       5.299   3.554  17.744  0.00  0.00    +0.000 C 
ATOM      3  O   UNL     1       4.561   3.199  16.824  0.00  0.00    +0.000 OA
ATOM      4  H   UNL     1       5.622   3.470  19.841  0.00  0.00    +0.000 HD
ENDROOT
BRANCH   2   5
ATOM      5  C   UNL     1       6.485   4.516  17.549  0.00  0.00    +0.000 C 
ATOM      6  C   UNL     1       7.137   4.374  16.156  0.00  0.00    +0.000 C 
ATOM      7  C   UNL     1       6.422   5.140  15.083  0.00  0.00    +0.000 C 
ATOM      8  C   UNL     1       5.484   6.064  15.333  0.00  0.00    +0.000 C 
ATOM      9  C   UNL     1       5.084   6.479  16.715  0.00  0.00    +0.000 C 
ATOM     10  C   UNL     1       6.050   5.985  17.810  0.00  0.00    +0.000 C 
BRANCH  10  11
ATOM     11  C   UNL     1       7.264   6.901  17.943  0.00  0.00    +0.000 C 
ATOM     12  O   UNL     1       7.517   7.834  17.194  0.00  0.00    +0.000 OA
BRANCH  11  13
ATOM     13  O   UNL     1       8.114   6.557  18.937  0.00  0.00    +0.000 OA
ATOM     14  H   UNL     1       8.992   6.248  18.648  0.00  0.00    +0.000 HD
ENDBRANCH  11  13
ENDBRANCH  10  11
ENDBRANCH   2   5
BRANCH   1  15
ATOM     15  N   UNL     1       3.952   2.266  19.328  0.00  0.00    +0.000 NA
ATOM     16  H   UNL     1       3.968   1.313  18.954  0.00  0.00    +0.000 HD
BRANCH  15  17
ATOM     17  S   UNL     1       2.634   2.849  20.205  0.00  0.00    +0.000 S 
ATOM     18  O   UNL     1       3.069   2.963  21.581  0.00  0.00    +0.000 OA
ATOM     19  O   UNL     1       1.487   2.033  19.857  0.00  0.00    +0.000 OA
BRANCH  17  24
ATOM     20  C   UNL     1       2.022   8.424  17.874  0.00  0.00    +0.000 C 
ATOM     21  C   UNL     1       2.121   7.052  18.478  0.00  0.00    +0.000 A 
ATOM     22  C   UNL     1       2.596   6.873  19.784  0.00  0.00    +0.000 A 
ATOM     23  C   UNL     1       2.722   5.590  20.326  0.00  0.00    +0.000 A 
ATOM     24  C   UNL     1       2.360   4.478  19.560  0.00  0.00    +0.000 A 
ATOM     25  C   UNL     1       1.882   4.642  18.257  0.00  0.00    +0.000 A 
ATOM     26  C   UNL     1       1.766   5.927  17.719  0.00  0.00    +0.000 A 
ENDBRANCH  17  24
ENDBRANCH  15  17
ENDBRANCH   1  15
TORSDOF 6
ENDMDL
MODEL 4
REMARK VINA RESULT:      -7.8      0.112      1.016
REMARK  Name = 
REMARK  7 active torsions:
REMARK  status: ('A' for Active; 'I' for Inactive)
REMARK    1  A    between atoms: C_1  and  C_2
REMARK    2  A    between atoms: C_5  and  S_6
REMARK    3  A    between atoms: S_6  and  N_9
REMARK    4  A    between atoms: N_9  and  N_10
REMARK    5  A    between atoms: C_11  and  C_13
REMARK    6  A    between atoms: C_18  and  C_19
REMARK    7  A    between atoms: C_19  and  O_21
REMARK                            x       y       z     vdW  Elec       q    Type
REMARK                         _______ _______ _______ _____ _____    ______ ____
ROOT
ATOM      1  N   UNL     1       5.045   3.262  17.916  0.00  0.00    +0.000 N 
ATOM      2  C   UNL     1       5.645   4.153  18.783  0.00  0.00    +0.000 C 
ATOM      3  O   UNL     1       5.320   4.213  19.970  0.00  0.00    +0.000 OA
ATOM      4  H   UNL     1       5.317   3.150  16.941  0.00  0.00    +0.000 HD
ENDROOT
BRANCH   2   5
ATOM      5  C   UNL     1       6.787   4.992  18.181  0.00  0.00    +0.000 C 
ATOM      6  C   UNL     1       7.195   4.509  16.772  0.00  0.00    +0.000 C 
ATOM      7  C   UNL     1       6.313   5.042  15.682  0.00  0.00    +0.000 C 
ATOM      8  C   UNL     1       5.436   6.039  15.860  0.00  0.00    +0.000 C 
ATOM      9  C   UNL     1       5.277   6.775  17.155  0.00  0.00    +0.000 C 
ATOM     10  C   UNL     1       6.411   6.501  18.162  0.00  0.00    +0.000 C 
BRANCH  10  11
ATOM     11  C   UNL     1       7.635   7.368  17.880  0.00  0.00    +0.000 C 
ATOM     12  O   UNL     1       7.821   7.993  16.846  0.00  0.00    +0.000 OA
BRANCH  11  13
ATOM     13  O   UNL     1       8.571   7.341  18.855  0.00  0.00    +0.000 OA
ATOM     14  H   UNL     1       9.035   6.491  18.966  0.00  0.00    +0.000 HD
ENDBRANCH  11  13
ENDBRANCH  10  11
ENDBRANCH   2   5
BRANCH   1  15
ATOM     15  N   UNL     1       3.966   2.415  18.404  0.00  0.00    +0.000 NA
ATOM     16  H   UNL     1       4.192   1.534  18.873  0.00  0.00    +0.000 HD
BRANCH  15  17
ATOM     17  S   UNL     1       2.370   2.882  18.121  0.00  0.00    +0.000 S 
ATOM     18  O   UNL     1       1.529   1.917  18.796  0.00  0.00    +0.000 OA
ATOM     19  O   UNL     1       2.233   3.114  16.696  0.00  0.00    +0.000 OA
BRANCH  17  24
ATOM     20  C   UNL     1       1.497   8.235  20.855  0.00  0.00    +0.000 C 
ATOM     21  C   UNL     1       1.771   6.918  20.187  0.00  0.00    +0.000 A 
ATOM     22  C   UNL     1       2.141   6.858  18.837  0.00  0.00    +0.000 A 
ATOM     23  C   UNL     1       2.357   5.626  18.212  0.00  0.00    +0.000 A 
ATOM     24  C   UNL     1       2.214   4.444  18.945  0.00  0.00    +0.000 A 
ATOM     25  C   UNL     1       1.849   4.489  20.294  0.00  0.00    +0.000 A 
ATOM     26  C   UNL     1       1.627   5.724  20.910  0.00  0.00    +0.000 A 
ENDBRANCH  17  24
ENDBRANCH  15  17
ENDBRANCH   1  15
TORSDOF 6
ENDMDL
MODEL 5
REMARK VINA RESULT:      -7.7      2.253      6.437
REMARK  Name = 
REMARK  7 active torsions:
REMARK  status: ('A' for Active; 'I' for Inactive)
REMARK    1  A    between atoms: C_1  and  C_2
REMARK    2  A    between atoms: C_5  and  S_6
REMARK    3  A    between atoms: S_6  and  N_9
REMARK    4  A    between atoms: N_9  and  N_10
REMARK    5  A    between atoms: C_11  and  C_13
REMARK    6  A    between atoms: C_18  and  C_19
REMARK    7  A    between atoms: C_19  and  O_21
REMARK                            x       y       z     vdW  Elec       q    Type
REMARK                         _______ _______ _______ _____ _____    ______ ____
ROOT
ATOM      1  N   UNL     1       5.521   4.488  19.558  0.00  0.00    +0.000 N 
ATOM      2  C   UNL     1       4.192   4.665  19.227  0.00  0.00    +0.000 C 
ATOM      3  O   UNL     1       3.732   5.783  18.991  0.00  0.00    +0.000 OA
ATOM      4  H   UNL     1       5.949   3.578  19.716  0.00  0.00    +0.000 HD
ENDROOT
BRANCH   2   5
ATOM      5  C   UNL     1       3.367   3.372  19.100  0.00  0.00    +0.000 C 
ATOM      6  C   UNL     1       3.605   2.401  20.277  0.00  0.00    +0.000 C 
ATOM      7  C   UNL     1       2.787   2.728  21.492  0.00  0.00    +0.000 C 
ATOM      8  C   UNL     1       1.763   3.592  21.485  0.00  0.00    +0.000 C 
ATOM      9  C   UNL     1       1.281   4.288  20.250  0.00  0.00    +0.000 C 
ATOM     10  C   UNL     1       1.854   3.697  18.946  0.00  0.00    +0.000 C 
BRANCH  10  11
ATOM     11  C   UNL     1       1.072   2.466  18.496  0.00  0.00    +0.000 C 
ATOM     12  O   UNL     1      -0.028   2.145  18.924  0.00  0.00    +0.000 OA
BRANCH  11  13
ATOM     13  O   UNL     1       1.730   1.682  17.612  0.00  0.00    +0.000 OA
ATOM     14  H   UNL     1       1.702   0.726  17.799  0.00  0.00    +0.000 HD
ENDBRANCH  11  13
ENDBRANCH  10  11
ENDBRANCH   2   5
BRANCH   1  15
ATOM     15  N   UNL     1       6.381   5.656  19.684  0.00  0.00    +0.000 NA
ATOM     16  H   UNL     1       6.165   6.366  20.389  0.00  0.00    +0.000 HD
BRANCH  15  17
ATOM     17  S   UNL     1       7.673   5.838  18.615  0.00  0.00    +0.000 S 
ATOM     18  O   UNL     1       8.654   4.837  18.974  0.00  0.00    +0.000 OA
ATOM     19  O   UNL     1       8.025   7.245  18.596  0.00  0.00    +0.000 OA
BRANCH  17  24
ATOM     20  C   UNL     1       5.102   4.242  13.348  0.00  0.00    +0.000 C 
ATOM     21  C   UNL     1       5.783   4.659  14.620  0.00  0.00    +0.000 A 
ATOM     22  C   UNL     1       6.764   3.850  15.210  0.00  0.00    +0.000 A 
ATOM     23  C   UNL     1       7.367   4.225  16.414  0.00  0.00    +0.000 A 
ATOM     24  C   UNL     1       6.995   5.424  17.029  0.00  0.00    +0.000 A 
ATOM     25  C   UNL     1       6.021   6.243  16.450  0.00  0.00    +0.000 A 
ATOM     26  C   UNL     1       5.417   5.857  15.250  0.00  0.00    +0.000 A 
ENDBRANCH  17  24
ENDBRANCH  15  17
ENDBRANCH   1  15
TORSDOF 6
ENDMDL
MODEL 6
REMARK VINA RESULT:      -7.6      1.763      2.608
REMARK  Name = 
REMARK  7 active torsions:
REMARK  status: ('A' for Active; 'I' for Inactive)
REMARK    1  A    between atoms: C_1  and  C_2
REMARK    2  A    between atoms: C_5  and  S_6
REMARK    3  A    between atoms: S_6  and  N_9
REMARK    4  A    between atoms: N_9  and  N_10
REMARK    5  A    between atoms: C_11  and  C_13
REMARK    6  A    between atoms: C_18  and  C_19
REMARK    7  A    between atoms: C_19  and  O_21
REMARK                            x       y       z     vdW  Elec       q    Type
REMARK                         _______ _______ _______ _____ _____    ______ ____
ROOT
ATOM      1  N   UNL     1       4.263   2.680  17.836  0.00  0.00    +0.000 N 
ATOM      2  C   UNL     1       5.211   3.684  17.802  0.00  0.00    +0.000 C 
ATOM      3  O   UNL     1       5.836   4.012  18.812  0.00  0.00    +0.000 OA
ATOM      4  H   UNL     1       3.759   2.349  17.016  0.00  0.00    +0.000 HD
ENDROOT
BRANCH   2   5
ATOM      5  C   UNL     1       5.478   4.291  16.413  0.00  0.00    +0.000 C 
ATOM      6  C   UNL     1       4.703   5.606  16.184  0.00  0.00    +0.000 C 
ATOM      7  C   UNL     1       5.384   6.808  16.769  0.00  0.00    +0.000 C 
ATOM      8  C   UNL     1       6.650   6.802  17.206  0.00  0.00    +0.000 C 
ATOM      9  C   UNL     1       7.550   5.609  17.106  0.00  0.00    +0.000 C 
ATOM     10  C   UNL     1       7.002   4.499  16.187  0.00  0.00    +0.000 C 
BRANCH  10  11
ATOM     11  C   UNL     1       7.305   4.786  14.718  0.00  0.00    +0.000 C 
ATOM     12  O   UNL     1       8.070   5.653  14.322  0.00  0.00    +0.000 OA
BRANCH  11  13
ATOM     13  O   UNL     1       6.588   4.039  13.848  0.00  0.00    +0.000 OA
ATOM     14  H   UNL     1       6.931   4.015  12.936  0.00  0.00    +0.000 HD
ENDBRANCH  11  13
ENDBRANCH  10  11
ENDBRANCH   2   5
BRANCH   1  15
ATOM     15  N   UNL     1       3.958   2.037  19.106  0.00  0.00    +0.000 NA
ATOM     16  H   UNL     1       4.539   1.257  19.427  0.00  0.00    +0.000 HD
BRANCH  15  17
ATOM     17  S   UNL     1       2.611   2.554  19.981  0.00  0.00    +0.000 S 
ATOM     18  O   UNL     1       3.002   2.570  21.374  0.00  0.00    +0.000 OA
ATOM     19  O   UNL     1       1.479   1.764  19.538  0.00  0.00    +0.000 OA
BRANCH  17  24
ATOM     20  C   UNL     1       2.027   8.259  17.977  0.00  0.00    +0.000 C 
ATOM     21  C   UNL     1       2.125   6.857  18.508  0.00  0.00    +0.000 A 
ATOM     22  C   UNL     1       2.783   6.588  19.715  0.00  0.00    +0.000 A 
ATOM     23  C   UNL     1       2.904   5.277  20.184  0.00  0.00    +0.000 A 
ATOM     24  C   UNL     1       2.353   4.225  19.446  0.00  0.00    +0.000 A 
ATOM     25  C   UNL     1       1.690   4.479  18.241  0.00  0.00    +0.000 A 
ATOM     26  C   UNL     1       1.580   5.792  17.775  0.00  0.00    +0.000 A 
ENDBRANCH  17  24
ENDBRANCH  15  17
ENDBRANCH   1  15
TORSDOF 6
ENDMDL
MODEL 7
REMARK VINA RESULT:      -7.6      2.492      6.483
REMARK  Name = 
REMARK  7 active torsions:
REMARK  status: ('A' for Active; 'I' for Inactive)
REMARK    1  A    between atoms: C_1  and  C_2
REMARK    2  A    between atoms: C_5  and  S_6
REMARK    3  A    between atoms: S_6  and  N_9
REMARK    4  A    between atoms: N_9  and  N_10
REMARK    5  A    between atoms: C_11  and  C_13
REMARK    6  A    between atoms: C_18  and  C_19
REMARK    7  A    between atoms: C_19  and  O_21
REMARK                            x       y       z     vdW  Elec       q    Type
REMARK                         _______ _______ _______ _____ _____    ______ ____
ROOT
ATOM      1  N   UNL     1       4.553   5.390  18.937  0.00  0.00    +0.000 N 
ATOM      2  C   UNL     1       3.274   5.423  18.417  0.00  0.00    +0.000 C 
ATOM      3  O   UNL     1       2.999   6.113  17.434  0.00  0.00    +0.000 OA
ATOM      4  H   UNL     1       4.831   4.799  19.718  0.00  0.00    +0.000 HD
ENDROOT
BRANCH   2   5
ATOM      5  C   UNL     1       2.261   4.486  19.098  0.00  0.00    +0.000 C 
ATOM      6  C   UNL     1       1.572   3.534  18.096  0.00  0.00    +0.000 C 
ATOM      7  C   UNL     1       2.387   2.316  17.776  0.00  0.00    +0.000 C 
ATOM      8  C   UNL     1       3.468   1.944  18.475  0.00  0.00    +0.000 C 
ATOM      9  C   UNL     1       3.953   2.671  19.691  0.00  0.00    +0.000 C 
ATOM     10  C   UNL     1       2.937   3.687  20.247  0.00  0.00    +0.000 C 
BRANCH  10  11
ATOM     11  C   UNL     1       1.893   3.010  21.132  0.00  0.00    +0.000 C 
ATOM     12  O   UNL     1       2.149   2.239  22.046  0.00  0.00    +0.000 OA
BRANCH  11  13
ATOM     13  O   UNL     1       0.613   3.271  20.780  0.00  0.00    +0.000 OA
ATOM     14  H   UNL     1       0.360   4.212  20.791  0.00  0.00    +0.000 HD
ENDBRANCH  11  13
ENDBRANCH  10  11
ENDBRANCH   2   5
BRANCH   1  15
ATOM     15  N   UNL     1       5.582   6.232  18.344  0.00  0.00    +0.000 NA
ATOM     16  H   UNL     1       5.413   7.237  18.246  0.00  0.00    +0.000 HD
BRANCH  15  17
ATOM     17  S   UNL     1       6.996   5.513  17.772  0.00  0.00    +0.000 S 
ATOM     18  O   UNL     1       7.250   4.366  18.617  0.00  0.00    +0.000 OA
ATOM     19  O   UNL     1       7.988   6.562  17.631  0.00  0.00    +0.000 OA
BRANCH  17  24
ATOM     20  C   UNL     1       5.767   3.278  12.260  0.00  0.00    +0.000 C 
ATOM     21  C   UNL     1       6.041   3.880  13.609  0.00  0.00    +0.000 A 
ATOM     22  C   UNL     1       7.103   4.775  13.796  0.00  0.00    +0.000 A 
ATOM     23  C   UNL     1       7.376   5.301  15.062  0.00  0.00    +0.000 A 
ATOM     24  C   UNL     1       6.575   4.939  16.148  0.00  0.00    +0.000 A 
ATOM     25  C   UNL     1       5.510   4.050  15.976  0.00  0.00    +0.000 A 
ATOM     26  C   UNL     1       5.247   3.522  14.709  0.00  0.00    +0.000 A 
ENDBRANCH  17  24
ENDBRANCH  15  17
ENDBRANCH   1  15
TORSDOF 6
ENDMDL
MODEL 8
REMARK VINA RESULT:      -7.6      2.393      6.585
REMARK  Name = 
REMARK  7 active torsions:
REMARK  status: ('A' for Active; 'I' for Inactive)
REMARK    1  A    between atoms: C_1  and  C_2
REMARK    2  A    between atoms: C_5  and  S_6
REMARK    3  A    between atoms: S_6  and  N_9
REMARK    4  A    between atoms: N_9  and  N_10
REMARK    5  A    between atoms: C_11  and  C_13
REMARK    6  A    between atoms: C_18  and  C_19
REMARK    7  A    between atoms: C_19  and  O_21
REMARK                            x       y       z     vdW  Elec       q    Type
REMARK                         _______ _______ _______ _____ _____    ______ ____
ROOT
ATOM      1  N   UNL     1       5.039   5.398  18.858  0.00  0.00    +0.000 N 
ATOM      2  C   UNL     1       4.633   4.197  19.405  0.00  0.00    +0.000 C 
ATOM      3  O   UNL     1       5.381   3.219  19.433  0.00  0.00    +0.000 OA
ATOM      4  H   UNL     1       4.469   6.242  18.856  0.00  0.00    +0.000 HD
ENDROOT
BRANCH   2   5
ATOM      5  C   UNL     1       3.230   4.202  20.037  0.00  0.00    +0.000 C 
ATOM      6  C   UNL     1       2.437   5.485  19.705  0.00  0.00    +0.000 C 
ATOM      7  C   UNL     1       1.763   5.438  18.365  0.00  0.00    +0.000 C 
ATOM      8  C   UNL     1       1.628   4.317  17.643  0.00  0.00    +0.000 C 
ATOM      9  C   UNL     1       2.083   2.972  18.118  0.00  0.00    +0.000 C 
ATOM     10  C   UNL     1       2.433   2.934  19.619  0.00  0.00    +0.000 C 
BRANCH  10  11
ATOM     11  C   UNL     1       1.187   2.760  20.483  0.00  0.00    +0.000 C 
ATOM     12  O   UNL     1       1.193   2.648  21.700  0.00  0.00    +0.000 OA
BRANCH  11  13
ATOM     13  O   UNL     1       0.034   2.660  19.781  0.00  0.00    +0.000 OA
ATOM     14  H   UNL     1       0.070   2.080  18.998  0.00  0.00    +0.000 HD
ENDBRANCH  11  13
ENDBRANCH  10  11
ENDBRANCH   2   5
BRANCH   1  15
ATOM     15  N   UNL     1       6.360   5.490  18.252  0.00  0.00    +0.000 NA
ATOM     16  H   UNL     1       7.146   4.995  18.682  0.00  0.00    +0.000 HD
BRANCH  15  17
ATOM     17  S   UNL     1       6.569   6.470  16.894  0.00  0.00    +0.000 S 
ATOM     18  O   UNL     1       7.929   6.962  16.943  0.00  0.00    +0.000 OA
ATOM     19  O   UNL     1       5.450   7.391  16.849  0.00  0.00    +0.000 OA
BRANCH  17  24
ATOM     20  C   UNL     1       5.865   2.910  12.023  0.00  0.00    +0.000 C 
ATOM     21  C   UNL     1       6.062   3.744  13.257  0.00  0.00    +0.000 A 
ATOM     22  C   UNL     1       5.119   3.730  14.293  0.00  0.00    +0.000 A 
ATOM     23  C   UNL     1       5.289   4.538  15.422  0.00  0.00    +0.000 A 
ATOM     24  C   UNL     1       6.417   5.358  15.520  0.00  0.00    +0.000 A 
ATOM     25  C   UNL     1       7.367   5.380  14.496  0.00  0.00    +0.000 A 
ATOM     26  C   UNL     1       7.187   4.575  13.367  0.00  0.00    +0.000 A 
ENDBRANCH  17  24
ENDBRANCH  15  17
ENDBRANCH   1  15
TORSDOF 6
ENDMDL
MODEL 9
REMARK VINA RESULT:      -7.5      2.572      6.404
REMARK  Name = 
REMARK  7 active torsions:
REMARK  status: ('A' for Active; 'I' for Inactive)
REMARK    1  A    between atoms: C_1  and  C_2
REMARK    2  A    between atoms: C_5  and  S_6
REMARK    3  A    between atoms: S_6  and  N_9
REMARK    4  A    between atoms: N_9  and  N_10
REMARK    5  A    between atoms: C_11  and  C_13
REMARK    6  A    between atoms: C_18  and  C_19
REMARK    7  A    between atoms: C_19  and  O_21
REMARK                            x       y       z     vdW  Elec       q    Type
REMARK                         _______ _______ _______ _____ _____    ______ ____
ROOT
ATOM      1  N   UNL     1       4.542   5.508  18.485  0.00  0.00    +0.000 N 
ATOM      2  C   UNL     1       3.186   5.762  18.418  0.00  0.00    +0.000 C 
ATOM      3  O   UNL     1       2.742   6.712  17.771  0.00  0.00    +0.000 OA
ATOM      4  H   UNL     1       4.946   4.709  18.970  0.00  0.00    +0.000 HD
ENDROOT
BRANCH   2   5
ATOM      5  C   UNL     1       2.288   4.737  19.132  0.00  0.00    +0.000 C 
ATOM      6  C   UNL     1       1.537   3.819  18.144  0.00  0.00    +0.000 C 
ATOM      7  C   UNL     1       2.363   2.663  17.661  0.00  0.00    +0.000 C 
ATOM      8  C   UNL     1       3.525   2.299  18.219  0.00  0.00    +0.000 C 
ATOM      9  C   UNL     1       4.104   2.969  19.426  0.00  0.00    +0.000 C 
ATOM     10  C   UNL     1       3.111   3.899  20.151  0.00  0.00    +0.000 C 
BRANCH  10  11
ATOM     11  C   UNL     1       2.193   3.119  21.089  0.00  0.00    +0.000 C 
ATOM     12  O   UNL     1       0.974   3.210  21.104  0.00  0.00    +0.000 OA
BRANCH  11  13
ATOM     13  O   UNL     1       2.845   2.345  21.986  0.00  0.00    +0.000 OA
ATOM     14  H   UNL     1       3.761   2.613  22.183  0.00  0.00    +0.000 HD
ENDBRANCH  11  13
ENDBRANCH  10  11
ENDBRANCH   2   5
BRANCH   1  15
ATOM     15  N   UNL     1       5.467   6.417  17.823  0.00  0.00    +0.000 NA
ATOM     16  H   UNL     1       5.175   7.379  17.631  0.00  0.00    +0.000 HD
BRANCH  15  17
ATOM     17  S   UNL     1       6.972   5.835  17.330  0.00  0.00    +0.000 S 
ATOM     18  O   UNL     1       7.388   4.867  18.322  0.00  0.00    +0.000 OA
ATOM     19  O   UNL     1       7.802   6.985  17.025  0.00  0.00    +0.000 OA
BRANCH  17  24
ATOM     20  C   UNL     1       5.622   3.180  12.037  0.00  0.00    +0.000 C 
ATOM     21  C   UNL     1       5.984   3.787  13.362  0.00  0.00    +0.000 A 
ATOM     22  C   UNL     1       5.216   3.531  14.506  0.00  0.00    +0.000 A 
ATOM     23  C   UNL     1       5.536   4.130  15.728  0.00  0.00    +0.000 A 
ATOM     24  C   UNL     1       6.640   4.984  15.811  0.00  0.00    +0.000 A 
ATOM     25  C   UNL     1       7.417   5.246  14.679  0.00  0.00    +0.000 A 
ATOM     26  C   UNL     1       7.087   4.649  13.459  0.00  0.00    +0.000 A 
ENDBRANCH  17  24
ENDBRANCH  15  17
ENDBRANCH   1  15
TORSDOF 6
ENDMDL
