MODEL 1
REMARK VINA RESULT:      -9.1      0.000      0.000
REMARK  Name = 
REMARK  1 active torsions:
REMARK  status: ('A' for Active; 'I' for Inactive)
REMARK    1  A    between atoms: C_1  and  N_2
REMARK                            x       y       z     vdW  Elec       q    Type
REMARK                         _______ _______ _______ _____ _____    ______ ____
ROOT
ATOM      1  C   UNL     1       7.429   6.703  17.166  0.00  0.00    +0.000 C 
ATOM      2  N   UNL     1       6.107   6.591  17.821  0.00  0.00    +0.000 NA
ATOM      3  C   UNL     1       6.119   5.304  18.538  0.00  0.00    +0.000 C 
ATOM      4  C   UNL     1       4.835   5.164  19.261  0.00  0.00    +0.000 C 
ATOM      5  N   UNL     1       3.724   5.144  18.316  0.00  0.00    +0.000 N 
ATOM      6  C   UNL     1       2.609   4.378  18.724  0.00  0.00    +0.000 A 
ATOM      7  C   UNL     1       2.260   3.216  18.014  0.00  0.00    +0.000 A 
ATOM      8  C   UNL     1       1.274   2.366  18.529  0.00  0.00    +0.000 A 
ATOM      9  C   UNL     1       0.645   2.672  19.740  0.00  0.00    +0.000 A 
ATOM     10  C   UNL     1       0.958   3.854  20.416  0.00  0.00    +0.000 A 
ATOM     11  C   UNL     1       1.934   4.718  19.903  0.00  0.00    +0.000 A 
ATOM     12  C   UNL     1       2.289   5.990  20.626  0.00  0.00    +0.000 C 
ATOM     13  C   UNL     1       2.161   7.229  19.724  0.00  0.00    +0.000 A 
ATOM     14  C   UNL     1       1.357   8.245  20.284  0.00  0.00    +0.000 A 
ATOM     15  C   UNL     1       1.067   9.411  19.602  0.00  0.00    +0.000 A 
ATOM     16  C   UNL     1       1.567   9.604  18.322  0.00  0.00    +0.000 A 
ATOM     17  C   UNL     1       2.385   8.631  17.722  0.00  0.00    +0.000 A 
ATOM     18  C   UNL     1       2.727   7.424  18.386  0.00  0.00    +0.000 A 
ATOM     19  C   UNL     1       3.542   6.360  17.560  0.00  0.00    +0.000 C 
ATOM     20  C   UNL     1       4.949   6.674  16.882  0.00  0.00    +0.000 C 
ENDROOT
TORSDOF 0
ENDMDL
MODEL 2
REMARK VINA RESULT:      -8.6      1.112      4.608
REMARK  Name = 
REMARK  1 active torsions:
REMARK  status: ('A' for Active; 'I' for Inactive)
REMARK    1  A    between atoms: C_1  and  N_2
REMARK                            x       y       z     vdW  Elec       q    Type
REMARK                         _______ _______ _______ _____ _____    ______ ____
ROOT
ATOM      1  C   UNL     1       1.307   1.983  19.341  0.00  0.00    +0.000 C 
ATOM      2  N   UNL     1       1.962   3.259  18.979  0.00  0.00    +0.000 NA
ATOM      3  C   UNL     1       3.106   2.897  18.125  0.00  0.00    +0.000 C 
ATOM      4  C   UNL     1       3.770   4.145  17.686  0.00  0.00    +0.000 C 
ATOM      5  N   UNL     1       4.279   4.878  18.839  0.00  0.00    +0.000 N 
ATOM      6  C   UNL     1       5.442   5.643  18.592  0.00  0.00    +0.000 A 
ATOM      7  C   UNL     1       6.654   5.296  19.214  0.00  0.00    +0.000 A 
ATOM      8  C   UNL     1       7.835   5.940  18.825  0.00  0.00    +0.000 A 
ATOM      9  C   UNL     1       7.806   6.918  17.825  0.00  0.00    +0.000 A 
ATOM     10  C   UNL     1       6.592   7.295  17.246  0.00  0.00    +0.000 A 
ATOM     11  C   UNL     1       5.402   6.667  17.637  0.00  0.00    +0.000 A 
ATOM     12  C   UNL     1       4.089   7.056  17.015  0.00  0.00    +0.000 C 
ATOM     13  C   UNL     1       3.040   7.454  18.067  0.00  0.00    +0.000 A 
ATOM     14  C   UNL     1       2.456   8.716  17.822  0.00  0.00    +0.000 A 
ATOM     15  C   UNL     1       1.538   9.281  18.688  0.00  0.00    +0.000 A 
ATOM     16  C   UNL     1       1.172   8.604  19.843  0.00  0.00    +0.000 A 
ATOM     17  C   UNL     1       1.713   7.338  20.128  0.00  0.00    +0.000 A 
ATOM     18  C   UNL     1       2.645   6.706  19.265  0.00  0.00    +0.000 A 
ATOM     19  C   UNL     1       3.272   5.350  19.758  0.00  0.00    +0.000 C 
ATOM     20  C   UNL     1       2.399   4.077  20.149  0.00  0.00    +0.000 C 
ENDROOT
TORSDOF 0
ENDMDL
MODEL 3
REMARK VINA RESULT:      -6.9      5.954      8.617
REMARK  Name = 
REMARK  1 active torsions:
REMARK  status: ('A' for Active; 'I' for Inactive)
REMARK    1  A    between atoms: C_1  and  N_2
REMARK                            x       y       z     vdW  Elec       q    Type
REMARK                         _______ _______ _______ _____ _____    ______ ____
ROOT
ATOM      1  C   UNL     1      -1.191  15.946  22.334  0.00  0.00    +0.000 C 
ATOM      2  N   UNL     1      -1.026  14.625  21.690  0.00  0.00    +0.000 NA
ATOM      3  C   UNL     1      -1.185  14.858  20.244  0.00  0.00    +0.000 C 
ATOM      4  C   UNL     1      -0.974  13.572  19.542  0.00  0.00    +0.000 C 
ATOM      5  N   UNL     1      -1.979  12.600  19.957  0.00  0.00    +0.000 N 
ATOM      6  C   UNL     1      -2.336  11.654  18.969  0.00  0.00    +0.000 A 
ATOM      7  C   UNL     1      -3.635  11.657  18.434  0.00  0.00    +0.000 A 
ATOM      8  C   UNL     1      -3.927  10.844  17.331  0.00  0.00    +0.000 A 
ATOM      9  C   UNL     1      -2.931  10.039  16.769  0.00  0.00    +0.000 A 
ATOM     10  C   UNL     1      -1.655  10.001  17.336  0.00  0.00    +0.000 A 
ATOM     11  C   UNL     1      -1.356  10.800  18.448  0.00  0.00    +0.000 A 
ATOM     12  C   UNL     1       0.017  10.777  19.062  0.00  0.00    +0.000 C 
ATOM     13  C   UNL     1      -0.023  10.462  20.567  0.00  0.00    +0.000 A 
ATOM     14  C   UNL     1       0.822   9.392  20.935  0.00  0.00    +0.000 A 
ATOM     15  C   UNL     1       0.880   8.915  22.231  0.00  0.00    +0.000 A 
ATOM     16  C   UNL     1       0.084   9.488  23.213  0.00  0.00    +0.000 A 
ATOM     17  C   UNL     1      -0.765  10.565  22.904  0.00  0.00    +0.000 A 
ATOM     18  C   UNL     1      -0.848  11.105  21.594  0.00  0.00    +0.000 A 
ATOM     19  C   UNL     1      -1.928  12.223  21.349  0.00  0.00    +0.000 C 
ATOM     20  C   UNL     1      -1.978  13.582  22.177  0.00  0.00    +0.000 C 
ENDROOT
TORSDOF 0
ENDMDL
MODEL 4
REMARK VINA RESULT:      -6.4      6.485      9.099
REMARK  Name = 
REMARK  1 active torsions:
REMARK  status: ('A' for Active; 'I' for Inactive)
REMARK    1  A    between atoms: C_1  and  N_2
REMARK                            x       y       z     vdW  Elec       q    Type
REMARK                         _______ _______ _______ _____ _____    ______ ____
ROOT
ATOM      1  C   UNL     1      -3.435  12.549  23.701  0.00  0.00    +0.000 C 
ATOM      2  N   UNL     1      -2.663  12.245  22.476  0.00  0.00    +0.000 NA
ATOM      3  C   UNL     1      -1.244  12.380  22.849  0.00  0.00    +0.000 C 
ATOM      4  C   UNL     1      -0.420  12.032  21.670  0.00  0.00    +0.000 C 
ATOM      5  N   UNL     1      -0.690  12.956  20.575  0.00  0.00    +0.000 N 
ATOM      6  C   UNL     1       0.405  13.194  19.714  0.00  0.00    +0.000 A 
ATOM      7  C   UNL     1       0.989  14.471  19.661  0.00  0.00    +0.000 A 
ATOM      8  C   UNL     1       2.181  14.654  18.949  0.00  0.00    +0.000 A 
ATOM      9  C   UNL     1       2.784  13.571  18.300  0.00  0.00    +0.000 A 
ATOM     10  C   UNL     1       2.173  12.315  18.312  0.00  0.00    +0.000 A 
ATOM     11  C   UNL     1       0.973  12.125  19.010  0.00  0.00    +0.000 A 
ATOM     12  C   UNL     1       0.310  10.775  19.041  0.00  0.00    +0.000 C 
ATOM     13  C   UNL     1      -1.151  10.832  18.563  0.00  0.00    +0.000 A 
ATOM     14  C   UNL     1      -1.439   9.905  17.538  0.00  0.00    +0.000 A 
ATOM     15  C   UNL     1      -2.679   9.843  16.930  0.00  0.00    +0.000 A 
ATOM     16  C   UNL     1      -3.683  10.718  17.322  0.00  0.00    +0.000 A 
ATOM     17  C   UNL     1      -3.454  11.651  18.348  0.00  0.00    +0.000 A 
ATOM     18  C   UNL     1      -2.206  11.744  19.016  0.00  0.00    +0.000 A 
ATOM     19  C   UNL     1      -2.036  12.913  20.056  0.00  0.00    +0.000 C 
ATOM     20  C   UNL     1      -2.999  13.112  21.308  0.00  0.00    +0.000 C 
ENDROOT
TORSDOF 0
ENDMDL
