MODEL 1
REMARK VINA RESULT:      -7.8      0.000      0.000
REMARK  Name = 
REMARK  10 active torsions:
REMARK  status: ('A' for Active; 'I' for Inactive)
REMARK    1  A    between atoms: C_1  and  C_2
REMARK    2  A    between atoms: C_2  and  C_3
REMARK    3  A    between atoms: C_2  and  C_4
REMARK    4  A    between atoms: C_4  and  C_5
REMARK    5  A    between atoms: C_5  and  C_6
REMARK    6  A    between atoms: C_5  and  C_19
REMARK    7  A    between atoms: C_6  and  C_7
REMARK    8  A    between atoms: C_7  and  O_9
REMARK    9  A    between atoms: O_9  and  C_10
REMARK   10  A    between atoms: C_13  and  N_14
REMARK                            x       y       z     vdW  Elec       q    Type
REMARK                         _______ _______ _______ _____ _____    ______ ____
ROOT
ATOM      1  C   UNL     1       4.160   6.432  17.952  0.00  0.00    +0.000 C 
ENDROOT
BRANCH   1   2
ATOM      2  C   UNL     1       5.034   5.364  18.570  0.00  0.00    +0.000 C 
ATOM      3  O   UNL     1       5.588   5.488  19.655  0.00  0.00    +0.000 OA
BRANCH   2   4
ATOM      4  O   UNL     1       5.060   4.218  17.780  0.00  0.00    +0.000 OA
BRANCH   4   5
ATOM      5  C   UNL     1       5.796   4.243  16.575  0.00  0.00    +0.000 A 
ATOM      6  C   UNL     1       5.125   3.880  15.405  0.00  0.00    +0.000 A 
ATOM      7  C   UNL     1       5.736   4.106  14.166  0.00  0.00    +0.000 A 
ATOM      8  C   UNL     1       6.996   4.725  14.114  0.00  0.00    +0.000 A 
ATOM      9  C   UNL     1       7.671   5.068  15.288  0.00  0.00    +0.000 A 
ATOM     10  C   UNL     1       7.077   4.803  16.517  0.00  0.00    +0.000 A 
BRANCH   8  11
ATOM     11  N   UNL     1       7.602   5.060  12.821  0.00  0.00    +0.000 N 
ATOM     12  O   UNL     1       7.288   4.376  11.840  0.00  0.00    +0.000 OA
ATOM     13  O   UNL     1       8.389   6.020  12.788  0.00  0.00    +0.000 OA
ENDBRANCH   8  11
ENDBRANCH   4   5
ENDBRANCH   2   4
ENDBRANCH   1   2
BRANCH   1  14
ATOM     14  C   UNL     1       2.679   6.492  18.388  0.00  0.00    +0.000 C 
BRANCH  14  15
ATOM     15  C   UNL     1       2.108   5.174  18.915  0.00  0.00    +0.000 A 
ATOM     16  C   UNL     1       1.653   4.189  18.028  0.00  0.00    +0.000 A 
ATOM     17  C   UNL     1       0.976   3.059  18.504  0.00  0.00    +0.000 A 
ATOM     18  C   UNL     1       0.766   2.884  19.871  0.00  0.00    +0.000 A 
ATOM     19  C   UNL     1       1.236   3.835  20.767  0.00  0.00    +0.000 A 
ATOM     20  C   UNL     1       1.887   4.970  20.286  0.00  0.00    +0.000 A 
ENDBRANCH  14  15
BRANCH  14  21
ATOM     21  C   UNL     1       2.297   7.617  19.380  0.00  0.00    +0.000 C 
BRANCH  21  23
ATOM     22  C   UNL     1       0.812   9.581  20.049  0.00  0.00    +0.000 C 
ATOM     23  C   UNL     1       1.312   8.696  18.910  0.00  0.00    +0.000 C 
ATOM     24  C   UNL     1       2.015   9.566  17.858  0.00  0.00    +0.000 C 
ENDBRANCH  21  23
ENDBRANCH  14  21
ENDBRANCH   1  14
TORSDOF 8
ENDMDL
MODEL 2
REMARK VINA RESULT:      -7.7      0.856      3.699
REMARK  Name = 
REMARK  10 active torsions:
REMARK  status: ('A' for Active; 'I' for Inactive)
REMARK    1  A    between atoms: C_1  and  C_2
REMARK    2  A    between atoms: C_2  and  C_3
REMARK    3  A    between atoms: C_2  and  C_4
REMARK    4  A    between atoms: C_4  and  C_5
REMARK    5  A    between atoms: C_5  and  C_6
REMARK    6  A    between atoms: C_5  and  C_19
REMARK    7  A    between atoms: C_6  and  C_7
REMARK    8  A    between atoms: C_7  and  O_9
REMARK    9  A    between atoms: O_9  and  C_10
REMARK   10  A    between atoms: C_13  and  N_14
REMARK                            x       y       z     vdW  Elec       q    Type
REMARK                         _______ _______ _______ _____ _____    ______ ____
ROOT
ATOM      1  C   UNL     1       4.392   5.454  18.914  0.00  0.00    +0.000 C 
ENDROOT
BRANCH   1   2
ATOM      2  C   UNL     1       4.935   4.046  18.823  0.00  0.00    +0.000 C 
ATOM      3  O   UNL     1       5.434   3.450  19.770  0.00  0.00    +0.000 OA
BRANCH   2   4
ATOM      4  O   UNL     1       4.728   3.509  17.555  0.00  0.00    +0.000 OA
BRANCH   4   5
ATOM      5  C   UNL     1       5.384   4.101  16.453  0.00  0.00    +0.000 A 
ATOM      6  C   UNL     1       6.687   4.564  16.655  0.00  0.00    +0.000 A 
ATOM      7  C   UNL     1       7.456   4.947  15.550  0.00  0.00    +0.000 A 
ATOM      8  C   UNL     1       6.924   4.826  14.256  0.00  0.00    +0.000 A 
ATOM      9  C   UNL     1       5.614   4.381  14.062  0.00  0.00    +0.000 A 
ATOM     10  C   UNL     1       4.839   4.042  15.166  0.00  0.00    +0.000 A 
BRANCH   8  11
ATOM     11  N   UNL     1       7.754   5.126  13.084  0.00  0.00    +0.000 N 
ATOM     12  O   UNL     1       8.728   5.872  13.241  0.00  0.00    +0.000 OA
ATOM     13  O   UNL     1       7.434   4.602  12.005  0.00  0.00    +0.000 OA
ENDBRANCH   8  11
ENDBRANCH   4   5
ENDBRANCH   2   4
ENDBRANCH   1   2
BRANCH   1  14
ATOM     14  C   UNL     1       2.957   5.639  19.453  0.00  0.00    +0.000 C 
BRANCH  14  15
ATOM     15  C   UNL     1       2.404   7.062  19.339  0.00  0.00    +0.000 A 
ATOM     16  C   UNL     1       1.760   7.665  20.428  0.00  0.00    +0.000 A 
ATOM     17  C   UNL     1       1.105   8.894  20.277  0.00  0.00    +0.000 A 
ATOM     18  C   UNL     1       1.105   9.549  19.047  0.00  0.00    +0.000 A 
ATOM     19  C   UNL     1       1.764   8.981  17.964  0.00  0.00    +0.000 A 
ATOM     20  C   UNL     1       2.393   7.746  18.114  0.00  0.00    +0.000 A 
ENDBRANCH  14  15
BRANCH  14  21
ATOM     21  C   UNL     1       1.886   4.660  18.916  0.00  0.00    +0.000 C 
BRANCH  21  23
ATOM     22  C   UNL     1       1.279   3.329  21.007  0.00  0.00    +0.000 C 
ATOM     23  C   UNL     1       1.780   3.273  19.566  0.00  0.00    +0.000 C 
ATOM     24  C   UNL     1       0.822   2.418  18.725  0.00  0.00    +0.000 C 
ENDBRANCH  21  23
ENDBRANCH  14  21
ENDBRANCH   1  14
TORSDOF 8
ENDMDL
MODEL 3
REMARK VINA RESULT:      -7.6      3.615      7.408
REMARK  Name = 
REMARK  10 active torsions:
REMARK  status: ('A' for Active; 'I' for Inactive)
REMARK    1  A    between atoms: C_1  and  C_2
REMARK    2  A    between atoms: C_2  and  C_3
REMARK    3  A    between atoms: C_2  and  C_4
REMARK    4  A    between atoms: C_4  and  C_5
REMARK    5  A    between atoms: C_5  and  C_6
REMARK    6  A    between atoms: C_5  and  C_19
REMARK    7  A    between atoms: C_6  and  C_7
REMARK    8  A    between atoms: C_7  and  O_9
REMARK    9  A    between atoms: O_9  and  C_10
REMARK   10  A    between atoms: C_13  and  N_14
REMARK                            x       y       z     vdW  Elec       q    Type
REMARK                         _______ _______ _______ _____ _____    ______ ____
ROOT
ATOM      1  C   UNL     1       3.870   3.566  17.223  0.00  0.00    +0.000 C 
ENDROOT
BRANCH   1   2
ATOM      2  C   UNL     1       2.672   4.258  17.832  0.00  0.00    +0.000 C 
ATOM      3  O   UNL     1       1.527   4.117  17.419  0.00  0.00    +0.000 OA
BRANCH   2   4
ATOM      4  O   UNL     1       3.037   5.005  18.949  0.00  0.00    +0.000 OA
BRANCH   4   5
ATOM      5  C   UNL     1       2.367   6.223  19.197  0.00  0.00    +0.000 A 
ATOM      6  C   UNL     1       1.829   6.412  20.473  0.00  0.00    +0.000 A 
ATOM      7  C   UNL     1       1.361   7.679  20.837  0.00  0.00    +0.000 A 
ATOM      8  C   UNL     1       1.471   8.749  19.934  0.00  0.00    +0.000 A 
ATOM      9  C   UNL     1       1.991   8.550  18.653  0.00  0.00    +0.000 A 
ATOM     10  C   UNL     1       2.416   7.279  18.281  0.00  0.00    +0.000 A 
BRANCH   8  11
ATOM     11  N   UNL     1       1.079  10.103  20.340  0.00  0.00    +0.000 N 
ATOM     12  O   UNL     1       0.811  10.920  19.449  0.00  0.00    +0.000 OA
ATOM     13  O   UNL     1       1.029  10.345  21.556  0.00  0.00    +0.000 OA
ENDBRANCH   8  11
ENDBRANCH   4   5
ENDBRANCH   2   4
ENDBRANCH   1   2
BRANCH   1  14
ATOM     14  C   UNL     1       4.820   4.409  16.344  0.00  0.00    +0.000 C 
BRANCH  14  15
ATOM     15  C   UNL     1       5.803   5.290  17.118  0.00  0.00    +0.000 A 
ATOM     16  C   UNL     1       5.882   6.666  16.861  0.00  0.00    +0.000 A 
ATOM     17  C   UNL     1       6.893   7.442  17.441  0.00  0.00    +0.000 A 
ATOM     18  C   UNL     1       7.823   6.863  18.303  0.00  0.00    +0.000 A 
ATOM     19  C   UNL     1       7.742   5.507  18.593  0.00  0.00    +0.000 A 
ATOM     20  C   UNL     1       6.749   4.734  17.993  0.00  0.00    +0.000 A 
ENDBRANCH  14  15
BRANCH  14  21
ATOM     21  C   UNL     1       5.609   3.647  15.252  0.00  0.00    +0.000 C 
BRANCH  21  23
ATOM     22  C   UNL     1       7.355   4.968  13.943  0.00  0.00    +0.000 C 
ATOM     23  C   UNL     1       5.944   4.385  13.950  0.00  0.00    +0.000 C 
ATOM     24  C   UNL     1       5.793   3.400  12.782  0.00  0.00    +0.000 C 
ENDBRANCH  21  23
ENDBRANCH  14  21
ENDBRANCH   1  14
TORSDOF 8
ENDMDL
MODEL 4
REMARK VINA RESULT:      -7.5      1.053      3.701
REMARK  Name = 
REMARK  10 active torsions:
REMARK  status: ('A' for Active; 'I' for Inactive)
REMARK    1  A    between atoms: C_1  and  C_2
REMARK    2  A    between atoms: C_2  and  C_3
REMARK    3  A    between atoms: C_2  and  C_4
REMARK    4  A    between atoms: C_4  and  C_5
REMARK    5  A    between atoms: C_5  and  C_6
REMARK    6  A    between atoms: C_5  and  C_19
REMARK    7  A    between atoms: C_6  and  C_7
REMARK    8  A    between atoms: C_7  and  O_9
REMARK    9  A    between atoms: O_9  and  C_10
REMARK   10  A    between atoms: C_13  and  N_14
REMARK                            x       y       z     vdW  Elec       q    Type
REMARK                         _______ _______ _______ _____ _____    ______ ____
ROOT
ATOM      1  C   UNL     1       4.285   5.445  19.647  0.00  0.00    +0.000 C 
ENDROOT
BRANCH   1   2
ATOM      2  C   UNL     1       4.904   4.081  19.443  0.00  0.00    +0.000 C 
ATOM      3  O   UNL     1       4.343   3.032  19.737  0.00  0.00    +0.000 OA
BRANCH   2   4
ATOM      4  O   UNL     1       6.146   4.181  18.822  0.00  0.00    +0.000 OA
BRANCH   4   5
ATOM      5  C   UNL     1       6.190   4.431  17.433  0.00  0.00    +0.000 A 
ATOM      6  C   UNL     1       7.263   5.186  16.951  0.00  0.00    +0.000 A 
ATOM      7  C   UNL     1       7.476   5.268  15.570  0.00  0.00    +0.000 A 
ATOM      8  C   UNL     1       6.633   4.565  14.692  0.00  0.00    +0.000 A 
ATOM      9  C   UNL     1       5.551   3.829  15.180  0.00  0.00    +0.000 A 
ATOM     10  C   UNL     1       5.319   3.785  16.550  0.00  0.00    +0.000 A 
BRANCH   8  11
ATOM     11  N   UNL     1       6.906   4.559  13.251  0.00  0.00    +0.000 N 
ATOM     12  O   UNL     1       7.735   5.368  12.815  0.00  0.00    +0.000 OA
ATOM     13  O   UNL     1       6.294   3.734  12.554  0.00  0.00    +0.000 OA
ENDBRANCH   8  11
ENDBRANCH   4   5
ENDBRANCH   2   4
ENDBRANCH   1   2
BRANCH   1  14
ATOM     14  C   UNL     1       2.747   5.556  19.572  0.00  0.00    +0.000 C 
BRANCH  14  15
ATOM     15  C   UNL     1       2.214   6.966  19.305  0.00  0.00    +0.000 A 
ATOM     16  C   UNL     1       2.387   7.567  18.051  0.00  0.00    +0.000 A 
ATOM     17  C   UNL     1       2.056   8.914  17.855  0.00  0.00    +0.000 A 
ATOM     18  C   UNL     1       1.525   9.671  18.897  0.00  0.00    +0.000 A 
ATOM     19  C   UNL     1       1.318   9.084  20.139  0.00  0.00    +0.000 A 
ATOM     20  C   UNL     1       1.673   7.750  20.335  0.00  0.00    +0.000 A 
ENDBRANCH  14  15
BRANCH  14  21
ATOM     21  C   UNL     1       2.029   4.578  18.610  0.00  0.00    +0.000 C 
BRANCH  21  23
ATOM     22  C   UNL     1       1.101   2.202  18.665  0.00  0.00    +0.000 C 
ATOM     23  C   UNL     1       0.974   3.629  19.194  0.00  0.00    +0.000 C 
ATOM     24  C   UNL     1       1.124   3.621  20.722  0.00  0.00    +0.000 C 
ENDBRANCH  21  23
ENDBRANCH  14  21
ENDBRANCH   1  14
TORSDOF 8
ENDMDL
MODEL 5
REMARK VINA RESULT:      -7.5      1.091      1.928
REMARK  Name = 
REMARK  10 active torsions:
REMARK  status: ('A' for Active; 'I' for Inactive)
REMARK    1  A    between atoms: C_1  and  C_2
REMARK    2  A    between atoms: C_2  and  C_3
REMARK    3  A    between atoms: C_2  and  C_4
REMARK    4  A    between atoms: C_4  and  C_5
REMARK    5  A    between atoms: C_5  and  C_6
REMARK    6  A    between atoms: C_5  and  C_19
REMARK    7  A    between atoms: C_6  and  C_7
REMARK    8  A    between atoms: C_7  and  O_9
REMARK    9  A    between atoms: O_9  and  C_10
REMARK   10  A    between atoms: C_13  and  N_14
REMARK                            x       y       z     vdW  Elec       q    Type
REMARK                         _______ _______ _______ _____ _____    ______ ____
ROOT
ATOM      1  C   UNL     1       4.465   5.832  18.848  0.00  0.00    +0.000 C 
ENDROOT
BRANCH   1   2
ATOM      2  C   UNL     1       5.466   4.700  18.886  0.00  0.00    +0.000 C 
ATOM      3  O   UNL     1       5.309   3.680  19.545  0.00  0.00    +0.000 OA
BRANCH   2   4
ATOM      4  O   UNL     1       6.535   4.946  18.028  0.00  0.00    +0.000 OA
BRANCH   4   5
ATOM      5  C   UNL     1       6.343   4.768  16.640  0.00  0.00    +0.000 A 
ATOM      6  C   UNL     1       7.204   5.457  15.781  0.00  0.00    +0.000 A 
ATOM      7  C   UNL     1       7.205   5.141  14.417  0.00  0.00    +0.000 A 
ATOM      8  C   UNL     1       6.373   4.116  13.938  0.00  0.00    +0.000 A 
ATOM      9  C   UNL     1       5.501   3.445  14.799  0.00  0.00    +0.000 A 
ATOM     10  C   UNL     1       5.473   3.791  16.146  0.00  0.00    +0.000 A 
BRANCH   8  11
ATOM     11  N   UNL     1       6.439   3.705  12.532  0.00  0.00    +0.000 N 
ATOM     12  O   UNL     1       5.620   2.868  12.134  0.00  0.00    +0.000 OA
ATOM     13  O   UNL     1       7.309   4.233  11.821  0.00  0.00    +0.000 OA
ENDBRANCH   8  11
ENDBRANCH   4   5
ENDBRANCH   2   4
ENDBRANCH   1   2
BRANCH   1  14
ATOM     14  C   UNL     1       3.088   5.555  18.206  0.00  0.00    +0.000 C 
BRANCH  14  15
ATOM     15  C   UNL     1       2.243   4.498  18.922  0.00  0.00    +0.000 A 
ATOM     16  C   UNL     1       2.034   4.572  20.306  0.00  0.00    +0.000 A 
ATOM     17  C   UNL     1       1.409   3.520  20.989  0.00  0.00    +0.000 A 
ATOM     18  C   UNL     1       0.961   2.396  20.298  0.00  0.00    +0.000 A 
ATOM     19  C   UNL     1       1.132   2.319  18.923  0.00  0.00    +0.000 A 
ATOM     20  C   UNL     1       1.778   3.357  18.252  0.00  0.00    +0.000 A 
ENDBRANCH  14  15
BRANCH  14  21
ATOM     21  C   UNL     1       2.192   6.787  17.934  0.00  0.00    +0.000 C 
BRANCH  21  23
ATOM     22  C   UNL     1       2.140   9.338  17.919  0.00  0.00    +0.000 C 
ATOM     23  C   UNL     1       2.477   8.078  18.713  0.00  0.00    +0.000 C 
ATOM     24  C   UNL     1       1.652   8.054  20.007  0.00  0.00    +0.000 C 
ENDBRANCH  21  23
ENDBRANCH  14  21
ENDBRANCH   1  14
TORSDOF 8
ENDMDL
MODEL 6
REMARK VINA RESULT:      -7.4      2.601      4.633
REMARK  Name = 
REMARK  10 active torsions:
REMARK  status: ('A' for Active; 'I' for Inactive)
REMARK    1  A    between atoms: C_1  and  C_2
REMARK    2  A    between atoms: C_2  and  C_3
REMARK    3  A    between atoms: C_2  and  C_4
REMARK    4  A    between atoms: C_4  and  C_5
REMARK    5  A    between atoms: C_5  and  C_6
REMARK    6  A    between atoms: C_5  and  C_19
REMARK    7  A    between atoms: C_6  and  C_7
REMARK    8  A    between atoms: C_7  and  O_9
REMARK    9  A    between atoms: O_9  and  C_10
REMARK   10  A    between atoms: C_13  and  N_14
REMARK                            x       y       z     vdW  Elec       q    Type
REMARK                         _______ _______ _______ _____ _____    ______ ____
ROOT
ATOM      1  C   UNL     1       2.182   4.592  17.681  0.00  0.00    +0.000 C 
ENDROOT
BRANCH   1   2
ATOM      2  C   UNL     1       2.768   3.234  17.371  0.00  0.00    +0.000 C 
ATOM      3  O   UNL     1       2.145   2.186  17.487  0.00  0.00    +0.000 OA
BRANCH   2   4
ATOM      4  O   UNL     1       4.065   3.347  16.876  0.00  0.00    +0.000 OA
BRANCH   4   5
ATOM      5  C   UNL     1       4.828   4.481  17.231  0.00  0.00    +0.000 A 
ATOM      6  C   UNL     1       5.693   4.356  18.322  0.00  0.00    +0.000 A 
ATOM      7  C   UNL     1       6.630   5.366  18.571  0.00  0.00    +0.000 A 
ATOM      8  C   UNL     1       6.713   6.468  17.705  0.00  0.00    +0.000 A 
ATOM      9  C   UNL     1       5.833   6.596  16.628  0.00  0.00    +0.000 A 
ATOM     10  C   UNL     1       4.876   5.611  16.409  0.00  0.00    +0.000 A 
BRANCH   8  11
ATOM     11  N   UNL     1       7.758   7.481  17.895  0.00  0.00    +0.000 N 
ATOM     12  O   UNL     1       8.521   7.351  18.860  0.00  0.00    +0.000 OA
ATOM     13  O   UNL     1       7.819   8.404  17.067  0.00  0.00    +0.000 OA
ENDBRANCH   8  11
ENDBRANCH   4   5
ENDBRANCH   2   4
ENDBRANCH   1   2
BRANCH   1  14
ATOM     14  C   UNL     1       2.297   5.113  19.131  0.00  0.00    +0.000 C 
BRANCH  14  15
ATOM     15  C   UNL     1       2.103   6.622  19.292  0.00  0.00    +0.000 A 
ATOM     16  C   UNL     1       1.640   7.156  20.502  0.00  0.00    +0.000 A 
ATOM     17  C   UNL     1       1.299   8.511  20.599  0.00  0.00    +0.000 A 
ATOM     18  C   UNL     1       1.440   9.356  19.500  0.00  0.00    +0.000 A 
ATOM     19  C   UNL     1       1.926   8.852  18.301  0.00  0.00    +0.000 A 
ATOM     20  C   UNL     1       2.240   7.497  18.203  0.00  0.00    +0.000 A 
ENDBRANCH  14  15
BRANCH  14  21
ATOM     21  C   UNL     1       1.426   4.398  20.192  0.00  0.00    +0.000 C 
BRANCH  21  23
ATOM     22  C   UNL     1       1.280   2.499  21.891  0.00  0.00    +0.000 C 
ATOM     23  C   UNL     1       2.135   3.624  21.311  0.00  0.00    +0.000 C 
ATOM     24  C   UNL     1       3.435   3.036  20.744  0.00  0.00    +0.000 C 
ENDBRANCH  21  23
ENDBRANCH  14  21
ENDBRANCH   1  14
TORSDOF 8
ENDMDL
MODEL 7
REMARK VINA RESULT:      -7.4      0.466      1.302
REMARK  Name = 
REMARK  10 active torsions:
REMARK  status: ('A' for Active; 'I' for Inactive)
REMARK    1  A    between atoms: C_1  and  C_2
REMARK    2  A    between atoms: C_2  and  C_3
REMARK    3  A    between atoms: C_2  and  C_4
REMARK    4  A    between atoms: C_4  and  C_5
REMARK    5  A    between atoms: C_5  and  C_6
REMARK    6  A    between atoms: C_5  and  C_19
REMARK    7  A    between atoms: C_6  and  C_7
REMARK    8  A    between atoms: C_7  and  O_9
REMARK    9  A    between atoms: O_9  and  C_10
REMARK   10  A    between atoms: C_13  and  N_14
REMARK                            x       y       z     vdW  Elec       q    Type
REMARK                         _______ _______ _______ _____ _____    ______ ____
ROOT
ATOM      1  C   UNL     1       4.092   6.386  18.101  0.00  0.00    +0.000 C 
ENDROOT
BRANCH   1   2
ATOM      2  C   UNL     1       5.034   5.386  18.732  0.00  0.00    +0.000 C 
ATOM      3  O   UNL     1       5.500   5.512  19.858  0.00  0.00    +0.000 OA
BRANCH   2   4
ATOM      4  O   UNL     1       5.236   4.290  17.898  0.00  0.00    +0.000 OA
BRANCH   4   5
ATOM      5  C   UNL     1       5.637   4.520  16.564  0.00  0.00    +0.000 A 
ATOM      6  C   UNL     1       6.957   4.925  16.351  0.00  0.00    +0.000 A 
ATOM      7  C   UNL     1       7.466   4.945  15.047  0.00  0.00    +0.000 A 
ATOM      8  C   UNL     1       6.658   4.523  13.978  0.00  0.00    +0.000 A 
ATOM      9  C   UNL     1       5.333   4.137  14.195  0.00  0.00    +0.000 A 
ATOM     10  C   UNL     1       4.820   4.160  15.487  0.00  0.00    +0.000 A 
BRANCH   8  11
ATOM     11  N   UNL     1       7.210   4.441  12.622  0.00  0.00    +0.000 N 
ATOM     12  O   UNL     1       6.880   3.477  11.920  0.00  0.00    +0.000 OA
ATOM     13  O   UNL     1       7.970   5.352  12.256  0.00  0.00    +0.000 OA
ENDBRANCH   8  11
ENDBRANCH   4   5
ENDBRANCH   2   4
ENDBRANCH   1   2
BRANCH   1  14
ATOM     14  C   UNL     1       2.621   6.387  18.573  0.00  0.00    +0.000 C 
BRANCH  14  15
ATOM     15  C   UNL     1       2.081   5.021  19.003  0.00  0.00    +0.000 A 
ATOM     16  C   UNL     1       1.752   4.051  18.046  0.00  0.00    +0.000 A 
ATOM     17  C   UNL     1       1.100   2.870  18.424  0.00  0.00    +0.000 A 
ATOM     18  C   UNL     1       0.791   2.629  19.761  0.00  0.00    +0.000 A 
ATOM     19  C   UNL     1       1.137   3.565  20.727  0.00  0.00    +0.000 A 
ATOM     20  C   UNL     1       1.763   4.750  20.342  0.00  0.00    +0.000 A 
ENDBRANCH  14  15
BRANCH  14  21
ATOM     21  C   UNL     1       2.245   7.420  19.662  0.00  0.00    +0.000 C 
BRANCH  21  23
ATOM     22  C   UNL     1       1.432   8.905  17.752  0.00  0.00    +0.000 C 
ATOM     23  C   UNL     1       1.864   8.838  19.216  0.00  0.00    +0.000 C 
ATOM     24  C   UNL     1       0.719   9.335  20.109  0.00  0.00    +0.000 C 
ENDBRANCH  21  23
ENDBRANCH  14  21
ENDBRANCH   1  14
TORSDOF 8
ENDMDL
MODEL 8
REMARK VINA RESULT:      -7.4      0.620      3.391
REMARK  Name = 
REMARK  10 active torsions:
REMARK  status: ('A' for Active; 'I' for Inactive)
REMARK    1  A    between atoms: C_1  and  C_2
REMARK    2  A    between atoms: C_2  and  C_3
REMARK    3  A    between atoms: C_2  and  C_4
REMARK    4  A    between atoms: C_4  and  C_5
REMARK    5  A    between atoms: C_5  and  C_6
REMARK    6  A    between atoms: C_5  and  C_19
REMARK    7  A    between atoms: C_6  and  C_7
REMARK    8  A    between atoms: C_7  and  O_9
REMARK    9  A    between atoms: O_9  and  C_10
REMARK   10  A    between atoms: C_13  and  N_14
REMARK                            x       y       z     vdW  Elec       q    Type
REMARK                         _______ _______ _______ _____ _____    ______ ____
ROOT
ATOM      1  C   UNL     1       4.208   6.205  18.289  0.00  0.00    +0.000 C 
ENDROOT
BRANCH   1   2
ATOM      2  C   UNL     1       5.308   5.258  18.709  0.00  0.00    +0.000 C 
ATOM      3  O   UNL     1       6.049   5.461  19.662  0.00  0.00    +0.000 OA
BRANCH   2   4
ATOM      4  O   UNL     1       5.312   4.111  17.918  0.00  0.00    +0.000 OA
BRANCH   4   5
ATOM      5  C   UNL     1       5.965   4.154  16.667  0.00  0.00    +0.000 A 
ATOM      6  C   UNL     1       5.207   3.837  15.537  0.00  0.00    +0.000 A 
ATOM      7  C   UNL     1       5.738   4.084  14.265  0.00  0.00    +0.000 A 
ATOM      8  C   UNL     1       7.005   4.678  14.143  0.00  0.00    +0.000 A 
ATOM      9  C   UNL     1       7.766   4.975  15.277  0.00  0.00    +0.000 A 
ATOM     10  C   UNL     1       7.251   4.689  16.536  0.00  0.00    +0.000 A 
BRANCH   8  11
ATOM     11  N   UNL     1       7.530   5.037  12.821  0.00  0.00    +0.000 N 
ATOM     12  O   UNL     1       7.221   4.318  11.862  0.00  0.00    +0.000 OA
ATOM     13  O   UNL     1       8.245   6.048  12.742  0.00  0.00    +0.000 OA
ENDBRANCH   8  11
ENDBRANCH   4   5
ENDBRANCH   2   4
ENDBRANCH   1   2
BRANCH   1  14
ATOM     14  C   UNL     1       2.910   6.219  19.126  0.00  0.00    +0.000 C 
BRANCH  14  15
ATOM     15  C   UNL     1       2.144   7.544  19.107  0.00  0.00    +0.000 A 
ATOM     16  C   UNL     1       2.107   8.329  17.946  0.00  0.00    +0.000 A 
ATOM     17  C   UNL     1       1.555   9.616  17.974  0.00  0.00    +0.000 A 
ATOM     18  C   UNL     1       1.010  10.127  19.150  0.00  0.00    +0.000 A 
ATOM     19  C   UNL     1       1.011   9.352  20.303  0.00  0.00    +0.000 A 
ATOM     20  C   UNL     1       1.584   8.081  20.276  0.00  0.00    +0.000 A 
ENDBRANCH  14  15
BRANCH  14  21
ATOM     21  C   UNL     1       1.903   5.075  18.858  0.00  0.00    +0.000 C 
BRANCH  21  23
ATOM     22  C   UNL     1       2.057   4.017  21.175  0.00  0.00    +0.000 C 
ATOM     23  C   UNL     1       2.045   3.778  19.667  0.00  0.00    +0.000 C 
ATOM     24  C   UNL     1       0.874   2.853  19.307  0.00  0.00    +0.000 C 
ENDBRANCH  21  23
ENDBRANCH  14  21
ENDBRANCH   1  14
TORSDOF 8
ENDMDL
MODEL 9
REMARK VINA RESULT:      -7.4      1.083      3.862
REMARK  Name = 
REMARK  10 active torsions:
REMARK  status: ('A' for Active; 'I' for Inactive)
REMARK    1  A    between atoms: C_1  and  C_2
REMARK    2  A    between atoms: C_2  and  C_3
REMARK    3  A    between atoms: C_2  and  C_4
REMARK    4  A    between atoms: C_4  and  C_5
REMARK    5  A    between atoms: C_5  and  C_6
REMARK    6  A    between atoms: C_5  and  C_19
REMARK    7  A    between atoms: C_6  and  C_7
REMARK    8  A    between atoms: C_7  and  O_9
REMARK    9  A    between atoms: O_9  and  C_10
REMARK   10  A    between atoms: C_13  and  N_14
REMARK                            x       y       z     vdW  Elec       q    Type
REMARK                         _______ _______ _______ _____ _____    ______ ____
ROOT
ATOM      1  C   UNL     1       2.620   4.925  17.854  0.00  0.00    +0.000 C 
ENDROOT
BRANCH   1   2
ATOM      2  C   UNL     1       3.380   3.635  17.645  0.00  0.00    +0.000 C 
ATOM      3  O   UNL     1       2.839   2.561  17.410  0.00  0.00    +0.000 OA
BRANCH   2   4
ATOM      4  O   UNL     1       4.756   3.849  17.686  0.00  0.00    +0.000 OA
BRANCH   4   5
ATOM      5  C   UNL     1       5.397   4.353  16.533  0.00  0.00    +0.000 A 
ATOM      6  C   UNL     1       6.620   5.004  16.712  0.00  0.00    +0.000 A 
ATOM      7  C   UNL     1       7.399   5.316  15.592  0.00  0.00    +0.000 A 
ATOM      8  C   UNL     1       6.961   4.940  14.312  0.00  0.00    +0.000 A 
ATOM      9  C   UNL     1       5.728   4.307  14.138  0.00  0.00    +0.000 A 
ATOM     10  C   UNL     1       4.939   4.036  15.250  0.00  0.00    +0.000 A 
BRANCH   8  11
ATOM     11  N   UNL     1       7.815   5.169  13.141  0.00  0.00    +0.000 N 
ATOM     12  O   UNL     1       8.787   5.922  13.272  0.00  0.00    +0.000 OA
ATOM     13  O   UNL     1       7.514   4.583  12.089  0.00  0.00    +0.000 OA
ENDBRANCH   8  11
ENDBRANCH   4   5
ENDBRANCH   2   4
ENDBRANCH   1   2
BRANCH   1  14
ATOM     14  C   UNL     1       2.899   5.724  19.145  0.00  0.00    +0.000 C 
BRANCH  14  15
ATOM     15  C   UNL     1       2.396   7.170  19.130  0.00  0.00    +0.000 A 
ATOM     16  C   UNL     1       1.759   7.714  20.254  0.00  0.00    +0.000 A 
ATOM     17  C   UNL     1       1.148   8.973  20.186  0.00  0.00    +0.000 A 
ATOM     18  C   UNL     1       1.186   9.715  19.007  0.00  0.00    +0.000 A 
ATOM     19  C   UNL     1       1.839   9.205  17.893  0.00  0.00    +0.000 A 
ATOM     20  C   UNL     1       2.424   7.941  17.958  0.00  0.00    +0.000 A 
ENDBRANCH  14  15
BRANCH  14  21
ATOM     21  C   UNL     1       2.449   5.070  20.474  0.00  0.00    +0.000 C 
BRANCH  21  23
ATOM     22  C   UNL     1       2.331   2.867  21.756  0.00  0.00    +0.000 C 
ATOM     23  C   UNL     1       2.025   3.595  20.449  0.00  0.00    +0.000 C 
ATOM     24  C   UNL     1       0.518   3.530  20.169  0.00  0.00    +0.000 C 
ENDBRANCH  21  23
ENDBRANCH  14  21
ENDBRANCH   1  14
TORSDOF 8
ENDMDL
