MODEL 1
REMARK VINA RESULT:      -7.5      0.000      0.000
REMARK  Name = 
REMARK  4 active torsions:
REMARK  status: ('A' for Active; 'I' for Inactive)
REMARK    1  A    between atoms: C_2  and  O_3
REMARK    2  A    between atoms: C_2  and  C_15
REMARK    3  A    between atoms: O_3  and  C_4
REMARK    4  A    between atoms: C_4  and  C_5
REMARK                            x       y       z     vdW  Elec       q    Type
REMARK                         _______ _______ _______ _____ _____    ______ ____
ROOT
ATOM      1  O   UNL     1       4.765   3.263  16.812  0.00  0.00    +0.000 OA
ENDROOT
BRANCH   1   3
ATOM      2  O   UNL     1       5.418   4.173  14.808  0.00  0.00    +0.000 OA
ATOM      3  C   UNL     1       5.459   4.126  16.029  0.00  0.00    +0.000 C 
BRANCH   3   4
ATOM      4  C   UNL     1       6.205   5.127  16.855  0.00  0.00    +0.000 A 
ATOM      5  C   UNL     1       6.998   4.645  17.926  0.00  0.00    +0.000 A 
ATOM      6  C   UNL     1       7.822   5.503  18.666  0.00  0.00    +0.000 A 
ATOM      7  C   UNL     1       7.844   6.833  18.309  0.00  0.00    +0.000 A 
ATOM      8  C   UNL     1       7.062   7.317  17.285  0.00  0.00    +0.000 A 
ATOM      9  C   UNL     1       6.221   6.499  16.552  0.00  0.00    +0.000 A 
ATOM     10  O   UNL     1       7.248   8.650  17.086  0.00  0.00    +0.000 OA
ATOM     11  C   UNL     1       8.232   8.948  18.100  0.00  0.00    +0.000 C 
ATOM     12  O   UNL     1       8.612   7.796  18.881  0.00  0.00    +0.000 OA
ENDBRANCH   3   4
ENDBRANCH   1   3
BRANCH   1  13
ATOM     13  C   UNL     1       3.393   3.599  17.113  0.00  0.00    +0.000 C 
BRANCH  13  14
ATOM     14  C   UNL     1       3.100   3.797  18.613  0.00  0.00    +0.000 C 
ATOM     15  C   UNL     1       2.394   2.550  19.170  0.00  0.00    +0.000 C 
ATOM     16  C   UNL     1       2.076   2.716  20.648  0.00  0.00    +0.000 C 
ATOM     17  C   UNL     1       1.275   3.991  20.880  0.00  0.00    +0.000 C 
ATOM     18  N   UNL     1       2.003   5.172  20.396  0.00  0.00    +0.000 NA
ATOM     19  C   UNL     1       1.235   6.385  20.724  0.00  0.00    +0.000 C 
ATOM     20  C   UNL     1       1.987   7.652  20.332  0.00  0.00    +0.000 C 
ATOM     21  C   UNL     1       2.351   7.628  18.858  0.00  0.00    +0.000 C 
ATOM     22  C   UNL     1       3.101   6.344  18.524  0.00  0.00    +0.000 C 
ATOM     23  C   UNL     1       2.300   5.087  18.940  0.00  0.00    +0.000 C 
ENDBRANCH  13  14
ENDBRANCH   1  13
TORSDOF 4
ENDMDL
MODEL 2
REMARK VINA RESULT:      -7.5      1.983      4.036
REMARK  Name = 
REMARK  4 active torsions:
REMARK  status: ('A' for Active; 'I' for Inactive)
REMARK    1  A    between atoms: C_2  and  O_3
REMARK    2  A    between atoms: C_2  and  C_15
REMARK    3  A    between atoms: O_3  and  C_4
REMARK    4  A    between atoms: C_4  and  C_5
REMARK                            x       y       z     vdW  Elec       q    Type
REMARK                         _______ _______ _______ _____ _____    ______ ____
ROOT
ATOM      1  O   UNL     1       5.188   6.313  18.128  0.00  0.00    +0.000 OA
ENDROOT
BRANCH   1   3
ATOM      2  O   UNL     1       6.134   4.425  19.027  0.00  0.00    +0.000 OA
ATOM      3  C   UNL     1       5.875   5.145  18.075  0.00  0.00    +0.000 C 
BRANCH   3   4
ATOM      4  C   UNL     1       6.179   4.759  16.660  0.00  0.00    +0.000 A 
ATOM      5  C   UNL     1       5.402   3.731  16.071  0.00  0.00    +0.000 A 
ATOM      6  C   UNL     1       5.541   3.398  14.718  0.00  0.00    +0.000 A 
ATOM      7  C   UNL     1       6.452   4.115  13.974  0.00  0.00    +0.000 A 
ATOM      8  C   UNL     1       7.228   5.101  14.540  0.00  0.00    +0.000 A 
ATOM      9  C   UNL     1       7.131   5.435  15.879  0.00  0.00    +0.000 A 
ATOM     10  O   UNL     1       8.046   5.693  13.628  0.00  0.00    +0.000 OA
ATOM     11  C   UNL     1       7.699   4.968  12.429  0.00  0.00    +0.000 C 
ATOM     12  O   UNL     1       6.687   3.962  12.644  0.00  0.00    +0.000 OA
ENDBRANCH   3   4
ENDBRANCH   1   3
BRANCH   1  13
ATOM     13  C   UNL     1       3.914   6.364  17.450  0.00  0.00    +0.000 C 
BRANCH  13  14
ATOM     14  C   UNL     1       2.698   6.087  18.355  0.00  0.00    +0.000 C 
ATOM     15  C   UNL     1       2.759   6.996  19.593  0.00  0.00    +0.000 C 
ATOM     16  C   UNL     1       1.579   6.739  20.519  0.00  0.00    +0.000 C 
ATOM     17  C   UNL     1       1.500   5.262  20.884  0.00  0.00    +0.000 C 
ATOM     18  N   UNL     1       1.378   4.424  19.684  0.00  0.00    +0.000 NA
ATOM     19  C   UNL     1       1.212   3.017  20.088  0.00  0.00    +0.000 C 
ATOM     20  C   UNL     1       0.983   2.108  18.886  0.00  0.00    +0.000 C 
ATOM     21  C   UNL     1       2.112   2.248  17.880  0.00  0.00    +0.000 C 
ATOM     22  C   UNL     1       2.304   3.715  17.511  0.00  0.00    +0.000 C 
ATOM     23  C   UNL     1       2.532   4.597  18.761  0.00  0.00    +0.000 C 
ENDBRANCH  13  14
ENDBRANCH   1  13
TORSDOF 4
ENDMDL
MODEL 3
REMARK VINA RESULT:      -7.3      3.903      6.521
REMARK  Name = 
REMARK  4 active torsions:
REMARK  status: ('A' for Active; 'I' for Inactive)
REMARK    1  A    between atoms: C_2  and  O_3
REMARK    2  A    between atoms: C_2  and  C_15
REMARK    3  A    between atoms: O_3  and  C_4
REMARK    4  A    between atoms: C_4  and  C_5
REMARK                            x       y       z     vdW  Elec       q    Type
REMARK                         _______ _______ _______ _____ _____    ______ ____
ROOT
ATOM      1  O   UNL     1       2.139   7.510  18.425  0.00  0.00    +0.000 OA
ENDROOT
BRANCH   1   3
ATOM      2  O   UNL     1       1.932   9.583  17.460  0.00  0.00    +0.000 OA
ATOM      3  C   UNL     1       1.807   8.825  18.411  0.00  0.00    +0.000 C 
BRANCH   3   4
ATOM      4  C   UNL     1       1.134   9.227  19.686  0.00  0.00    +0.000 A 
ATOM      5  C   UNL     1       1.456   8.506  20.863  0.00  0.00    +0.000 A 
ATOM      6  C   UNL     1       0.964   8.898  22.115  0.00  0.00    +0.000 A 
ATOM      7  C   UNL     1       0.166  10.020  22.165  0.00  0.00    +0.000 A 
ATOM      8  C   UNL     1      -0.172  10.716  21.026  0.00  0.00    +0.000 A 
ATOM      9  C   UNL     1       0.278  10.338  19.773  0.00  0.00    +0.000 A 
ATOM     10  O   UNL     1      -0.951  11.796  21.300  0.00  0.00    +0.000 OA
ATOM     11  C   UNL     1      -1.068  11.699  22.736  0.00  0.00    +0.000 C 
ATOM     12  O   UNL     1      -0.360  10.570  23.290  0.00  0.00    +0.000 OA
ENDBRANCH   3   4
ENDBRANCH   1   3
BRANCH   1  13
ATOM     13  C   UNL     1       3.521   7.174  18.173  0.00  0.00    +0.000 C 
BRANCH  13  14
ATOM     14  C   UNL     1       3.829   5.664  18.222  0.00  0.00    +0.000 C 
ATOM     15  C   UNL     1       4.362   5.202  16.857  0.00  0.00    +0.000 C 
ATOM     16  C   UNL     1       4.663   3.711  16.864  0.00  0.00    +0.000 C 
ATOM     17  C   UNL     1       3.439   2.922  17.308  0.00  0.00    +0.000 C 
ATOM     18  N   UNL     1       2.991   3.342  18.643  0.00  0.00    +0.000 NA
ATOM     19  C   UNL     1       1.866   2.492  19.069  0.00  0.00    +0.000 C 
ATOM     20  C   UNL     1       1.420   2.816  20.490  0.00  0.00    +0.000 C 
ATOM     21  C   UNL     1       1.062   4.287  20.620  0.00  0.00    +0.000 C 
ATOM     22  C   UNL     1       2.217   5.151  20.129  0.00  0.00    +0.000 C 
ATOM     23  C   UNL     1       2.635   4.786  18.685  0.00  0.00    +0.000 C 
ENDBRANCH  13  14
ENDBRANCH   1  13
TORSDOF 4
ENDMDL
MODEL 4
REMARK VINA RESULT:      -7.3      2.374      4.489
REMARK  Name = 
REMARK  4 active torsions:
REMARK  status: ('A' for Active; 'I' for Inactive)
REMARK    1  A    between atoms: C_2  and  O_3
REMARK    2  A    between atoms: C_2  and  C_15
REMARK    3  A    between atoms: O_3  and  C_4
REMARK    4  A    between atoms: C_4  and  C_5
REMARK                            x       y       z     vdW  Elec       q    Type
REMARK                         _______ _______ _______ _____ _____    ______ ____
ROOT
ATOM      1  O   UNL     1       2.347   5.085  19.334  0.00  0.00    +0.000 OA
ENDROOT
BRANCH   1   3
ATOM      2  O   UNL     1       3.327   3.160  20.113  0.00  0.00    +0.000 OA
ATOM      3  C   UNL     1       3.338   4.163  19.414  0.00  0.00    +0.000 C 
BRANCH   3   4
ATOM      4  C   UNL     1       4.427   4.452  18.427  0.00  0.00    +0.000 A 
ATOM      5  C   UNL     1       5.706   4.795  18.932  0.00  0.00    +0.000 A 
ATOM      6  C   UNL     1       6.805   4.958  18.079  0.00  0.00    +0.000 A 
ATOM      7  C   UNL     1       6.602   4.760  16.731  0.00  0.00    +0.000 A 
ATOM      8  C   UNL     1       5.360   4.448  16.227  0.00  0.00    +0.000 A 
ATOM      9  C   UNL     1       4.251   4.305  17.041  0.00  0.00    +0.000 A 
ATOM     10  O   UNL     1       5.384   4.279  14.877  0.00  0.00    +0.000 OA
ATOM     11  C   UNL     1       6.779   4.523  14.590  0.00  0.00    +0.000 C 
ATOM     12  O   UNL     1       7.557   4.831  15.766  0.00  0.00    +0.000 OA
ENDBRANCH   3   4
ENDBRANCH   1   3
BRANCH   1  13
ATOM     13  C   UNL     1       2.558   6.344  20.010  0.00  0.00    +0.000 C 
BRANCH  13  14
ATOM     14  C   UNL     1       1.785   7.531  19.402  0.00  0.00    +0.000 C 
ATOM     15  C   UNL     1       2.537   8.061  18.171  0.00  0.00    +0.000 C 
ATOM     16  C   UNL     1       1.808   9.244  17.552  0.00  0.00    +0.000 C 
ATOM     17  C   UNL     1       1.566  10.326  18.597  0.00  0.00    +0.000 C 
ATOM     18  N   UNL     1       0.790   9.806  19.730  0.00  0.00    +0.000 NA
ATOM     19  C   UNL     1       0.502  10.905  20.667  0.00  0.00    +0.000 C 
ATOM     20  C   UNL     1      -0.387  10.446  21.819  0.00  0.00    +0.000 C 
ATOM     21  C   UNL     1       0.240   9.270  22.547  0.00  0.00    +0.000 C 
ATOM     22  C   UNL     1       0.579   8.162  21.557  0.00  0.00    +0.000 C 
ATOM     23  C   UNL     1       1.479   8.674  20.408  0.00  0.00    +0.000 C 
ENDBRANCH  13  14
ENDBRANCH   1  13
TORSDOF 4
ENDMDL
MODEL 5
REMARK VINA RESULT:      -7.2      4.340      7.147
REMARK  Name = 
REMARK  4 active torsions:
REMARK  status: ('A' for Active; 'I' for Inactive)
REMARK    1  A    between atoms: C_2  and  O_3
REMARK    2  A    between atoms: C_2  and  C_15
REMARK    3  A    between atoms: O_3  and  C_4
REMARK    4  A    between atoms: C_4  and  C_5
REMARK                            x       y       z     vdW  Elec       q    Type
REMARK                         _______ _______ _______ _____ _____    ______ ____
ROOT
ATOM      1  O   UNL     1       2.033   8.183  19.136  0.00  0.00    +0.000 OA
ENDROOT
BRANCH   1   3
ATOM      2  O   UNL     1       1.861   9.667  17.394  0.00  0.00    +0.000 OA
ATOM      3  C   UNL     1       1.634   9.338  18.548  0.00  0.00    +0.000 C 
BRANCH   3   4
ATOM      4  C   UNL     1       0.749  10.132  19.459  0.00  0.00    +0.000 A 
ATOM      5  C   UNL     1      -0.277  10.913  18.871  0.00  0.00    +0.000 A 
ATOM      6  C   UNL     1      -1.221  11.585  19.658  0.00  0.00    +0.000 A 
ATOM      7  C   UNL     1      -1.126  11.449  21.026  0.00  0.00    +0.000 A 
ATOM      8  C   UNL     1      -0.121  10.711  21.609  0.00  0.00    +0.000 A 
ATOM      9  C   UNL     1       0.840  10.057  20.858  0.00  0.00    +0.000 A 
ATOM     10  O   UNL     1      -0.221  10.693  22.965  0.00  0.00    +0.000 OA
ATOM     11  C   UNL     1      -1.398  11.504  23.169  0.00  0.00    +0.000 C 
ATOM     12  O   UNL     1      -1.976  11.988  21.938  0.00  0.00    +0.000 OA
ENDBRANCH   3   4
ENDBRANCH   1   3
BRANCH   1  13
ATOM     13  C   UNL     1       2.484   7.119  18.269  0.00  0.00    +0.000 C 
BRANCH  13  14
ATOM     14  C   UNL     1       3.468   6.134  18.927  0.00  0.00    +0.000 C 
ATOM     15  C   UNL     1       4.681   5.922  18.007  0.00  0.00    +0.000 C 
ATOM     16  C   UNL     1       5.668   4.941  18.620  0.00  0.00    +0.000 C 
ATOM     17  C   UNL     1       4.971   3.634  18.974  0.00  0.00    +0.000 C 
ATOM     18  N   UNL     1       3.858   3.861  19.905  0.00  0.00    +0.000 NA
ATOM     19  C   UNL     1       3.274   2.565  20.291  0.00  0.00    +0.000 C 
ATOM     20  C   UNL     1       2.174   2.729  21.334  0.00  0.00    +0.000 C 
ATOM     21  C   UNL     1       1.097   3.676  20.836  0.00  0.00    +0.000 C 
ATOM     22  C   UNL     1       1.723   4.994  20.394  0.00  0.00    +0.000 C 
ATOM     23  C   UNL     1       2.832   4.778  19.338  0.00  0.00    +0.000 C 
ENDBRANCH  13  14
ENDBRANCH   1  13
TORSDOF 4
ENDMDL
MODEL 6
REMARK VINA RESULT:      -7.2      4.353      7.089
REMARK  Name = 
REMARK  4 active torsions:
REMARK  status: ('A' for Active; 'I' for Inactive)
REMARK    1  A    between atoms: C_2  and  O_3
REMARK    2  A    between atoms: C_2  and  C_15
REMARK    3  A    between atoms: O_3  and  C_4
REMARK    4  A    between atoms: C_4  and  C_5
REMARK                            x       y       z     vdW  Elec       q    Type
REMARK                         _______ _______ _______ _____ _____    ______ ____
ROOT
ATOM      1  O   UNL     1       2.230   8.225  19.202  0.00  0.00    +0.000 OA
ENDROOT
BRANCH   1   3
ATOM      2  O   UNL     1       1.061   9.549  17.736  0.00  0.00    +0.000 OA
ATOM      3  C   UNL     1       1.322   9.176  18.870  0.00  0.00    +0.000 C 
BRANCH   3   4
ATOM      4  C   UNL     1       0.561   9.643  20.072  0.00  0.00    +0.000 A 
ATOM      5  C   UNL     1       0.648   8.866  21.255  0.00  0.00    +0.000 A 
ATOM      6  C   UNL     1       0.068   9.299  22.454  0.00  0.00    +0.000 A 
ATOM      7  C   UNL     1      -0.581  10.514  22.448  0.00  0.00    +0.000 A 
ATOM      8  C   UNL     1      -0.691  11.267  21.300  0.00  0.00    +0.000 A 
ATOM      9  C   UNL     1      -0.149  10.854  20.096  0.00  0.00    +0.000 A 
ATOM     10  O   UNL     1      -1.352  12.436  21.518  0.00  0.00    +0.000 OA
ATOM     11  C   UNL     1      -1.647  12.332  22.928  0.00  0.00    +0.000 C 
ATOM     12  O   UNL     1      -1.160  11.111  23.523  0.00  0.00    +0.000 OA
ENDBRANCH   3   4
ENDBRANCH   1   3
BRANCH   1  13
ATOM     13  C   UNL     1       2.506   7.202  18.221  0.00  0.00    +0.000 C 
BRANCH  13  14
ATOM     14  C   UNL     1       3.489   6.114  18.694  0.00  0.00    +0.000 C 
ATOM     15  C   UNL     1       4.532   5.847  17.596  0.00  0.00    +0.000 C 
ATOM     16  C   UNL     1       5.513   4.767  18.024  0.00  0.00    +0.000 C 
ATOM     17  C   UNL     1       4.768   3.504  18.438  0.00  0.00    +0.000 C 
ATOM     18  N   UNL     1       3.826   3.778  19.532  0.00  0.00    +0.000 NA
ATOM     19  C   UNL     1       3.198   2.516  19.960  0.00  0.00    +0.000 C 
ATOM     20  C   UNL     1       2.281   2.721  21.161  0.00  0.00    +0.000 C 
ATOM     21  C   UNL     1       1.226   3.771  20.860  0.00  0.00    +0.000 C 
ATOM     22  C   UNL     1       1.889   5.053  20.370  0.00  0.00    +0.000 C 
ATOM     23  C   UNL     1       2.809   4.796  19.154  0.00  0.00    +0.000 C 
ENDBRANCH  13  14
ENDBRANCH   1  13
TORSDOF 4
ENDMDL
MODEL 7
REMARK VINA RESULT:      -7.1      5.014      8.006
REMARK  Name = 
REMARK  4 active torsions:
REMARK  status: ('A' for Active; 'I' for Inactive)
REMARK    1  A    between atoms: C_2  and  O_3
REMARK    2  A    between atoms: C_2  and  C_15
REMARK    3  A    between atoms: O_3  and  C_4
REMARK    4  A    between atoms: C_4  and  C_5
REMARK                            x       y       z     vdW  Elec       q    Type
REMARK                         _______ _______ _______ _____ _____    ______ ____
ROOT
ATOM      1  O   UNL     1       1.216   8.961  19.161  0.00  0.00    +0.000 OA
ENDROOT
BRANCH   1   3
ATOM      2  O   UNL     1       1.097  10.796  20.534  0.00  0.00    +0.000 OA
ATOM      3  C   UNL     1       0.626  10.070  19.671  0.00  0.00    +0.000 C 
BRANCH   3   4
ATOM      4  C   UNL     1      -0.647  10.387  18.950  0.00  0.00    +0.000 A 
ATOM      5  C   UNL     1      -1.509  11.356  19.521  0.00  0.00    +0.000 A 
ATOM      6  C   UNL     1      -2.655  11.797  18.848  0.00  0.00    +0.000 A 
ATOM      7  C   UNL     1      -2.909  11.266  17.603  0.00  0.00    +0.000 A 
ATOM      8  C   UNL     1      -2.091  10.308  17.047  0.00  0.00    +0.000 A 
ATOM      9  C   UNL     1      -0.966   9.835  17.698  0.00  0.00    +0.000 A 
ATOM     10  O   UNL     1      -2.512   9.933  15.809  0.00  0.00    +0.000 OA
ATOM     11  C   UNL     1      -3.686  10.759  15.651  0.00  0.00    +0.000 C 
ATOM     12  O   UNL     1      -3.943  11.607  16.790  0.00  0.00    +0.000 OA
ENDBRANCH   3   4
ENDBRANCH   1   3
BRANCH   1  13
ATOM     13  C   UNL     1       1.676   7.964  20.099  0.00  0.00    +0.000 C 
BRANCH  13  14
ATOM     14  C   UNL     1       2.658   6.935  19.506  0.00  0.00    +0.000 C 
ATOM     15  C   UNL     1       3.131   7.410  18.122  0.00  0.00    +0.000 C 
ATOM     16  C   UNL     1       4.092   6.410  17.499  0.00  0.00    +0.000 C 
ATOM     17  C   UNL     1       3.463   5.023  17.455  0.00  0.00    +0.000 C 
ATOM     18  N   UNL     1       3.081   4.570  18.799  0.00  0.00    +0.000 NA
ATOM     19  C   UNL     1       2.565   3.193  18.720  0.00  0.00    +0.000 C 
ATOM     20  C   UNL     1       2.242   2.630  20.100  0.00  0.00    +0.000 C 
ATOM     21  C   UNL     1       1.262   3.530  20.832  0.00  0.00    +0.000 C 
ATOM     22  C   UNL     1       1.787   4.961  20.862  0.00  0.00    +0.000 C 
ATOM     23  C   UNL     1       2.101   5.487  19.442  0.00  0.00    +0.000 C 
ENDBRANCH  13  14
ENDBRANCH   1  13
TORSDOF 4
ENDMDL
MODEL 8
REMARK VINA RESULT:      -7.1      2.720      5.051
REMARK  Name = 
REMARK  4 active torsions:
REMARK  status: ('A' for Active; 'I' for Inactive)
REMARK    1  A    between atoms: C_2  and  O_3
REMARK    2  A    between atoms: C_2  and  C_15
REMARK    3  A    between atoms: O_3  and  C_4
REMARK    4  A    between atoms: C_4  and  C_5
REMARK                            x       y       z     vdW  Elec       q    Type
REMARK                         _______ _______ _______ _____ _____    ______ ____
ROOT
ATOM      1  O   UNL     1       1.463   5.064  20.637  0.00  0.00    +0.000 OA
ENDROOT
BRANCH   1   3
ATOM      2  O   UNL     1       2.328   3.164  21.592  0.00  0.00    +0.000 OA
ATOM      3  C   UNL     1       2.329   4.025  20.724  0.00  0.00    +0.000 C 
BRANCH   3   4
ATOM      4  C   UNL     1       3.236   3.974  19.533  0.00  0.00    +0.000 A 
ATOM      5  C   UNL     1       2.642   3.849  18.253  0.00  0.00    +0.000 A 
ATOM      6  C   UNL     1       3.411   3.919  17.084  0.00  0.00    +0.000 A 
ATOM      7  C   UNL     1       4.766   4.126  17.222  0.00  0.00    +0.000 A 
ATOM      8  C   UNL     1       5.357   4.227  18.461  0.00  0.00    +0.000 A 
ATOM      9  C   UNL     1       4.627   4.138  19.633  0.00  0.00    +0.000 A 
ATOM     10  O   UNL     1       6.697   4.447  18.372  0.00  0.00    +0.000 OA
ATOM     11  C   UNL     1       6.881   4.470  16.939  0.00  0.00    +0.000 C 
ATOM     12  O   UNL     1       5.656   4.265  16.204  0.00  0.00    +0.000 OA
ENDBRANCH   3   4
ENDBRANCH   1   3
BRANCH   1  13
ATOM     13  C   UNL     1       1.993   6.389  20.862  0.00  0.00    +0.000 C 
BRANCH  13  14
ATOM     14  C   UNL     1       1.460   7.461  19.892  0.00  0.00    +0.000 C 
ATOM     15  C   UNL     1       2.438   7.628  18.718  0.00  0.00    +0.000 C 
ATOM     16  C   UNL     1       1.949   8.691  17.746  0.00  0.00    +0.000 C 
ATOM     17  C   UNL     1       1.688  10.002  18.477  0.00  0.00    +0.000 C 
ATOM     18  N   UNL     1       0.702   9.824  19.551  0.00  0.00    +0.000 NA
ATOM     19  C   UNL     1       0.413  11.130  20.168  0.00  0.00    +0.000 C 
ATOM     20  C   UNL     1      -0.679  11.025  21.227  0.00  0.00    +0.000 C 
ATOM     21  C   UNL     1      -0.305  10.003  22.286  0.00  0.00    +0.000 C 
ATOM     22  C   UNL     1       0.040   8.671  21.628  0.00  0.00    +0.000 C 
ATOM     23  C   UNL     1       1.149   8.827  20.562  0.00  0.00    +0.000 C 
ENDBRANCH  13  14
ENDBRANCH   1  13
TORSDOF 4
ENDMDL
MODEL 9
REMARK VINA RESULT:      -7.0      2.815      4.636
REMARK  Name = 
REMARK  4 active torsions:
REMARK  status: ('A' for Active; 'I' for Inactive)
REMARK    1  A    between atoms: C_2  and  O_3
REMARK    2  A    between atoms: C_2  and  C_15
REMARK    3  A    between atoms: O_3  and  C_4
REMARK    4  A    between atoms: C_4  and  C_5
REMARK                            x       y       z     vdW  Elec       q    Type
REMARK                         _______ _______ _______ _____ _____    ______ ____
ROOT
ATOM      1  O   UNL     1       1.866   5.618  19.833  0.00  0.00    +0.000 OA
ENDROOT
BRANCH   1   3
ATOM      2  O   UNL     1       1.515   4.672  17.772  0.00  0.00    +0.000 OA
ATOM      3  C   UNL     1       2.254   5.138  18.626  0.00  0.00    +0.000 C 
BRANCH   3   4
ATOM      4  C   UNL     1       3.716   5.365  18.397  0.00  0.00    +0.000 A 
ATOM      5  C   UNL     1       4.105   6.043  17.214  0.00  0.00    +0.000 A 
ATOM      6  C   UNL     1       5.440   6.403  16.987  0.00  0.00    +0.000 A 
ATOM      7  C   UNL     1       6.362   6.085  17.960  0.00  0.00    +0.000 A 
ATOM      8  C   UNL     1       6.000   5.407  19.102  0.00  0.00    +0.000 A 
ATOM      9  C   UNL     1       4.694   5.018  19.343  0.00  0.00    +0.000 A 
ATOM     10  O   UNL     1       7.057   5.211  19.936  0.00  0.00    +0.000 OA
ATOM     11  C   UNL     1       8.122   5.838  19.188  0.00  0.00    +0.000 C 
ATOM     12  O   UNL     1       7.685   6.394  17.931  0.00  0.00    +0.000 OA
ENDBRANCH   3   4
ENDBRANCH   1   3
BRANCH   1  13
ATOM     13  C   UNL     1       2.310   6.946  20.192  0.00  0.00    +0.000 C 
BRANCH  13  14
ATOM     14  C   UNL     1       1.370   8.077  19.734  0.00  0.00    +0.000 C 
ATOM     15  C   UNL     1       1.929   8.729  18.458  0.00  0.00    +0.000 C 
ATOM     16  C   UNL     1       1.032   9.862  17.985  0.00  0.00    +0.000 C 
ATOM     17  C   UNL     1       0.811  10.870  19.105  0.00  0.00    +0.000 C 
ATOM     18  N   UNL     1       0.217  10.231  20.286  0.00  0.00    +0.000 NA
ATOM     19  C   UNL     1      -0.064  11.256  21.305  0.00  0.00    +0.000 C 
ATOM     20  C   UNL     1      -0.773  10.666  22.520  0.00  0.00    +0.000 C 
ATOM     21  C   UNL     1       0.035   9.526  23.113  0.00  0.00    +0.000 C 
ATOM     22  C   UNL     1       0.360   8.498  22.035  0.00  0.00    +0.000 C 
ATOM     23  C   UNL     1       1.076   9.142  20.825  0.00  0.00    +0.000 C 
ENDBRANCH  13  14
ENDBRANCH   1  13
TORSDOF 4
ENDMDL
