MODEL 1
REMARK VINA RESULT:      -8.9      0.000      0.000
REMARK  Name = 
REMARK  10 active torsions:
REMARK  status: ('A' for Active; 'I' for Inactive)
REMARK    1  A    between atoms: C_1  and  C_2
REMARK    2  A    between atoms: C_2  and  C_3
REMARK    3  A    between atoms: C_3  and  C_5
REMARK    4  A    between atoms: C_8  and  O_9
REMARK    5  A    between atoms: O_9  and  C_10
REMARK    6  A    between atoms: C_10  and  C_11
REMARK    7  A    between atoms: C_11  and  O_13
REMARK    8  A    between atoms: O_13  and  C_14
REMARK    9  A    between atoms: C_14  and  C_15
REMARK   10  A    between atoms: C_25  and  C_26
REMARK                            x       y       z     vdW  Elec       q    Type
REMARK                         _______ _______ _______ _____ _____    ______ ____
ROOT
ATOM      1  C   UNL     1       7.272   6.180  18.304  0.00  0.00    +0.000 C 
ATOM      2  O   UNL     1       8.010   7.142  18.496  0.00  0.00    +0.000 OA
ENDROOT
BRANCH   1   3
ATOM      3  C   UNL     1       7.441   5.184  17.178  0.00  0.00    +0.000 C 
BRANCH   3   4
ATOM      4  O   UNL     1       7.355   5.814  15.909  0.00  0.00    +0.000 OA
BRANCH   4   8
ATOM      5  C   UNL     1       6.035   3.454  12.727  0.00  0.00    +0.000 A 
ATOM      6  C   UNL     1       7.197   4.226  12.641  0.00  0.00    +0.000 A 
ATOM      7  C   UNL     1       7.601   4.995  13.733  0.00  0.00    +0.000 A 
ATOM      8  C   UNL     1       6.851   5.021  14.908  0.00  0.00    +0.000 A 
ATOM      9  C   UNL     1       5.701   4.243  14.997  0.00  0.00    +0.000 A 
ATOM     10  C   UNL     1       5.295   3.463  13.907  0.00  0.00    +0.000 A 
BRANCH   5  11
ATOM     11  C   UNL     1       5.558   2.600  11.588  0.00  0.00    +0.000 C 
ATOM     12  O   UNL     1       4.414   2.752  11.162  0.00  0.00    +0.000 OA
BRANCH  11  14
ATOM     13  C   UNL     1       6.102   0.152  11.268  0.00  0.00    +0.000 C 
ATOM     14  C   UNL     1       6.520   1.587  11.003  0.00  0.00    +0.000 C 
ENDBRANCH  11  14
ENDBRANCH   5  11
ENDBRANCH   4   8
ENDBRANCH   3   4
ENDBRANCH   1   3
BRANCH   1  15
ATOM     15  O   UNL     1       6.221   5.836  19.091  0.00  0.00    +0.000 OA
BRANCH  15  16
ATOM     16  C   UNL     1       5.126   5.238  18.389  0.00  0.00    +0.000 C 
BRANCH  16  17
ATOM     17  C   UNL     1       4.237   6.306  17.702  0.00  0.00    +0.000 C 
ATOM     18  O   UNL     1       4.741   7.333  17.235  0.00  0.00    +0.000 OA
ATOM     19  N   UNL     1       2.830   6.118  17.763  0.00  0.00    +0.000 N 
ATOM     20  C   UNL     1       2.351   5.041  18.540  0.00  0.00    +0.000 A 
ATOM     21  C   UNL     1       1.842   3.856  18.058  0.00  0.00    +0.000 A 
ATOM     22  C   UNL     1       1.209   3.026  18.981  0.00  0.00    +0.000 A 
ATOM     23  C   UNL     1       1.167   3.370  20.347  0.00  0.00    +0.000 A 
ATOM     24  C   UNL     1       1.638   4.610  20.803  0.00  0.00    +0.000 A 
ATOM     25  C   UNL     1       2.132   5.478  19.857  0.00  0.00    +0.000 A 
ATOM     26  C   UNL     1       2.322   6.983  19.910  0.00  0.00    +0.000 C 
ATOM     27  C   UNL     1       2.076   7.235  18.395  0.00  0.00    +0.000 C 
ATOM     28  C   UNL     1       2.225   8.628  17.815  0.00  0.00    +0.000 C 
ENDBRANCH  16  17
ENDBRANCH  15  16
ENDBRANCH   1  15
TORSDOF 8
ENDMDL
MODEL 2
REMARK VINA RESULT:      -8.6      1.078      1.448
REMARK  Name = 
REMARK  10 active torsions:
REMARK  status: ('A' for Active; 'I' for Inactive)
REMARK    1  A    between atoms: C_1  and  C_2
REMARK    2  A    between atoms: C_2  and  C_3
REMARK    3  A    between atoms: C_3  and  C_5
REMARK    4  A    between atoms: C_8  and  O_9
REMARK    5  A    between atoms: O_9  and  C_10
REMARK    6  A    between atoms: C_10  and  C_11
REMARK    7  A    between atoms: C_11  and  O_13
REMARK    8  A    between atoms: O_13  and  C_14
REMARK    9  A    between atoms: C_14  and  C_15
REMARK   10  A    between atoms: C_25  and  C_26
REMARK                            x       y       z     vdW  Elec       q    Type
REMARK                         _______ _______ _______ _____ _____    ______ ____
ROOT
ATOM      1  C   UNL     1       7.421   5.099  17.648  0.00  0.00    +0.000 C 
ATOM      2  O   UNL     1       8.218   4.166  17.618  0.00  0.00    +0.000 OA
ENDROOT
BRANCH   1   3
ATOM      3  C   UNL     1       7.111   5.995  16.469  0.00  0.00    +0.000 C 
BRANCH   3   4
ATOM      4  O   UNL     1       7.785   5.564  15.297  0.00  0.00    +0.000 OA
BRANCH   4   8
ATOM      5  C   UNL     1       5.605   3.455  12.426  0.00  0.00    +0.000 A 
ATOM      6  C   UNL     1       6.903   3.914  12.179  0.00  0.00    +0.000 A 
ATOM      7  C   UNL     1       7.593   4.610  13.171  0.00  0.00    +0.000 A 
ATOM      8  C   UNL     1       7.002   4.873  14.405  0.00  0.00    +0.000 A 
ATOM      9  C   UNL     1       5.715   4.406  14.655  0.00  0.00    +0.000 A 
ATOM     10  C   UNL     1       5.020   3.700  13.666  0.00  0.00    +0.000 A 
BRANCH   5  11
ATOM     11  C   UNL     1       4.819   2.694  11.399  0.00  0.00    +0.000 C 
ATOM     12  O   UNL     1       5.326   1.707  10.866  0.00  0.00    +0.000 OA
BRANCH  11  14
ATOM     13  C   UNL     1       3.365   4.011   9.805  0.00  0.00    +0.000 C 
ATOM     14  C   UNL     1       3.421   3.172  11.069  0.00  0.00    +0.000 C 
ENDBRANCH  11  14
ENDBRANCH   5  11
ENDBRANCH   4   8
ENDBRANCH   3   4
ENDBRANCH   1   3
BRANCH   1  15
ATOM     15  O   UNL     1       6.666   5.444  18.721  0.00  0.00    +0.000 OA
BRANCH  15  16
ATOM     16  C   UNL     1       5.298   5.030  18.640  0.00  0.00    +0.000 C 
BRANCH  16  17
ATOM     17  C   UNL     1       4.405   6.132  18.013  0.00  0.00    +0.000 C 
ATOM     18  O   UNL     1       4.879   7.238  17.736  0.00  0.00    +0.000 OA
ATOM     19  N   UNL     1       3.014   5.859  17.906  0.00  0.00    +0.000 N 
ATOM     20  C   UNL     1       2.541   4.662  18.484  0.00  0.00    +0.000 A 
ATOM     21  C   UNL     1       2.159   3.528  17.804  0.00  0.00    +0.000 A 
ATOM     22  C   UNL     1       1.503   2.546  18.543  0.00  0.00    +0.000 A 
ATOM     23  C   UNL     1       1.310   2.699  19.931  0.00  0.00    +0.000 A 
ATOM     24  C   UNL     1       1.652   3.889  20.589  0.00  0.00    +0.000 A 
ATOM     25  C   UNL     1       2.171   4.904  19.818  0.00  0.00    +0.000 A 
ATOM     26  C   UNL     1       2.253   6.395  20.085  0.00  0.00    +0.000 C 
ATOM     27  C   UNL     1       2.131   6.837  18.599  0.00  0.00    +0.000 C 
ATOM     28  C   UNL     1       2.239   8.302  18.222  0.00  0.00    +0.000 C 
ENDBRANCH  16  17
ENDBRANCH  15  16
ENDBRANCH   1  15
TORSDOF 8
ENDMDL
MODEL 3
REMARK VINA RESULT:      -8.5      1.342      2.797
REMARK  Name = 
REMARK  10 active torsions:
REMARK  status: ('A' for Active; 'I' for Inactive)
REMARK    1  A    between atoms: C_1  and  C_2
REMARK    2  A    between atoms: C_2  and  C_3
REMARK    3  A    between atoms: C_3  and  C_5
REMARK    4  A    between atoms: C_8  and  O_9
REMARK    5  A    between atoms: O_9  and  C_10
REMARK    6  A    between atoms: C_10  and  C_11
REMARK    7  A    between atoms: C_11  and  O_13
REMARK    8  A    between atoms: O_13  and  C_14
REMARK    9  A    between atoms: C_14  and  C_15
REMARK   10  A    between atoms: C_25  and  C_26
REMARK                            x       y       z     vdW  Elec       q    Type
REMARK                         _______ _______ _______ _____ _____    ______ ____
ROOT
ATOM      1  C   UNL     1       7.389   4.739  18.001  0.00  0.00    +0.000 C 
ATOM      2  O   UNL     1       8.322   4.053  17.596  0.00  0.00    +0.000 OA
ENDROOT
BRANCH   1   3
ATOM      3  C   UNL     1       6.814   5.925  17.258  0.00  0.00    +0.000 C 
BRANCH   3   4
ATOM      4  O   UNL     1       7.386   6.056  15.966  0.00  0.00    +0.000 OA
BRANCH   4   8
ATOM      5  C   UNL     1       5.782   3.753  12.874  0.00  0.00    +0.000 A 
ATOM      6  C   UNL     1       7.047   4.340  12.778  0.00  0.00    +0.000 A 
ATOM      7  C   UNL     1       7.543   5.097  13.840  0.00  0.00    +0.000 A 
ATOM      8  C   UNL     1       6.787   5.295  14.994  0.00  0.00    +0.000 A 
ATOM      9  C   UNL     1       5.533   4.701  15.094  0.00  0.00    +0.000 A 
ATOM     10  C   UNL     1       5.033   3.933  14.035  0.00  0.00    +0.000 A 
BRANCH   5  11
ATOM     11  C   UNL     1       5.203   2.921  11.768  0.00  0.00    +0.000 C 
ATOM     12  O   UNL     1       4.260   3.365  11.113  0.00  0.00    +0.000 OA
BRANCH  11  14
ATOM     13  C   UNL     1       7.129   1.645  10.742  0.00  0.00    +0.000 C 
ATOM     14  C   UNL     1       5.816   1.563  11.498  0.00  0.00    +0.000 C 
ENDBRANCH  11  14
ENDBRANCH   5  11
ENDBRANCH   4   8
ENDBRANCH   3   4
ENDBRANCH   1   3
BRANCH   1  15
ATOM     15  O   UNL     1       6.701   4.518  19.150  0.00  0.00    +0.000 OA
BRANCH  15  16
ATOM     16  C   UNL     1       5.383   5.076  19.168  0.00  0.00    +0.000 C 
BRANCH  16  17
ATOM     17  C   UNL     1       4.316   4.011  19.530  0.00  0.00    +0.000 C 
ATOM     18  O   UNL     1       4.616   2.813  19.562  0.00  0.00    +0.000 OA
ATOM     19  N   UNL     1       2.976   4.458  19.681  0.00  0.00    +0.000 N 
ATOM     20  C   UNL     1       2.703   5.808  19.375  0.00  0.00    +0.000 A 
ATOM     21  C   UNL     1       2.460   6.813  20.284  0.00  0.00    +0.000 A 
ATOM     22  C   UNL     1       1.981   8.017  19.773  0.00  0.00    +0.000 A 
ATOM     23  C   UNL     1       1.827   8.198  18.384  0.00  0.00    +0.000 A 
ATOM     24  C   UNL     1       2.022   7.140  17.484  0.00  0.00    +0.000 A 
ATOM     25  C   UNL     1       2.358   5.918  18.017  0.00  0.00    +0.000 A 
ATOM     26  C   UNL     1       2.237   4.524  17.431  0.00  0.00    +0.000 C 
ATOM     27  C   UNL     1       1.991   3.795  18.782  0.00  0.00    +0.000 C 
ATOM     28  C   UNL     1       1.873   2.284  18.829  0.00  0.00    +0.000 C 
ENDBRANCH  16  17
ENDBRANCH  15  16
ENDBRANCH   1  15
TORSDOF 8
ENDMDL
MODEL 4
REMARK VINA RESULT:      -8.2      1.304      2.964
REMARK  Name = 
REMARK  10 active torsions:
REMARK  status: ('A' for Active; 'I' for Inactive)
REMARK    1  A    between atoms: C_1  and  C_2
REMARK    2  A    between atoms: C_2  and  C_3
REMARK    3  A    between atoms: C_3  and  C_5
REMARK    4  A    between atoms: C_8  and  O_9
REMARK    5  A    between atoms: O_9  and  C_10
REMARK    6  A    between atoms: C_10  and  C_11
REMARK    7  A    between atoms: C_11  and  O_13
REMARK    8  A    between atoms: O_13  and  C_14
REMARK    9  A    between atoms: C_14  and  C_15
REMARK   10  A    between atoms: C_25  and  C_26
REMARK                            x       y       z     vdW  Elec       q    Type
REMARK                         _______ _______ _______ _____ _____    ______ ____
ROOT
ATOM      1  C   UNL     1       7.089   6.071  17.904  0.00  0.00    +0.000 C 
ATOM      2  O   UNL     1       7.851   6.843  18.477  0.00  0.00    +0.000 OA
ENDROOT
BRANCH   1   3
ATOM      3  C   UNL     1       7.510   5.103  16.820  0.00  0.00    +0.000 C 
BRANCH   3   4
ATOM      4  O   UNL     1       7.563   5.735  15.551  0.00  0.00    +0.000 OA
BRANCH   4   8
ATOM      5  C   UNL     1       5.682   3.493  12.572  0.00  0.00    +0.000 A 
ATOM      6  C   UNL     1       5.100   3.688  13.827  0.00  0.00    +0.000 A 
ATOM      7  C   UNL     1       5.765   4.449  14.789  0.00  0.00    +0.000 A 
ATOM      8  C   UNL     1       7.015   5.006  14.524  0.00  0.00    +0.000 A 
ATOM      9  C   UNL     1       7.588   4.822  13.270  0.00  0.00    +0.000 A 
ATOM     10  C   UNL     1       6.922   4.066  12.298  0.00  0.00    +0.000 A 
BRANCH   5  11
ATOM     11  C   UNL     1       5.009   2.692  11.496  0.00  0.00    +0.000 C 
ATOM     12  O   UNL     1       5.636   1.798  10.931  0.00  0.00    +0.000 OA
BRANCH  11  14
ATOM     13  C   UNL     1       3.437   3.960   9.975  0.00  0.00    +0.000 C 
ATOM     14  C   UNL     1       3.569   3.017  11.158  0.00  0.00    +0.000 C 
ENDBRANCH  11  14
ENDBRANCH   5  11
ENDBRANCH   4   8
ENDBRANCH   3   4
ENDBRANCH   1   3
BRANCH   1  15
ATOM     15  O   UNL     1       5.767   5.932  18.180  0.00  0.00    +0.000 OA
BRANCH  15  16
ATOM     16  C   UNL     1       5.484   5.471  19.506  0.00  0.00    +0.000 C 
BRANCH  16  17
ATOM     17  C   UNL     1       4.523   4.255  19.494  0.00  0.00    +0.000 C 
ATOM     18  O   UNL     1       4.956   3.117  19.284  0.00  0.00    +0.000 OA
ATOM     19  N   UNL     1       3.131   4.526  19.593  0.00  0.00    +0.000 N 
ATOM     20  C   UNL     1       2.729   5.878  19.576  0.00  0.00    +0.000 A 
ATOM     21  C   UNL     1       2.293   6.609  20.658  0.00  0.00    +0.000 A 
ATOM     22  C   UNL     1       1.723   7.850  20.385  0.00  0.00    +0.000 A 
ATOM     23  C   UNL     1       1.669   8.343  19.066  0.00  0.00    +0.000 A 
ATOM     24  C   UNL     1       2.062   7.554  17.975  0.00  0.00    +0.000 A 
ATOM     25  C   UNL     1       2.492   6.276  18.249  0.00  0.00    +0.000 A 
ATOM     26  C   UNL     1       2.586   5.058  17.350  0.00  0.00    +0.000 C 
ATOM     27  C   UNL     1       2.312   4.007  18.463  0.00  0.00    +0.000 C 
ATOM     28  C   UNL     1       2.367   2.525  18.150  0.00  0.00    +0.000 C 
ENDBRANCH  16  17
ENDBRANCH  15  16
ENDBRANCH   1  15
TORSDOF 8
ENDMDL
MODEL 5
REMARK VINA RESULT:      -8.0      2.788      7.019
REMARK  Name = 
REMARK  10 active torsions:
REMARK  status: ('A' for Active; 'I' for Inactive)
REMARK    1  A    between atoms: C_1  and  C_2
REMARK    2  A    between atoms: C_2  and  C_3
REMARK    3  A    between atoms: C_3  and  C_5
REMARK    4  A    between atoms: C_8  and  O_9
REMARK    5  A    between atoms: O_9  and  C_10
REMARK    6  A    between atoms: C_10  and  C_11
REMARK    7  A    between atoms: C_11  and  O_13
REMARK    8  A    between atoms: O_13  and  C_14
REMARK    9  A    between atoms: C_14  and  C_15
REMARK   10  A    between atoms: C_25  and  C_26
REMARK                            x       y       z     vdW  Elec       q    Type
REMARK                         _______ _______ _______ _____ _____    ______ ____
ROOT
ATOM      1  C   UNL     1       4.684   2.297  20.072  0.00  0.00    +0.000 C 
ATOM      2  O   UNL     1       5.100   1.268  20.595  0.00  0.00    +0.000 OA
ENDROOT
BRANCH   1   3
ATOM      3  C   UNL     1       3.393   2.395  19.287  0.00  0.00    +0.000 C 
BRANCH   3   4
ATOM      4  O   UNL     1       2.401   3.110  20.007  0.00  0.00    +0.000 OA
BRANCH   4   8
ATOM      5  C   UNL     1       2.092   7.088  18.774  0.00  0.00    +0.000 A 
ATOM      6  C   UNL     1       2.209   6.038  17.859  0.00  0.00    +0.000 A 
ATOM      7  C   UNL     1       2.304   4.724  18.319  0.00  0.00    +0.000 A 
ATOM      8  C   UNL     1       2.304   4.441  19.683  0.00  0.00    +0.000 A 
ATOM      9  C   UNL     1       2.175   5.485  20.594  0.00  0.00    +0.000 A 
ATOM     10  C   UNL     1       2.071   6.805  20.138  0.00  0.00    +0.000 A 
BRANCH   5  11
ATOM     11  C   UNL     1       1.977   8.518  18.336  0.00  0.00    +0.000 C 
ATOM     12  O   UNL     1       2.548   8.880  17.309  0.00  0.00    +0.000 OA
BRANCH  11  14
ATOM     13  C   UNL     1       1.206  10.898  18.701  0.00  0.00    +0.000 C 
ATOM     14  C   UNL     1       1.147   9.460  19.183  0.00  0.00    +0.000 C 
ENDBRANCH  11  14
ENDBRANCH   5  11
ENDBRANCH   4   8
ENDBRANCH   3   4
ENDBRANCH   1   3
BRANCH   1  15
ATOM     15  O   UNL     1       5.287   3.510  20.151  0.00  0.00    +0.000 OA
BRANCH  15  16
ATOM     16  C   UNL     1       5.558   4.120  18.884  0.00  0.00    +0.000 C 
BRANCH  16  17
ATOM     17  C   UNL     1       6.811   5.031  18.946  0.00  0.00    +0.000 C 
ATOM     18  O   UNL     1       7.194   5.495  20.025  0.00  0.00    +0.000 OA
ATOM     19  N   UNL     1       7.399   5.413  17.710  0.00  0.00    +0.000 N 
ATOM     20  C   UNL     1       6.731   5.030  16.527  0.00  0.00    +0.000 A 
ATOM     21  C   UNL     1       7.116   4.029  15.664  0.00  0.00    +0.000 A 
ATOM     22  C   UNL     1       6.455   3.970  14.440  0.00  0.00    +0.000 A 
ATOM     23  C   UNL     1       5.400   4.858  14.148  0.00  0.00    +0.000 A 
ATOM     24  C   UNL     1       5.068   5.907  15.016  0.00  0.00    +0.000 A 
ATOM     25  C   UNL     1       5.824   6.039  16.158  0.00  0.00    +0.000 A 
ATOM     26  C   UNL     1       6.028   7.235  17.069  0.00  0.00    +0.000 C 
ATOM     27  C   UNL     1       7.484   6.882  17.485  0.00  0.00    +0.000 C 
ATOM     28  C   UNL     1       8.217   7.728  18.506  0.00  0.00    +0.000 C 
ENDBRANCH  16  17
ENDBRANCH  15  16
ENDBRANCH   1  15
TORSDOF 8
ENDMDL
MODEL 6
REMARK VINA RESULT:      -8.0      1.139      2.772
REMARK  Name = 
REMARK  10 active torsions:
REMARK  status: ('A' for Active; 'I' for Inactive)
REMARK    1  A    between atoms: C_1  and  C_2
REMARK    2  A    between atoms: C_2  and  C_3
REMARK    3  A    between atoms: C_3  and  C_5
REMARK    4  A    between atoms: C_8  and  O_9
REMARK    5  A    between atoms: O_9  and  C_10
REMARK    6  A    between atoms: C_10  and  C_11
REMARK    7  A    between atoms: C_11  and  O_13
REMARK    8  A    between atoms: O_13  and  C_14
REMARK    9  A    between atoms: C_14  and  C_15
REMARK   10  A    between atoms: C_25  and  C_26
REMARK                            x       y       z     vdW  Elec       q    Type
REMARK                         _______ _______ _______ _____ _____    ______ ____
ROOT
ATOM      1  C   UNL     1       7.229   5.538  18.321  0.00  0.00    +0.000 C 
ATOM      2  O   UNL     1       7.957   6.050  19.165  0.00  0.00    +0.000 OA
ENDROOT
BRANCH   1   3
ATOM      3  C   UNL     1       7.726   4.839  17.074  0.00  0.00    +0.000 C 
BRANCH   3   4
ATOM      4  O   UNL     1       7.498   5.622  15.913  0.00  0.00    +0.000 OA
BRANCH   4   8
ATOM      5  C   UNL     1       6.033   3.369  12.716  0.00  0.00    +0.000 A 
ATOM      6  C   UNL     1       5.484   3.275  13.998  0.00  0.00    +0.000 A 
ATOM      7  C   UNL     1       6.004   4.052  15.034  0.00  0.00    +0.000 A 
ATOM      8  C   UNL     1       7.080   4.911  14.815  0.00  0.00    +0.000 A 
ATOM      9  C   UNL     1       7.617   5.014  13.535  0.00  0.00    +0.000 A 
ATOM     10  C   UNL     1       7.094   4.243  12.490  0.00  0.00    +0.000 A 
BRANCH   5  11
ATOM     11  C   UNL     1       5.507   2.565  11.563  0.00  0.00    +0.000 C 
ATOM     12  O   UNL     1       4.351   2.746  11.183  0.00  0.00    +0.000 OA
BRANCH  11  14
ATOM     13  C   UNL     1       6.106   0.127  11.269  0.00  0.00    +0.000 C 
ATOM     14  C   UNL     1       6.435   1.564  10.908  0.00  0.00    +0.000 C 
ENDBRANCH  11  14
ENDBRANCH   5  11
ENDBRANCH   4   8
ENDBRANCH   3   4
ENDBRANCH   1   3
BRANCH   1  15
ATOM     15  O   UNL     1       5.875   5.479  18.393  0.00  0.00    +0.000 OA
BRANCH  15  16
ATOM     16  C   UNL     1       5.365   5.127  19.683  0.00  0.00    +0.000 C 
BRANCH  16  17
ATOM     17  C   UNL     1       4.324   3.981  19.593  0.00  0.00    +0.000 C 
ATOM     18  O   UNL     1       4.691   2.817  19.405  0.00  0.00    +0.000 OA
ATOM     19  N   UNL     1       2.952   4.349  19.595  0.00  0.00    +0.000 N 
ATOM     20  C   UNL     1       2.647   5.726  19.561  0.00  0.00    +0.000 A 
ATOM     21  C   UNL     1       2.187   6.482  20.615  0.00  0.00    +0.000 A 
ATOM     22  C   UNL     1       1.726   7.761  20.313  0.00  0.00    +0.000 A 
ATOM     23  C   UNL     1       1.801   8.261  18.998  0.00  0.00    +0.000 A 
ATOM     24  C   UNL     1       2.215   7.451  17.931  0.00  0.00    +0.000 A 
ATOM     25  C   UNL     1       2.534   6.145  18.224  0.00  0.00    +0.000 A 
ATOM     26  C   UNL     1       2.607   4.926  17.323  0.00  0.00    +0.000 C 
ATOM     27  C   UNL     1       2.181   3.893  18.405  0.00  0.00    +0.000 C 
ATOM     28  C   UNL     1       2.155   2.412  18.084  0.00  0.00    +0.000 C 
ENDBRANCH  16  17
ENDBRANCH  15  16
ENDBRANCH   1  15
TORSDOF 8
ENDMDL
MODEL 7
REMARK VINA RESULT:      -7.9      4.988      8.450
REMARK  Name = 
REMARK  10 active torsions:
REMARK  status: ('A' for Active; 'I' for Inactive)
REMARK    1  A    between atoms: C_1  and  C_2
REMARK    2  A    between atoms: C_2  and  C_3
REMARK    3  A    between atoms: C_3  and  C_5
REMARK    4  A    between atoms: C_8  and  O_9
REMARK    5  A    between atoms: O_9  and  C_10
REMARK    6  A    between atoms: C_10  and  C_11
REMARK    7  A    between atoms: C_11  and  O_13
REMARK    8  A    between atoms: O_13  and  C_14
REMARK    9  A    between atoms: C_14  and  C_15
REMARK   10  A    between atoms: C_25  and  C_26
REMARK                            x       y       z     vdW  Elec       q    Type
REMARK                         _______ _______ _______ _____ _____    ______ ____
ROOT
ATOM      1  C   UNL     1       8.013   7.615  17.607  0.00  0.00    +0.000 C 
ATOM      2  O   UNL     1       7.822   7.218  16.461  0.00  0.00    +0.000 OA
ENDROOT
BRANCH   1   3
ATOM      3  C   UNL     1       7.899   9.060  18.040  0.00  0.00    +0.000 C 
BRANCH   3   4
ATOM      4  O   UNL     1       8.923   9.410  18.959  0.00  0.00    +0.000 OA
BRANCH   4   8
ATOM      5  C   UNL     1      10.497  13.274  18.781  0.00  0.00    +0.000 A 
ATOM      6  C   UNL     1      10.971  12.325  19.691  0.00  0.00    +0.000 A 
ATOM      7  C   UNL     1      10.417  11.045  19.709  0.00  0.00    +0.000 A 
ATOM      8  C   UNL     1       9.380  10.700  18.844  0.00  0.00    +0.000 A 
ATOM      9  C   UNL     1       8.916  11.641  17.930  0.00  0.00    +0.000 A 
ATOM     10  C   UNL     1       9.474  12.926  17.902  0.00  0.00    +0.000 A 
BRANCH   5  11
ATOM     11  C   UNL     1      11.061  14.663  18.711  0.00  0.00    +0.000 C 
ATOM     12  O   UNL     1      10.790  15.373  17.744  0.00  0.00    +0.000 OA
BRANCH  11  14
ATOM     13  C   UNL     1      11.264  16.162  20.736  0.00  0.00    +0.000 C 
ATOM     14  C   UNL     1      11.942  15.135  19.848  0.00  0.00    +0.000 C 
ENDBRANCH  11  14
ENDBRANCH   5  11
ENDBRANCH   4   8
ENDBRANCH   3   4
ENDBRANCH   1   3
BRANCH   1  15
ATOM     15  O   UNL     1       8.311   6.822  18.667  0.00  0.00    +0.000 OA
BRANCH  15  16
ATOM     16  C   UNL     1       7.246   5.959  19.079  0.00  0.00    +0.000 C 
BRANCH  16  17
ATOM     17  C   UNL     1       7.025   4.803  18.069  0.00  0.00    +0.000 C 
ATOM     18  O   UNL     1       7.975   4.345  17.426  0.00  0.00    +0.000 OA
ATOM     19  N   UNL     1       5.683   4.404  17.821  0.00  0.00    +0.000 N 
ATOM     20  C   UNL     1       4.657   5.164  18.422  0.00  0.00    +0.000 A 
ATOM     21  C   UNL     1       3.891   4.785  19.500  0.00  0.00    +0.000 A 
ATOM     22  C   UNL     1       2.781   5.576  19.788  0.00  0.00    +0.000 A 
ATOM     23  C   UNL     1       2.514   6.740  19.040  0.00  0.00    +0.000 A 
ATOM     24  C   UNL     1       3.273   7.071  17.908  0.00  0.00    +0.000 A 
ATOM     25  C   UNL     1       4.280   6.203  17.554  0.00  0.00    +0.000 A 
ATOM     26  C   UNL     1       4.991   6.014  16.227  0.00  0.00    +0.000 C 
ATOM     27  C   UNL     1       5.258   4.491  16.397  0.00  0.00    +0.000 C 
ATOM     28  C   UNL     1       6.056   3.731  15.356  0.00  0.00    +0.000 C 
ENDBRANCH  16  17
ENDBRANCH  15  16
ENDBRANCH   1  15
TORSDOF 8
ENDMDL
MODEL 8
REMARK VINA RESULT:      -7.9      4.759      9.188
REMARK  Name = 
REMARK  10 active torsions:
REMARK  status: ('A' for Active; 'I' for Inactive)
REMARK    1  A    between atoms: C_1  and  C_2
REMARK    2  A    between atoms: C_2  and  C_3
REMARK    3  A    between atoms: C_3  and  C_5
REMARK    4  A    between atoms: C_8  and  O_9
REMARK    5  A    between atoms: O_9  and  C_10
REMARK    6  A    between atoms: C_10  and  C_11
REMARK    7  A    between atoms: C_11  and  O_13
REMARK    8  A    between atoms: O_13  and  C_14
REMARK    9  A    between atoms: C_14  and  C_15
REMARK   10  A    between atoms: C_25  and  C_26
REMARK                            x       y       z     vdW  Elec       q    Type
REMARK                         _______ _______ _______ _____ _____    ______ ____
ROOT
ATOM      1  C   UNL     1       1.552   8.955  19.559  0.00  0.00    +0.000 C 
ATOM      2  O   UNL     1       1.476   8.468  20.683  0.00  0.00    +0.000 OA
ENDROOT
BRANCH   1   3
ATOM      3  C   UNL     1       0.843  10.220  19.127  0.00  0.00    +0.000 C 
BRANCH   3   4
ATOM      4  O   UNL     1       0.083  10.012  17.946  0.00  0.00    +0.000 OA
BRANCH   4   8
ATOM      5  C   UNL     1      -3.880  11.329  17.912  0.00  0.00    +0.000 A 
ATOM      6  C   UNL     1      -3.398  10.413  16.973  0.00  0.00    +0.000 A 
ATOM      7  C   UNL     1      -2.067   9.999  17.027  0.00  0.00    +0.000 A 
ATOM      8  C   UNL     1      -1.200  10.500  17.997  0.00  0.00    +0.000 A 
ATOM      9  C   UNL     1      -1.683  11.402  18.940  0.00  0.00    +0.000 A 
ATOM     10  C   UNL     1      -3.020  11.816  18.894  0.00  0.00    +0.000 A 
BRANCH   5  11
ATOM     11  C   UNL     1      -5.304  11.802  17.907  0.00  0.00    +0.000 C 
ATOM     12  O   UNL     1      -5.722  12.440  16.942  0.00  0.00    +0.000 OA
BRANCH  11  14
ATOM     13  C   UNL     1      -6.793  10.079  19.006  0.00  0.00    +0.000 C 
ATOM     14  C   UNL     1      -6.174  11.462  19.099  0.00  0.00    +0.000 C 
ENDBRANCH  11  14
ENDBRANCH   5  11
ENDBRANCH   4   8
ENDBRANCH   3   4
ENDBRANCH   1   3
BRANCH   1  15
ATOM     15  O   UNL     1       2.312   8.465  18.547  0.00  0.00    +0.000 OA
BRANCH  15  16
ATOM     16  C   UNL     1       2.173   7.057  18.330  0.00  0.00    +0.000 C 
BRANCH  16  17
ATOM     17  C   UNL     1       3.521   6.405  17.929  0.00  0.00    +0.000 C 
ATOM     18  O   UNL     1       4.224   6.913  17.049  0.00  0.00    +0.000 OA
ATOM     19  N   UNL     1       3.833   5.147  18.511  0.00  0.00    +0.000 N 
ATOM     20  C   UNL     1       2.844   4.537  19.312  0.00  0.00    +0.000 A 
ATOM     21  C   UNL     1       2.852   4.450  20.685  0.00  0.00    +0.000 A 
ATOM     22  C   UNL     1       1.907   3.607  21.264  0.00  0.00    +0.000 A 
ATOM     23  C   UNL     1       0.954   2.941  20.468  0.00  0.00    +0.000 A 
ATOM     24  C   UNL     1       1.005   2.997  19.067  0.00  0.00    +0.000 A 
ATOM     25  C   UNL     1       2.032   3.721  18.507  0.00  0.00    +0.000 A 
ATOM     26  C   UNL     1       2.628   3.661  17.113  0.00  0.00    +0.000 C 
ATOM     27  C   UNL     1       4.074   4.049  17.533  0.00  0.00    +0.000 C 
ATOM     28  C   UNL     1       5.154   4.237  16.486  0.00  0.00    +0.000 C 
ENDBRANCH  16  17
ENDBRANCH  15  16
ENDBRANCH   1  15
TORSDOF 8
ENDMDL
MODEL 9
REMARK VINA RESULT:      -7.9      1.294      1.889
REMARK  Name = 
REMARK  10 active torsions:
REMARK  status: ('A' for Active; 'I' for Inactive)
REMARK    1  A    between atoms: C_1  and  C_2
REMARK    2  A    between atoms: C_2  and  C_3
REMARK    3  A    between atoms: C_3  and  C_5
REMARK    4  A    between atoms: C_8  and  O_9
REMARK    5  A    between atoms: O_9  and  C_10
REMARK    6  A    between atoms: C_10  and  C_11
REMARK    7  A    between atoms: C_11  and  O_13
REMARK    8  A    between atoms: O_13  and  C_14
REMARK    9  A    between atoms: C_14  and  C_15
REMARK   10  A    between atoms: C_25  and  C_26
REMARK                            x       y       z     vdW  Elec       q    Type
REMARK                         _______ _______ _______ _____ _____    ______ ____
ROOT
ATOM      1  C   UNL     1       6.599   6.159  17.898  0.00  0.00    +0.000 C 
ATOM      2  O   UNL     1       6.770   6.205  19.112  0.00  0.00    +0.000 OA
ENDROOT
BRANCH   1   3
ATOM      3  C   UNL     1       7.300   5.190  16.971  0.00  0.00    +0.000 C 
BRANCH   3   4
ATOM      4  O   UNL     1       7.394   5.707  15.653  0.00  0.00    +0.000 OA
BRANCH   4   8
ATOM      5  C   UNL     1       5.827   3.371  12.566  0.00  0.00    +0.000 A 
ATOM      6  C   UNL     1       6.999   4.115  12.407  0.00  0.00    +0.000 A 
ATOM      7  C   UNL     1       7.487   4.877  13.469  0.00  0.00    +0.000 A 
ATOM      8  C   UNL     1       6.811   4.924  14.687  0.00  0.00    +0.000 A 
ATOM      9  C   UNL     1       5.651   4.174  14.849  0.00  0.00    +0.000 A 
ATOM     10  C   UNL     1       5.160   3.401  13.789  0.00  0.00    +0.000 A 
BRANCH   5  11
ATOM     11  C   UNL     1       5.262   2.527  11.462  0.00  0.00    +0.000 C 
ATOM     12  O   UNL     1       5.977   1.681  10.927  0.00  0.00    +0.000 OA
BRANCH  11  14
ATOM     13  C   UNL     1       3.617   4.033  10.270  0.00  0.00    +0.000 C 
ATOM     14  C   UNL     1       3.820   2.751  11.057  0.00  0.00    +0.000 C 
ENDBRANCH  11  14
ENDBRANCH   5  11
ENDBRANCH   4   8
ENDBRANCH   3   4
ENDBRANCH   1   3
BRANCH   1  15
ATOM     15  O   UNL     1       5.726   6.934  17.205  0.00  0.00    +0.000 OA
BRANCH  15  16
ATOM     16  C   UNL     1       4.494   6.286  16.871  0.00  0.00    +0.000 C 
BRANCH  16  17
ATOM     17  C   UNL     1       3.312   6.844  17.704  0.00  0.00    +0.000 C 
ATOM     18  O   UNL     1       3.232   8.053  17.945  0.00  0.00    +0.000 OA
ATOM     19  N   UNL     1       2.422   5.900  18.284  0.00  0.00    +0.000 N 
ATOM     20  C   UNL     1       2.750   4.533  18.154  0.00  0.00    +0.000 A 
ATOM     21  C   UNL     1       2.140   3.628  17.315  0.00  0.00    +0.000 A 
ATOM     22  C   UNL     1       2.454   2.285  17.510  0.00  0.00    +0.000 A 
ATOM     23  C   UNL     1       3.404   1.901  18.477  0.00  0.00    +0.000 A 
ATOM     24  C   UNL     1       3.965   2.835  19.360  0.00  0.00    +0.000 A 
ATOM     25  C   UNL     1       3.539   4.138  19.248  0.00  0.00    +0.000 A 
ATOM     26  C   UNL     1       3.595   5.279  20.247  0.00  0.00    +0.000 C 
ATOM     27  C   UNL     1       2.297   5.987  19.765  0.00  0.00    +0.000 C 
ATOM     28  C   UNL     1       1.869   7.305  20.378  0.00  0.00    +0.000 C 
ENDBRANCH  16  17
ENDBRANCH  15  16
ENDBRANCH   1  15
TORSDOF 8
ENDMDL
