MODEL 1
REMARK VINA RESULT:      -6.5      0.000      0.000
REMARK  Name = 
REMARK  20 active torsions:
REMARK  status: ('A' for Active; 'I' for Inactive)
REMARK    1  A    between atoms: C_1  and  C_2
REMARK    2  A    between atoms: C_2  and  N_3
REMARK    3  A    between atoms: N_3  and  C_4
REMARK    4  A    between atoms: N_3  and  C_6
REMARK    5  A    between atoms: C_4  and  C_5
REMARK    6  A    between atoms: C_6  and  C_7
REMARK    7  A    between atoms: C_7  and  C_8
REMARK    8  A    between atoms: C_8  and  C_9
REMARK    9  A    between atoms: C_9  and  O_10
REMARK   10  A    between atoms: O_10  and  C_11
REMARK   11  A    between atoms: C_21  and  O_22
REMARK   12  A    between atoms: O_22  and  C_23
REMARK   13  A    between atoms: C_23  and  C_24
REMARK   14  A    between atoms: C_24  and  C_25
REMARK   15  A    between atoms: C_25  and  C_26
REMARK   16  A    between atoms: C_26  and  N_27
REMARK   17  A    between atoms: N_27  and  C_28
REMARK   18  A    between atoms: N_27  and  C_30
REMARK   19  A    between atoms: C_28  and  C_29
REMARK   20  A    between atoms: C_30  and  C_31
REMARK                            x       y       z     vdW  Elec       q    Type
REMARK                         _______ _______ _______ _____ _____    ______ ____
ROOT
ATOM      1  C   UNL     1       2.723   7.089  18.492  0.00  0.00    +0.000 A 
ATOM      2  C   UNL     1       2.444   6.425  19.706  0.00  0.00    +0.000 A 
ATOM      3  C   UNL     1       1.751   7.058  20.747  0.00  0.00    +0.000 A 
ATOM      4  C   UNL     1       1.327   8.359  20.546  0.00  0.00    +0.000 A 
ATOM      5  C   UNL     1       1.595   8.993  19.322  0.00  0.00    +0.000 A 
ATOM      6  C   UNL     1       2.280   8.394  18.280  0.00  0.00    +0.000 A 
ATOM      7  C   UNL     1       1.001  10.347  19.378  0.00  0.00    +0.000 C 
ATOM      8  O   UNL     1       1.036  11.185  18.509  0.00  0.00    +0.000 OA
ATOM      9  C   UNL     1       0.352  10.466  20.700  0.00  0.00    +0.000 A 
ATOM     10  C   UNL     1      -0.379  11.523  21.215  0.00  0.00    +0.000 A 
ATOM     11  C   UNL     1      -0.918  11.343  22.488  0.00  0.00    +0.000 A 
ATOM     12  C   UNL     1      -0.668  10.160  23.215  0.00  0.00    +0.000 A 
ATOM     13  C   UNL     1       0.076   9.108  22.668  0.00  0.00    +0.000 A 
ATOM     14  C   UNL     1       0.576   9.263  21.391  0.00  0.00    +0.000 A 
ENDROOT
BRANCH   1  15
ATOM     15  O   UNL     1       3.415   6.340  17.582  0.00  0.00    +0.000 OA
BRANCH  15  16
ATOM     16  C   UNL     1       4.837   6.323  17.725  0.00  0.00    +0.000 C 
BRANCH  16  17
ATOM     17  C   UNL     1       5.304   4.886  17.507  0.00  0.00    +0.000 C 
BRANCH  17  18
ATOM     18  C   UNL     1       4.401   4.145  16.516  0.00  0.00    +0.000 C 
BRANCH  18  19
ATOM     19  C   UNL     1       3.765   2.879  17.107  0.00  0.00    +0.000 C 
BRANCH  19  20
ATOM     20  N   UNL     1       3.073   3.070  18.395  0.00  0.00    +0.000 NA
BRANCH  20  22
ATOM     21  C   UNL     1       0.789   2.992  19.478  0.00  0.00    +0.000 C 
ATOM     22  C   UNL     1       1.621   3.246  18.223  0.00  0.00    +0.000 C 
ENDBRANCH  20  22
BRANCH  20  23
ATOM     23  C   UNL     1       3.434   2.006  19.354  0.00  0.00    +0.000 C 
ATOM     24  C   UNL     1       4.615   2.293  20.281  0.00  0.00    +0.000 C 
ENDBRANCH  20  23
ENDBRANCH  19  20
ENDBRANCH  18  19
ENDBRANCH  17  18
ENDBRANCH  16  17
ENDBRANCH  15  16
ENDBRANCH   1  15
BRANCH  11  25
ATOM     25  O   UNL     1      -1.697  12.253  23.140  0.00  0.00    +0.000 OA
BRANCH  25  26
ATOM     26  C   UNL     1      -3.054  12.354  22.700  0.00  0.00    +0.000 C 
BRANCH  26  27
ATOM     27  C   UNL     1      -3.120  13.445  21.627  0.00  0.00    +0.000 C 
BRANCH  27  28
ATOM     28  C   UNL     1      -3.813  12.945  20.357  0.00  0.00    +0.000 C 
BRANCH  28  29
ATOM     29  C   UNL     1      -2.884  12.183  19.399  0.00  0.00    +0.000 C 
BRANCH  29  30
ATOM     30  N   UNL     1      -3.498  11.616  18.179  0.00  0.00    +0.000 NA
BRANCH  30  31
ATOM     31  C   UNL     1      -4.939  11.402  18.421  0.00  0.00    +0.000 C 
ATOM     32  C   UNL     1      -5.868  12.119  17.447  0.00  0.00    +0.000 C 
ENDBRANCH  30  31
BRANCH  30  33
ATOM     33  C   UNL     1      -2.801  10.427  17.661  0.00  0.00    +0.000 C 
ATOM     34  C   UNL     1      -3.051  10.075  16.197  0.00  0.00    +0.000 C 
ENDBRANCH  30  33
ENDBRANCH  29  30
ENDBRANCH  28  29
ENDBRANCH  27  28
ENDBRANCH  26  27
ENDBRANCH  25  26
ENDBRANCH  11  25
TORSDOF 16
ENDMDL
MODEL 2
REMARK VINA RESULT:      -6.5      2.249      3.546
REMARK  Name = 
REMARK  20 active torsions:
REMARK  status: ('A' for Active; 'I' for Inactive)
REMARK    1  A    between atoms: C_1  and  C_2
REMARK    2  A    between atoms: C_2  and  N_3
REMARK    3  A    between atoms: N_3  and  C_4
REMARK    4  A    between atoms: N_3  and  C_6
REMARK    5  A    between atoms: C_4  and  C_5
REMARK    6  A    between atoms: C_6  and  C_7
REMARK    7  A    between atoms: C_7  and  C_8
REMARK    8  A    between atoms: C_8  and  C_9
REMARK    9  A    between atoms: C_9  and  O_10
REMARK   10  A    between atoms: O_10  and  C_11
REMARK   11  A    between atoms: C_21  and  O_22
REMARK   12  A    between atoms: O_22  and  C_23
REMARK   13  A    between atoms: C_23  and  C_24
REMARK   14  A    between atoms: C_24  and  C_25
REMARK   15  A    between atoms: C_25  and  C_26
REMARK   16  A    between atoms: C_26  and  N_27
REMARK   17  A    between atoms: N_27  and  C_28
REMARK   18  A    between atoms: N_27  and  C_30
REMARK   19  A    between atoms: C_28  and  C_29
REMARK   20  A    between atoms: C_30  and  C_31
REMARK                            x       y       z     vdW  Elec       q    Type
REMARK                         _______ _______ _______ _____ _____    ______ ____
ROOT
ATOM      1  C   UNL     1       2.567   7.725  18.254  0.00  0.00    +0.000 A 
ATOM      2  C   UNL     1       2.379   7.009  19.456  0.00  0.00    +0.000 A 
ATOM      3  C   UNL     1       1.705   7.572  20.549  0.00  0.00    +0.000 A 
ATOM      4  C   UNL     1       1.210   8.856  20.412  0.00  0.00    +0.000 A 
ATOM      5  C   UNL     1       1.389   9.542  19.200  0.00  0.00    +0.000 A 
ATOM      6  C   UNL     1       2.053   9.011  18.108  0.00  0.00    +0.000 A 
ATOM      7  C   UNL     1       0.733  10.862  19.330  0.00  0.00    +0.000 C 
ATOM      8  O   UNL     1       0.688  11.729  18.490  0.00  0.00    +0.000 OA
ATOM      9  C   UNL     1       0.143  10.906  20.684  0.00  0.00    +0.000 A 
ATOM     10  C   UNL     1      -0.613  11.907  21.267  0.00  0.00    +0.000 A 
ATOM     11  C   UNL     1      -1.083  11.660  22.557  0.00  0.00    +0.000 A 
ATOM     12  C   UNL     1      -0.742  10.468  23.230  0.00  0.00    +0.000 A 
ATOM     13  C   UNL     1       0.025   9.472  22.614  0.00  0.00    +0.000 A 
ATOM     14  C   UNL     1       0.456   9.693  21.321  0.00  0.00    +0.000 A 
ENDROOT
BRANCH   1  15
ATOM     15  O   UNL     1       3.251   7.041  17.288  0.00  0.00    +0.000 OA
BRANCH  15  16
ATOM     16  C   UNL     1       4.520   6.505  17.669  0.00  0.00    +0.000 C 
BRANCH  16  17
ATOM     17  C   UNL     1       4.907   5.455  16.631  0.00  0.00    +0.000 C 
BRANCH  17  18
ATOM     18  C   UNL     1       4.894   4.043  17.225  0.00  0.00    +0.000 C 
BRANCH  18  19
ATOM     19  C   UNL     1       4.682   4.030  18.746  0.00  0.00    +0.000 C 
BRANCH  19  20
ATOM     20  N   UNL     1       3.346   3.586  19.187  0.00  0.00    +0.000 NA
BRANCH  20  22
ATOM     21  C   UNL     1       1.322   3.995  17.728  0.00  0.00    +0.000 C 
ATOM     22  C   UNL     1       2.522   3.112  18.062  0.00  0.00    +0.000 C 
ENDBRANCH  20  22
BRANCH  20  23
ATOM     23  C   UNL     1       3.450   2.619  20.298  0.00  0.00    +0.000 C 
ATOM     24  C   UNL     1       2.468   2.799  21.455  0.00  0.00    +0.000 C 
ENDBRANCH  20  23
ENDBRANCH  19  20
ENDBRANCH  18  19
ENDBRANCH  17  18
ENDBRANCH  16  17
ENDBRANCH  15  16
ENDBRANCH   1  15
BRANCH  11  25
ATOM     25  O   UNL     1      -1.874  12.508  23.274  0.00  0.00    +0.000 OA
BRANCH  25  26
ATOM     26  C   UNL     1      -3.226  12.090  23.480  0.00  0.00    +0.000 C 
BRANCH  26  27
ATOM     27  C   UNL     1      -4.100  12.797  22.440  0.00  0.00    +0.000 C 
BRANCH  27  28
ATOM     28  C   UNL     1      -4.555  14.175  22.930  0.00  0.00    +0.000 C 
BRANCH  28  29
ATOM     29  C   UNL     1      -3.643  15.328  22.482  0.00  0.00    +0.000 C 
BRANCH  29  30
ATOM     30  N   UNL     1      -3.238  16.303  23.516  0.00  0.00    +0.000 NA
BRANCH  30  31
ATOM     31  C   UNL     1      -1.831  16.693  23.284  0.00  0.00    +0.000 C 
ATOM     32  C   UNL     1      -1.110  15.888  22.208  0.00  0.00    +0.000 C 
ENDBRANCH  30  31
BRANCH  30  33
ATOM     33  C   UNL     1      -3.510  15.859  24.892  0.00  0.00    +0.000 C 
ATOM     34  C   UNL     1      -2.333  15.267  25.664  0.00  0.00    +0.000 C 
ENDBRANCH  30  33
ENDBRANCH  29  30
ENDBRANCH  28  29
ENDBRANCH  27  28
ENDBRANCH  26  27
ENDBRANCH  25  26
ENDBRANCH  11  25
TORSDOF 16
ENDMDL
MODEL 3
REMARK VINA RESULT:      -6.4      1.328      1.911
REMARK  Name = 
REMARK  20 active torsions:
REMARK  status: ('A' for Active; 'I' for Inactive)
REMARK    1  A    between atoms: C_1  and  C_2
REMARK    2  A    between atoms: C_2  and  N_3
REMARK    3  A    between atoms: N_3  and  C_4
REMARK    4  A    between atoms: N_3  and  C_6
REMARK    5  A    between atoms: C_4  and  C_5
REMARK    6  A    between atoms: C_6  and  C_7
REMARK    7  A    between atoms: C_7  and  C_8
REMARK    8  A    between atoms: C_8  and  C_9
REMARK    9  A    between atoms: C_9  and  O_10
REMARK   10  A    between atoms: O_10  and  C_11
REMARK   11  A    between atoms: C_21  and  O_22
REMARK   12  A    between atoms: O_22  and  C_23
REMARK   13  A    between atoms: C_23  and  C_24
REMARK   14  A    between atoms: C_24  and  C_25
REMARK   15  A    between atoms: C_25  and  C_26
REMARK   16  A    between atoms: C_26  and  N_27
REMARK   17  A    between atoms: N_27  and  C_28
REMARK   18  A    between atoms: N_27  and  C_30
REMARK   19  A    between atoms: C_28  and  C_29
REMARK   20  A    between atoms: C_30  and  C_31
REMARK                            x       y       z     vdW  Elec       q    Type
REMARK                         _______ _______ _______ _____ _____    ______ ____
ROOT
ATOM      1  C   UNL     1       2.685   7.144  18.585  0.00  0.00    +0.000 A 
ATOM      2  C   UNL     1       2.405   6.485  19.802  0.00  0.00    +0.000 A 
ATOM      3  C   UNL     1       1.690   7.114  20.830  0.00  0.00    +0.000 A 
ATOM      4  C   UNL     1       1.245   8.405  20.613  0.00  0.00    +0.000 A 
ATOM      5  C   UNL     1       1.514   9.034  19.386  0.00  0.00    +0.000 A 
ATOM      6  C   UNL     1       2.221   8.438  18.358  0.00  0.00    +0.000 A 
ATOM      7  C   UNL     1       0.895  10.378  19.425  0.00  0.00    +0.000 C 
ATOM      8  O   UNL     1       0.926  11.209  18.549  0.00  0.00    +0.000 OA
ATOM      9  C   UNL     1       0.231  10.496  20.739  0.00  0.00    +0.000 A 
ATOM     10  C   UNL     1      -0.525  11.543  21.237  0.00  0.00    +0.000 A 
ATOM     11  C   UNL     1      -1.074  11.364  22.506  0.00  0.00    +0.000 A 
ATOM     12  C   UNL     1      -0.811  10.192  23.245  0.00  0.00    +0.000 A 
ATOM     13  C   UNL     1      -0.043   9.149  22.715  0.00  0.00    +0.000 A 
ATOM     14  C   UNL     1       0.468   9.302  21.442  0.00  0.00    +0.000 A 
ENDROOT
BRANCH   1  15
ATOM     15  O   UNL     1       3.400   6.400  17.688  0.00  0.00    +0.000 OA
BRANCH  15  16
ATOM     16  C   UNL     1       4.807   6.648  17.639  0.00  0.00    +0.000 C 
BRANCH  16  17
ATOM     17  C   UNL     1       5.506   5.468  18.309  0.00  0.00    +0.000 C 
BRANCH  17  18
ATOM     18  C   UNL     1       4.885   4.132  17.887  0.00  0.00    +0.000 C 
BRANCH  18  19
ATOM     19  C   UNL     1       4.322   3.328  19.068  0.00  0.00    +0.000 C 
BRANCH  19  20
ATOM     20  N   UNL     1       3.185   2.449  18.740  0.00  0.00    +0.000 NA
BRANCH  20  22
ATOM     21  C   UNL     1       2.669   3.036  21.144  0.00  0.00    +0.000 C 
ATOM     22  C   UNL     1       2.279   2.265  19.886  0.00  0.00    +0.000 C 
ENDBRANCH  20  22
BRANCH  20  23
ATOM     23  C   UNL     1       2.504   2.900  17.510  0.00  0.00    +0.000 C 
ATOM     24  C   UNL     1       1.271   3.783  17.695  0.00  0.00    +0.000 C 
ENDBRANCH  20  23
ENDBRANCH  19  20
ENDBRANCH  18  19
ENDBRANCH  17  18
ENDBRANCH  16  17
ENDBRANCH  15  16
ENDBRANCH   1  15
BRANCH  11  25
ATOM     25  O   UNL     1      -1.877  12.266  23.142  0.00  0.00    +0.000 OA
BRANCH  25  26
ATOM     26  C   UNL     1      -1.558  13.646  22.943  0.00  0.00    +0.000 C 
BRANCH  26  27
ATOM     27  C   UNL     1      -2.549  14.215  21.924  0.00  0.00    +0.000 C 
BRANCH  27  28
ATOM     28  C   UNL     1      -3.905  13.508  22.003  0.00  0.00    +0.000 C 
BRANCH  28  29
ATOM     29  C   UNL     1      -4.318  12.807  20.699  0.00  0.00    +0.000 C 
BRANCH  29  30
ATOM     30  N   UNL     1      -5.612  13.205  20.105  0.00  0.00    +0.000 NA
BRANCH  30  31
ATOM     31  C   UNL     1      -6.684  12.986  21.097  0.00  0.00    +0.000 C 
ATOM     32  C   UNL     1      -7.910  13.878  20.927  0.00  0.00    +0.000 C 
ENDBRANCH  30  31
BRANCH  30  33
ATOM     33  C   UNL     1      -5.881  12.587  18.797  0.00  0.00    +0.000 C 
ATOM     34  C   UNL     1      -4.751  11.762  18.186  0.00  0.00    +0.000 C 
ENDBRANCH  30  33
ENDBRANCH  29  30
ENDBRANCH  28  29
ENDBRANCH  27  28
ENDBRANCH  26  27
ENDBRANCH  25  26
ENDBRANCH  11  25
TORSDOF 16
ENDMDL
MODEL 4
REMARK VINA RESULT:      -6.2      2.089      3.411
REMARK  Name = 
REMARK  20 active torsions:
REMARK  status: ('A' for Active; 'I' for Inactive)
REMARK    1  A    between atoms: C_1  and  C_2
REMARK    2  A    between atoms: C_2  and  N_3
REMARK    3  A    between atoms: N_3  and  C_4
REMARK    4  A    between atoms: N_3  and  C_6
REMARK    5  A    between atoms: C_4  and  C_5
REMARK    6  A    between atoms: C_6  and  C_7
REMARK    7  A    between atoms: C_7  and  C_8
REMARK    8  A    between atoms: C_8  and  C_9
REMARK    9  A    between atoms: C_9  and  O_10
REMARK   10  A    between atoms: O_10  and  C_11
REMARK   11  A    between atoms: C_21  and  O_22
REMARK   12  A    between atoms: O_22  and  C_23
REMARK   13  A    between atoms: C_23  and  C_24
REMARK   14  A    between atoms: C_24  and  C_25
REMARK   15  A    between atoms: C_25  and  C_26
REMARK   16  A    between atoms: C_26  and  N_27
REMARK   17  A    between atoms: N_27  and  C_28
REMARK   18  A    between atoms: N_27  and  C_30
REMARK   19  A    between atoms: C_28  and  C_29
REMARK   20  A    between atoms: C_30  and  C_31
REMARK                            x       y       z     vdW  Elec       q    Type
REMARK                         _______ _______ _______ _____ _____    ______ ____
ROOT
ATOM      1  C   UNL     1       2.083   7.709  18.909  0.00  0.00    +0.000 A 
ATOM      2  C   UNL     1       1.651   8.553  17.864  0.00  0.00    +0.000 A 
ATOM      3  C   UNL     1       0.862   9.685  18.112  0.00  0.00    +0.000 A 
ATOM      4  C   UNL     1       0.528   9.967  19.424  0.00  0.00    +0.000 A 
ATOM      5  C   UNL     1       0.988   9.126  20.451  0.00  0.00    +0.000 A 
ATOM      6  C   UNL     1       1.763   8.002  20.234  0.00  0.00    +0.000 A 
ATOM      7  C   UNL     1       0.512   9.686  21.736  0.00  0.00    +0.000 C 
ATOM      8  O   UNL     1       0.707   9.228  22.836  0.00  0.00    +0.000 OA
ATOM      9  C   UNL     1      -0.240  10.914  21.406  0.00  0.00    +0.000 A 
ATOM     10  C   UNL     1      -0.841  11.818  22.263  0.00  0.00    +0.000 A 
ATOM     11  C   UNL     1      -1.452  12.924  21.671  0.00  0.00    +0.000 A 
ATOM     12  C   UNL     1      -1.490  13.059  20.268  0.00  0.00    +0.000 A 
ATOM     13  C   UNL     1      -0.872  12.127  19.425  0.00  0.00    +0.000 A 
ATOM     14  C   UNL     1      -0.229  11.054  20.007  0.00  0.00    +0.000 A 
ENDROOT
BRANCH   1  15
ATOM     15  O   UNL     1       2.835   6.643  18.503  0.00  0.00    +0.000 OA
BRANCH  15  16
ATOM     16  C   UNL     1       3.962   6.941  17.675  0.00  0.00    +0.000 C 
BRANCH  16  17
ATOM     17  C   UNL     1       4.867   5.711  17.670  0.00  0.00    +0.000 C 
BRANCH  17  18
ATOM     18  C   UNL     1       5.299   5.324  19.089  0.00  0.00    +0.000 C 
BRANCH  18  19
ATOM     19  C   UNL     1       4.880   3.900  19.480  0.00  0.00    +0.000 C 
BRANCH  19  20
ATOM     20  N   UNL     1       3.440   3.612  19.342  0.00  0.00    +0.000 NA
BRANCH  20  22
ATOM     21  C   UNL     1       2.605   2.491  17.234  0.00  0.00    +0.000 C 
ATOM     22  C   UNL     1       3.196   2.343  18.634  0.00  0.00    +0.000 C 
ENDBRANCH  20  22
BRANCH  20  23
ATOM     23  C   UNL     1       2.752   3.709  20.645  0.00  0.00    +0.000 C 
ATOM     24  C   UNL     1       1.276   4.103  20.611  0.00  0.00    +0.000 C 
ENDBRANCH  20  23
ENDBRANCH  19  20
ENDBRANCH  18  19
ENDBRANCH  17  18
ENDBRANCH  16  17
ENDBRANCH  15  16
ENDBRANCH   1  15
BRANCH  11  25
ATOM     25  O   UNL     1      -2.058  13.938  22.354  0.00  0.00    +0.000 OA
BRANCH  25  26
ATOM     26  C   UNL     1      -2.820  14.860  21.570  0.00  0.00    +0.000 C 
BRANCH  26  27
ATOM     27  C   UNL     1      -3.686  15.685  22.526  0.00  0.00    +0.000 C 
BRANCH  27  28
ATOM     28  C   UNL     1      -5.158  15.269  22.453  0.00  0.00    +0.000 C 
BRANCH  28  29
ATOM     29  C   UNL     1      -5.399  13.965  21.676  0.00  0.00    +0.000 C 
BRANCH  29  30
ATOM     30  N   UNL     1      -5.712  12.759  22.472  0.00  0.00    +0.000 NA
BRANCH  30  31
ATOM     31  C   UNL     1      -7.005  12.206  22.018  0.00  0.00    +0.000 C 
ATOM     32  C   UNL     1      -7.118  11.989  20.513  0.00  0.00    +0.000 C 
ENDBRANCH  30  31
BRANCH  30  33
ATOM     33  C   UNL     1      -5.636  12.970  23.926  0.00  0.00    +0.000 C 
ATOM     34  C   UNL     1      -4.447  12.339  24.646  0.00  0.00    +0.000 C 
ENDBRANCH  30  33
ENDBRANCH  29  30
ENDBRANCH  28  29
ENDBRANCH  27  28
ENDBRANCH  26  27
ENDBRANCH  25  26
ENDBRANCH  11  25
TORSDOF 16
ENDMDL
MODEL 5
REMARK VINA RESULT:      -6.2      2.660      4.422
REMARK  Name = 
REMARK  20 active torsions:
REMARK  status: ('A' for Active; 'I' for Inactive)
REMARK    1  A    between atoms: C_1  and  C_2
REMARK    2  A    between atoms: C_2  and  N_3
REMARK    3  A    between atoms: N_3  and  C_4
REMARK    4  A    between atoms: N_3  and  C_6
REMARK    5  A    between atoms: C_4  and  C_5
REMARK    6  A    between atoms: C_6  and  C_7
REMARK    7  A    between atoms: C_7  and  C_8
REMARK    8  A    between atoms: C_8  and  C_9
REMARK    9  A    between atoms: C_9  and  O_10
REMARK   10  A    between atoms: O_10  and  C_11
REMARK   11  A    between atoms: C_21  and  O_22
REMARK   12  A    between atoms: O_22  and  C_23
REMARK   13  A    between atoms: C_23  and  C_24
REMARK   14  A    between atoms: C_24  and  C_25
REMARK   15  A    between atoms: C_25  and  C_26
REMARK   16  A    between atoms: C_26  and  N_27
REMARK   17  A    between atoms: N_27  and  C_28
REMARK   18  A    between atoms: N_27  and  C_30
REMARK   19  A    between atoms: C_28  and  C_29
REMARK   20  A    between atoms: C_30  and  C_31
REMARK                            x       y       z     vdW  Elec       q    Type
REMARK                         _______ _______ _______ _____ _____    ______ ____
ROOT
ATOM      1  C   UNL     1       3.155   5.655  17.763  0.00  0.00    +0.000 A 
ATOM      2  C   UNL     1       2.865   5.124  19.038  0.00  0.00    +0.000 A 
ATOM      3  C   UNL     1       2.336   5.922  20.063  0.00  0.00    +0.000 A 
ATOM      4  C   UNL     1       2.087   7.253  19.783  0.00  0.00    +0.000 A 
ATOM      5  C   UNL     1       2.363   7.756  18.501  0.00  0.00    +0.000 A 
ATOM      6  C   UNL     1       2.888   6.992  17.474  0.00  0.00    +0.000 A 
ATOM      7  C   UNL     1       1.970   9.182  18.483  0.00  0.00    +0.000 C 
ATOM      8  O   UNL     1       2.068   9.943  17.550  0.00  0.00    +0.000 OA
ATOM      9  C   UNL     1       1.431   9.486  19.824  0.00  0.00    +0.000 A 
ATOM     10  C   UNL     1       0.891  10.670  20.293  0.00  0.00    +0.000 A 
ATOM     11  C   UNL     1       0.414  10.660  21.604  0.00  0.00    +0.000 A 
ATOM     12  C   UNL     1       0.541   9.507  22.406  0.00  0.00    +0.000 A 
ATOM     13  C   UNL     1       1.092   8.322  21.904  0.00  0.00    +0.000 A 
ATOM     14  C   UNL     1       1.526   8.314  20.594  0.00  0.00    +0.000 A 
ENDROOT
BRANCH   1  15
ATOM     15  O   UNL     1       3.675   4.751  16.878  0.00  0.00    +0.000 OA
BRANCH  15  16
ATOM     16  C   UNL     1       4.752   3.943  17.357  0.00  0.00    +0.000 C 
BRANCH  16  17
ATOM     17  C   UNL     1       5.703   3.703  16.187  0.00  0.00    +0.000 C 
BRANCH  17  18
ATOM     18  C   UNL     1       7.026   4.454  16.373  0.00  0.00    +0.000 C 
BRANCH  18  19
ATOM     19  C   UNL     1       6.858   5.980  16.387  0.00  0.00    +0.000 C 
BRANCH  19  20
ATOM     20  N   UNL     1       7.499   6.668  17.523  0.00  0.00    +0.000 NA
BRANCH  20  22
ATOM     21  C   UNL     1       8.393   8.946  18.158  0.00  0.00    +0.000 C 
ATOM     22  C   UNL     1       7.308   8.127  17.465  0.00  0.00    +0.000 C 
ENDBRANCH  20  22
BRANCH  20  23
ATOM     23  C   UNL     1       7.090   6.066  18.808  0.00  0.00    +0.000 C 
ATOM     24  C   UNL     1       8.212   5.569  19.718  0.00  0.00    +0.000 C 
ENDBRANCH  20  23
ENDBRANCH  19  20
ENDBRANCH  18  19
ENDBRANCH  17  18
ENDBRANCH  16  17
ENDBRANCH  15  16
ENDBRANCH   1  15
BRANCH  11  25
ATOM     25  O   UNL     1      -0.185  11.717  22.223  0.00  0.00    +0.000 OA
BRANCH  25  26
ATOM     26  C   UNL     1      -1.598  11.615  22.422  0.00  0.00    +0.000 C 
BRANCH  26  27
ATOM     27  C   UNL     1      -2.287  12.441  21.332  0.00  0.00    +0.000 C 
BRANCH  27  28
ATOM     28  C   UNL     1      -2.317  13.930  21.688  0.00  0.00    +0.000 C 
BRANCH  28  29
ATOM     29  C   UNL     1      -2.553  14.208  23.181  0.00  0.00    +0.000 C 
BRANCH  29  30
ATOM     30  N   UNL     1      -3.888  14.712  23.566  0.00  0.00    +0.000 NA
BRANCH  30  31
ATOM     31  C   UNL     1      -3.739  15.655  24.694  0.00  0.00    +0.000 C 
ATOM     32  C   UNL     1      -2.447  15.505  25.491  0.00  0.00    +0.000 C 
ENDBRANCH  30  31
BRANCH  30  33
ATOM     33  C   UNL     1      -4.877  13.649  23.810  0.00  0.00    +0.000 C 
ATOM     34  C   UNL     1      -4.412  12.465  24.653  0.00  0.00    +0.000 C 
ENDBRANCH  30  33
ENDBRANCH  29  30
ENDBRANCH  28  29
ENDBRANCH  27  28
ENDBRANCH  26  27
ENDBRANCH  25  26
ENDBRANCH  11  25
TORSDOF 16
ENDMDL
MODEL 6
REMARK VINA RESULT:      -6.2      2.537      4.216
REMARK  Name = 
REMARK  20 active torsions:
REMARK  status: ('A' for Active; 'I' for Inactive)
REMARK    1  A    between atoms: C_1  and  C_2
REMARK    2  A    between atoms: C_2  and  N_3
REMARK    3  A    between atoms: N_3  and  C_4
REMARK    4  A    between atoms: N_3  and  C_6
REMARK    5  A    between atoms: C_4  and  C_5
REMARK    6  A    between atoms: C_6  and  C_7
REMARK    7  A    between atoms: C_7  and  C_8
REMARK    8  A    between atoms: C_8  and  C_9
REMARK    9  A    between atoms: C_9  and  O_10
REMARK   10  A    between atoms: O_10  and  C_11
REMARK   11  A    between atoms: C_21  and  O_22
REMARK   12  A    between atoms: O_22  and  C_23
REMARK   13  A    between atoms: C_23  and  C_24
REMARK   14  A    between atoms: C_24  and  C_25
REMARK   15  A    between atoms: C_25  and  C_26
REMARK   16  A    between atoms: C_26  and  N_27
REMARK   17  A    between atoms: N_27  and  C_28
REMARK   18  A    between atoms: N_27  and  C_30
REMARK   19  A    between atoms: C_28  and  C_29
REMARK   20  A    between atoms: C_30  and  C_31
REMARK                            x       y       z     vdW  Elec       q    Type
REMARK                         _______ _______ _______ _____ _____    ______ ____
ROOT
ATOM      1  C   UNL     1       2.367   7.368  19.085  0.00  0.00    +0.000 A 
ATOM      2  C   UNL     1       2.196   8.218  17.971  0.00  0.00    +0.000 A 
ATOM      3  C   UNL     1       1.471   9.414  18.064  0.00  0.00    +0.000 A 
ATOM      4  C   UNL     1       0.937   9.754  19.293  0.00  0.00    +0.000 A 
ATOM      5  C   UNL     1       1.138   8.905  20.394  0.00  0.00    +0.000 A 
ATOM      6  C   UNL     1       1.844   7.718  20.329  0.00  0.00    +0.000 A 
ATOM      7  C   UNL     1       0.491   9.532  21.568  0.00  0.00    +0.000 C 
ATOM      8  O   UNL     1       0.451   9.087  22.690  0.00  0.00    +0.000 OA
ATOM      9  C   UNL     1      -0.088  10.807  21.097  0.00  0.00    +0.000 A 
ATOM     10  C   UNL     1      -0.754  11.777  21.825  0.00  0.00    +0.000 A 
ATOM     11  C   UNL     1      -1.158  12.913  21.123  0.00  0.00    +0.000 A 
ATOM     12  C   UNL     1      -0.938  13.015  19.734  0.00  0.00    +0.000 A 
ATOM     13  C   UNL     1      -0.260  12.018  19.024  0.00  0.00    +0.000 A 
ATOM     14  C   UNL     1       0.180  10.911  19.721  0.00  0.00    +0.000 A 
ENDROOT
BRANCH   1  15
ATOM     15  O   UNL     1       3.089   6.236  18.830  0.00  0.00    +0.000 OA
BRANCH  15  16
ATOM     16  C   UNL     1       3.164   5.280  19.889  0.00  0.00    +0.000 C 
BRANCH  16  17
ATOM     17  C   UNL     1       3.833   4.026  19.331  0.00  0.00    +0.000 C 
BRANCH  17  18
ATOM     18  C   UNL     1       4.709   4.349  18.116  0.00  0.00    +0.000 C 
BRANCH  18  19
ATOM     19  C   UNL     1       6.160   4.682  18.489  0.00  0.00    +0.000 C 
BRANCH  19  20
ATOM     20  N   UNL     1       6.973   5.245  17.395  0.00  0.00    +0.000 NA
BRANCH  20  22
ATOM     21  C   UNL     1       6.386   5.110  14.940  0.00  0.00    +0.000 C 
ATOM     22  C   UNL     1       6.927   4.409  16.184  0.00  0.00    +0.000 C 
ENDBRANCH  20  22
BRANCH  20  23
ATOM     23  C   UNL     1       6.629   6.661  17.155  0.00  0.00    +0.000 C 
ATOM     24  C   UNL     1       7.679   7.697  17.554  0.00  0.00    +0.000 C 
ENDBRANCH  20  23
ENDBRANCH  19  20
ENDBRANCH  18  19
ENDBRANCH  17  18
ENDBRANCH  16  17
ENDBRANCH  15  16
ENDBRANCH   1  15
BRANCH  11  25
ATOM     25  O   UNL     1      -1.790  13.988  21.677  0.00  0.00    +0.000 OA
BRANCH  25  26
ATOM     26  C   UNL     1      -2.816  14.594  20.886  0.00  0.00    +0.000 C 
BRANCH  26  27
ATOM     27  C   UNL     1      -4.144  13.918  21.241  0.00  0.00    +0.000 C 
BRANCH  27  28
ATOM     28  C   UNL     1      -5.327  14.874  21.063  0.00  0.00    +0.000 C 
BRANCH  28  29
ATOM     29  C   UNL     1      -6.562  14.498  21.896  0.00  0.00    +0.000 C 
BRANCH  29  30
ATOM     30  N   UNL     1      -6.753  13.064  22.203  0.00  0.00    +0.000 NA
BRANCH  30  31
ATOM     31  C   UNL     1      -7.757  12.504  21.276  0.00  0.00    +0.000 C 
ATOM     32  C   UNL     1      -7.407  11.135  20.700  0.00  0.00    +0.000 C 
ENDBRANCH  30  31
BRANCH  30  33
ATOM     33  C   UNL     1      -7.039  12.792  23.621  0.00  0.00    +0.000 C 
ATOM     34  C   UNL     1      -7.866  13.839  24.363  0.00  0.00    +0.000 C 
ENDBRANCH  30  33
ENDBRANCH  29  30
ENDBRANCH  28  29
ENDBRANCH  27  28
ENDBRANCH  26  27
ENDBRANCH  25  26
ENDBRANCH  11  25
TORSDOF 16
ENDMDL
MODEL 7
REMARK VINA RESULT:      -6.1      2.855      4.332
REMARK  Name = 
REMARK  20 active torsions:
REMARK  status: ('A' for Active; 'I' for Inactive)
REMARK    1  A    between atoms: C_1  and  C_2
REMARK    2  A    between atoms: C_2  and  N_3
REMARK    3  A    between atoms: N_3  and  C_4
REMARK    4  A    between atoms: N_3  and  C_6
REMARK    5  A    between atoms: C_4  and  C_5
REMARK    6  A    between atoms: C_6  and  C_7
REMARK    7  A    between atoms: C_7  and  C_8
REMARK    8  A    between atoms: C_8  and  C_9
REMARK    9  A    between atoms: C_9  and  O_10
REMARK   10  A    between atoms: O_10  and  C_11
REMARK   11  A    between atoms: C_21  and  O_22
REMARK   12  A    between atoms: O_22  and  C_23
REMARK   13  A    between atoms: C_23  and  C_24
REMARK   14  A    between atoms: C_24  and  C_25
REMARK   15  A    between atoms: C_25  and  C_26
REMARK   16  A    between atoms: C_26  and  N_27
REMARK   17  A    between atoms: N_27  and  C_28
REMARK   18  A    between atoms: N_27  and  C_30
REMARK   19  A    between atoms: C_28  and  C_29
REMARK   20  A    between atoms: C_30  and  C_31
REMARK                            x       y       z     vdW  Elec       q    Type
REMARK                         _______ _______ _______ _____ _____    ______ ____
ROOT
ATOM      1  C   UNL     1       2.314   7.607  19.150  0.00  0.00    +0.000 A 
ATOM      2  C   UNL     1       2.073   8.333  17.964  0.00  0.00    +0.000 A 
ATOM      3  C   UNL     1       1.221   9.446  17.945  0.00  0.00    +0.000 A 
ATOM      4  C   UNL     1       0.628   9.829  19.134  0.00  0.00    +0.000 A 
ATOM      5  C   UNL     1       0.899   9.105  20.307  0.00  0.00    +0.000 A 
ATOM      6  C   UNL     1       1.732   8.002  20.353  0.00  0.00    +0.000 A 
ATOM      7  C   UNL     1       0.164   9.755  21.415  0.00  0.00    +0.000 C 
ATOM      8  O   UNL     1       0.150   9.406  22.571  0.00  0.00    +0.000 OA
ATOM      9  C   UNL     1      -0.541  10.913  20.828  0.00  0.00    +0.000 A 
ATOM     10  C   UNL     1      -1.323  11.863  21.462  0.00  0.00    +0.000 A 
ATOM     11  C   UNL     1      -1.835  12.883  20.659  0.00  0.00    +0.000 A 
ATOM     12  C   UNL     1      -1.599  12.889  19.268  0.00  0.00    +0.000 A 
ATOM     13  C   UNL     1      -0.803  11.915  18.655  0.00  0.00    +0.000 A 
ATOM     14  C   UNL     1      -0.259  10.928  19.452  0.00  0.00    +0.000 A 
ENDROOT
BRANCH   1  15
ATOM     15  O   UNL     1       3.160   6.543  19.002  0.00  0.00    +0.000 OA
BRANCH  15  16
ATOM     16  C   UNL     1       3.911   6.496  17.788  0.00  0.00    +0.000 C 
BRANCH  16  17
ATOM     17  C   UNL     1       5.156   5.651  18.049  0.00  0.00    +0.000 C 
BRANCH  17  18
ATOM     18  C   UNL     1       4.940   4.675  19.211  0.00  0.00    +0.000 C 
BRANCH  18  19
ATOM     19  C   UNL     1       4.530   3.269  18.750  0.00  0.00    +0.000 C 
BRANCH  19  20
ATOM     20  N   UNL     1       3.261   2.772  19.313  0.00  0.00    +0.000 NA
BRANCH  20  22
ATOM     21  C   UNL     1       2.118   2.791  21.568  0.00  0.00    +0.000 C 
ATOM     22  C   UNL     1       2.811   3.579  20.460  0.00  0.00    +0.000 C 
ENDBRANCH  20  22
BRANCH  20  23
ATOM     23  C   UNL     1       2.239   2.613  18.259  0.00  0.00    +0.000 C 
ATOM     24  C   UNL     1       1.364   3.832  17.966  0.00  0.00    +0.000 C 
ENDBRANCH  20  23
ENDBRANCH  19  20
ENDBRANCH  18  19
ENDBRANCH  17  18
ENDBRANCH  16  17
ENDBRANCH  15  16
ENDBRANCH   1  15
BRANCH  11  25
ATOM     25  O   UNL     1      -2.591  13.925  21.110  0.00  0.00    +0.000 OA
BRANCH  25  26
ATOM     26  C   UNL     1      -2.123  15.235  20.778  0.00  0.00    +0.000 C 
BRANCH  26  27
ATOM     27  C   UNL     1      -0.936  15.555  21.691  0.00  0.00    +0.000 C 
BRANCH  27  28
ATOM     28  C   UNL     1      -0.107  16.723  21.148  0.00  0.00    +0.000 C 
BRANCH  28  29
ATOM     29  C   UNL     1       0.562  16.435  19.795  0.00  0.00    +0.000 C 
BRANCH  29  30
ATOM     30  N   UNL     1       1.904  15.816  19.829  0.00  0.00    +0.000 NA
BRANCH  30  31
ATOM     31  C   UNL     1       1.770  14.365  19.581  0.00  0.00    +0.000 C 
ATOM     32  C   UNL     1       2.261  13.472  20.715  0.00  0.00    +0.000 C 
ENDBRANCH  30  31
BRANCH  30  33
ATOM     33  C   UNL     1       2.678  16.141  21.037  0.00  0.00    +0.000 C 
ATOM     34  C   UNL     1       3.676  17.290  20.920  0.00  0.00    +0.000 C 
ENDBRANCH  30  33
ENDBRANCH  29  30
ENDBRANCH  28  29
ENDBRANCH  27  28
ENDBRANCH  26  27
ENDBRANCH  25  26
ENDBRANCH  11  25
TORSDOF 16
ENDMDL
MODEL 8
REMARK VINA RESULT:      -6.1      2.309      9.902
REMARK  Name = 
REMARK  20 active torsions:
REMARK  status: ('A' for Active; 'I' for Inactive)
REMARK    1  A    between atoms: C_1  and  C_2
REMARK    2  A    between atoms: C_2  and  N_3
REMARK    3  A    between atoms: N_3  and  C_4
REMARK    4  A    between atoms: N_3  and  C_6
REMARK    5  A    between atoms: C_4  and  C_5
REMARK    6  A    between atoms: C_6  and  C_7
REMARK    7  A    between atoms: C_7  and  C_8
REMARK    8  A    between atoms: C_8  and  C_9
REMARK    9  A    between atoms: C_9  and  O_10
REMARK   10  A    between atoms: O_10  and  C_11
REMARK   11  A    between atoms: C_21  and  O_22
REMARK   12  A    between atoms: O_22  and  C_23
REMARK   13  A    between atoms: C_23  and  C_24
REMARK   14  A    between atoms: C_24  and  C_25
REMARK   15  A    between atoms: C_25  and  C_26
REMARK   16  A    between atoms: C_26  and  N_27
REMARK   17  A    between atoms: N_27  and  C_28
REMARK   18  A    between atoms: N_27  and  C_30
REMARK   19  A    between atoms: C_28  and  C_29
REMARK   20  A    between atoms: C_30  and  C_31
REMARK                            x       y       z     vdW  Elec       q    Type
REMARK                         _______ _______ _______ _____ _____    ______ ____
ROOT
ATOM      1  C   UNL     1      -1.127  11.432  22.497  0.00  0.00    +0.000 A 
ATOM      2  C   UNL     1      -0.680  10.275  23.170  0.00  0.00    +0.000 A 
ATOM      3  C   UNL     1       0.084   9.296  22.520  0.00  0.00    +0.000 A 
ATOM      4  C   UNL     1       0.407   9.503  21.192  0.00  0.00    +0.000 A 
ATOM      5  C   UNL     1      -0.028  10.673  20.547  0.00  0.00    +0.000 A 
ATOM      6  C   UNL     1      -0.786  11.652  21.164  0.00  0.00    +0.000 A 
ATOM      7  C   UNL     1       0.489  10.641  19.161  0.00  0.00    +0.000 C 
ATOM      8  O   UNL     1       0.310  11.476  18.307  0.00  0.00    +0.000 OA
ATOM      9  C   UNL     1       1.269   9.393  19.033  0.00  0.00    +0.000 A 
ATOM     10  C   UNL     1       1.989   8.929  17.946  0.00  0.00    +0.000 A 
ATOM     11  C   UNL     1       2.673   7.726  18.122  0.00  0.00    +0.000 A 
ATOM     12  C   UNL     1       2.572   7.012  19.334  0.00  0.00    +0.000 A 
ATOM     13  C   UNL     1       1.836   7.507  20.417  0.00  0.00    +0.000 A 
ATOM     14  C   UNL     1       1.193   8.718  20.263  0.00  0.00    +0.000 A 
ENDROOT
BRANCH   1  15
ATOM     15  O   UNL     1      -1.869  12.285  23.266  0.00  0.00    +0.000 OA
BRANCH  15  16
ATOM     16  C   UNL     1      -1.278  13.553  23.556  0.00  0.00    +0.000 C 
BRANCH  16  17
ATOM     17  C   UNL     1      -1.948  14.589  22.656  0.00  0.00    +0.000 C 
BRANCH  17  18
ATOM     18  C   UNL     1      -1.172  15.910  22.643  0.00  0.00    +0.000 C 
BRANCH  18  19
ATOM     19  C   UNL     1       0.116  15.846  21.810  0.00  0.00    +0.000 C 
BRANCH  19  20
ATOM     20  N   UNL     1       0.096  16.636  20.565  0.00  0.00    +0.000 NA
BRANCH  20  22
ATOM     21  C   UNL     1       1.268  14.578  19.681  0.00  0.00    +0.000 C 
ATOM     22  C   UNL     1       0.431  15.820  19.386  0.00  0.00    +0.000 C 
ENDBRANCH  20  22
BRANCH  20  23
ATOM     23  C   UNL     1      -1.172  17.382  20.432  0.00  0.00    +0.000 C 
ATOM     24  C   UNL     1      -1.713  17.562  19.014  0.00  0.00    +0.000 C 
ENDBRANCH  20  23
ENDBRANCH  19  20
ENDBRANCH  18  19
ENDBRANCH  17  18
ENDBRANCH  16  17
ENDBRANCH  15  16
ENDBRANCH   1  15
BRANCH  11  25
ATOM     25  O   UNL     1       3.464   7.135  17.181  0.00  0.00    +0.000 OA
BRANCH  25  26
ATOM     26  C   UNL     1       4.602   6.419  17.670  0.00  0.00    +0.000 C 
BRANCH  26  27
ATOM     27  C   UNL     1       5.105   5.511  16.545  0.00  0.00    +0.000 C 
BRANCH  27  28
ATOM     28  C   UNL     1       4.635   4.066  16.735  0.00  0.00    +0.000 C 
BRANCH  28  29
ATOM     29  C   UNL     1       3.146   3.938  17.092  0.00  0.00    +0.000 C 
BRANCH  29  30
ATOM     30  N   UNL     1       2.821   3.516  18.471  0.00  0.00    +0.000 NA
BRANCH  30  31
ATOM     31  C   UNL     1       3.498   2.234  18.754  0.00  0.00    +0.000 C 
ATOM     32  C   UNL     1       4.433   2.254  19.959  0.00  0.00    +0.000 C 
ENDBRANCH  30  31
BRANCH  30  33
ATOM     33  C   UNL     1       1.379   3.502  18.765  0.00  0.00    +0.000 C 
ATOM     34  C   UNL     1       0.975   3.750  20.216  0.00  0.00    +0.000 C 
ENDBRANCH  30  33
ENDBRANCH  29  30
ENDBRANCH  28  29
ENDBRANCH  27  28
ENDBRANCH  26  27
ENDBRANCH  25  26
ENDBRANCH  11  25
TORSDOF 16
ENDMDL
MODEL 9
REMARK VINA RESULT:      -6.1      1.943      3.537
REMARK  Name = 
REMARK  20 active torsions:
REMARK  status: ('A' for Active; 'I' for Inactive)
REMARK    1  A    between atoms: C_1  and  C_2
REMARK    2  A    between atoms: C_2  and  N_3
REMARK    3  A    between atoms: N_3  and  C_4
REMARK    4  A    between atoms: N_3  and  C_6
REMARK    5  A    between atoms: C_4  and  C_5
REMARK    6  A    between atoms: C_6  and  C_7
REMARK    7  A    between atoms: C_7  and  C_8
REMARK    8  A    between atoms: C_8  and  C_9
REMARK    9  A    between atoms: C_9  and  O_10
REMARK   10  A    between atoms: O_10  and  C_11
REMARK   11  A    between atoms: C_21  and  O_22
REMARK   12  A    between atoms: O_22  and  C_23
REMARK   13  A    between atoms: C_23  and  C_24
REMARK   14  A    between atoms: C_24  and  C_25
REMARK   15  A    between atoms: C_25  and  C_26
REMARK   16  A    between atoms: C_26  and  N_27
REMARK   17  A    between atoms: N_27  and  C_28
REMARK   18  A    between atoms: N_27  and  C_30
REMARK   19  A    between atoms: C_28  and  C_29
REMARK   20  A    between atoms: C_30  and  C_31
REMARK                            x       y       z     vdW  Elec       q    Type
REMARK                         _______ _______ _______ _____ _____    ______ ____
ROOT
ATOM      1  C   UNL     1       1.071   8.911  20.698  0.00  0.00    +0.000 A 
ATOM      2  C   UNL     1       0.872   9.006  22.092  0.00  0.00    +0.000 A 
ATOM      3  C   UNL     1      -0.005   9.950  22.646  0.00  0.00    +0.000 A 
ATOM      4  C   UNL     1      -0.690  10.782  21.781  0.00  0.00    +0.000 A 
ATOM      5  C   UNL     1      -0.495  10.655  20.396  0.00  0.00    +0.000 A 
ATOM      6  C   UNL     1       0.367   9.737  19.824  0.00  0.00    +0.000 A 
ATOM      7  C   UNL     1      -1.374  11.639  19.726  0.00  0.00    +0.000 C 
ATOM      8  O   UNL     1      -1.470  11.825  18.536  0.00  0.00    +0.000 OA
ATOM      9  C   UNL     1      -2.111  12.341  20.797  0.00  0.00    +0.000 A 
ATOM     10  C   UNL     1      -3.086  13.316  20.682  0.00  0.00    +0.000 A 
ATOM     11  C   UNL     1      -3.649  13.775  21.872  0.00  0.00    +0.000 A 
ATOM     12  C   UNL     1      -3.189  13.296  23.117  0.00  0.00    +0.000 A 
ATOM     13  C   UNL     1      -2.202  12.308  23.202  0.00  0.00    +0.000 A 
ATOM     14  C   UNL     1      -1.671  11.818  22.026  0.00  0.00    +0.000 A 
ENDROOT
BRANCH   1  15
ATOM     15  O   UNL     1       1.964   7.949  20.317  0.00  0.00    +0.000 OA
BRANCH  15  16
ATOM     16  C   UNL     1       2.224   7.845  18.915  0.00  0.00    +0.000 C 
BRANCH  16  17
ATOM     17  C   UNL     1       2.438   6.367  18.596  0.00  0.00    +0.000 C 
BRANCH  17  18
ATOM     18  C   UNL     1       3.566   5.765  19.440  0.00  0.00    +0.000 C 
BRANCH  18  19
ATOM     19  C   UNL     1       4.681   5.131  18.595  0.00  0.00    +0.000 C 
BRANCH  19  20
ATOM     20  N   UNL     1       4.247   4.586  17.295  0.00  0.00    +0.000 NA
BRANCH  20  22
ATOM     21  C   UNL     1       5.942   3.818  15.584  0.00  0.00    +0.000 C 
ATOM     22  C   UNL     1       5.156   4.971  16.203  0.00  0.00    +0.000 C 
ENDBRANCH  20  22
BRANCH  20  23
ATOM     23  C   UNL     1       4.005   3.132  17.384  0.00  0.00    +0.000 C 
ATOM     24  C   UNL     1       2.550   2.688  17.522  0.00  0.00    +0.000 C 
ENDBRANCH  20  23
ENDBRANCH  19  20
ENDBRANCH  18  19
ENDBRANCH  17  18
ENDBRANCH  16  17
ENDBRANCH  15  16
ENDBRANCH   1  15
BRANCH  11  25
ATOM     25  O   UNL     1      -4.646  14.702  21.957  0.00  0.00    +0.000 OA
BRANCH  25  26
ATOM     26  C   UNL     1      -5.748  14.527  21.061  0.00  0.00    +0.000 C 
BRANCH  26  27
ATOM     27  C   UNL     1      -6.735  13.555  21.715  0.00  0.00    +0.000 C 
BRANCH  27  28
ATOM     28  C   UNL     1      -6.667  12.167  21.073  0.00  0.00    +0.000 C 
BRANCH  28  29
ATOM     29  C   UNL     1      -7.527  12.023  19.808  0.00  0.00    +0.000 C 
BRANCH  29  30
ATOM     30  N   UNL     1      -6.877  11.434  18.618  0.00  0.00    +0.000 NA
BRANCH  30  31
ATOM     31  C   UNL     1      -6.221  10.168  19.006  0.00  0.00    +0.000 C 
ATOM     32  C   UNL     1      -7.166   9.086  19.519  0.00  0.00    +0.000 C 
ENDBRANCH  30  31
BRANCH  30  33
ATOM     33  C   UNL     1      -5.989  12.365  17.903  0.00  0.00    +0.000 C 
ATOM     34  C   UNL     1      -4.928  11.739  17.002  0.00  0.00    +0.000 C 
ENDBRANCH  30  33
ENDBRANCH  29  30
ENDBRANCH  28  29
ENDBRANCH  27  28
ENDBRANCH  26  27
ENDBRANCH  25  26
ENDBRANCH  11  25
TORSDOF 16
ENDMDL
