MODEL 1
REMARK VINA RESULT:      -6.9      0.000      0.000
REMARK  Name = 
REMARK  8 active torsions:
REMARK  status: ('A' for Active; 'I' for Inactive)
REMARK    1  A    between atoms: C_1  and  O_2
REMARK    2  A    between atoms: O_2  and  C_3
REMARK    3  A    between atoms: C_6  and  C_7
REMARK    4  A    between atoms: N_8  and  O_9
REMARK    5  A    between atoms: O_9  and  C_10
REMARK    6  A    between atoms: C_10  and  C_11
REMARK    7  A    between atoms: C_18  and  O_19
REMARK    8  A    between atoms: O_19  and  C_20
REMARK                            x       y       z     vdW  Elec       q    Type
REMARK                         _______ _______ _______ _____ _____    ______ ____
ROOT
ATOM      1  C   UNL     1       7.394   6.862  17.572  0.00  0.00    +0.000 C 
ATOM      2  N   UNL     1       7.088   8.075  17.235  0.00  0.00    +0.000 NA
ENDROOT
BRANCH   1   6
ATOM      3  C   UNL     1       4.502   3.723  17.777  0.00  0.00    +0.000 A 
ATOM      4  C   UNL     1       4.996   4.309  18.944  0.00  0.00    +0.000 A 
ATOM      5  C   UNL     1       5.932   5.340  18.873  0.00  0.00    +0.000 A 
ATOM      6  C   UNL     1       6.366   5.802  17.626  0.00  0.00    +0.000 A 
ATOM      7  C   UNL     1       5.864   5.240  16.442  0.00  0.00    +0.000 A 
ATOM      8  C   UNL     1       4.941   4.189  16.532  0.00  0.00    +0.000 A 
BRANCH   3  10
ATOM      9  C   UNL     1       2.231   3.076  18.078  0.00  0.00    +0.000 C 
ATOM     10  O   UNL     1       3.603   2.713  17.986  0.00  0.00    +0.000 OA
ENDBRANCH   3  10
BRANCH   7  11
ATOM     11  O   UNL     1       6.339   5.749  15.260  0.00  0.00    +0.000 OA
ATOM     12  C   UNL     1       6.995   4.853  14.371  0.00  0.00    +0.000 C 
ENDBRANCH   7  11
ENDBRANCH   1   6
BRANCH   2  13
ATOM     13  O   UNL     1       8.233   8.883  17.330  0.00  0.00    +0.000 OA
BRANCH  13  14
ATOM     14  C   UNL     1       8.600   8.973  18.709  0.00  0.00    +0.000 C 
BRANCH  14  15
ATOM     15  C   UNL     1       9.203  10.325  18.993  0.00  0.00    +0.000 A 
ATOM     16  C   UNL     1       9.212  11.316  18.000  0.00  0.00    +0.000 A 
ATOM     17  C   UNL     1       9.748  12.579  18.262  0.00  0.00    +0.000 A 
ATOM     18  C   UNL     1      10.280  12.855  19.520  0.00  0.00    +0.000 A 
ATOM     19 BR   UNL     1      11.001  14.565  19.879  0.00  0.00    +0.000 Br
ATOM     20  C   UNL     1      10.284  11.881  20.515  0.00  0.00    +0.000 A 
ATOM     21  C   UNL     1       9.748  10.618  20.252  0.00  0.00    +0.000 A 
ENDBRANCH  14  15
ENDBRANCH  13  14
ENDBRANCH   2  13
TORSDOF 6
ENDMDL
MODEL 2
REMARK VINA RESULT:      -6.8      1.230      1.636
REMARK  Name = 
REMARK  8 active torsions:
REMARK  status: ('A' for Active; 'I' for Inactive)
REMARK    1  A    between atoms: C_1  and  O_2
REMARK    2  A    between atoms: O_2  and  C_3
REMARK    3  A    between atoms: C_6  and  C_7
REMARK    4  A    between atoms: N_8  and  O_9
REMARK    5  A    between atoms: O_9  and  C_10
REMARK    6  A    between atoms: C_10  and  C_11
REMARK    7  A    between atoms: C_18  and  O_19
REMARK    8  A    between atoms: O_19  and  C_20
REMARK                            x       y       z     vdW  Elec       q    Type
REMARK                         _______ _______ _______ _____ _____    ______ ____
ROOT
ATOM      1  C   UNL     1       6.676   6.514  17.299  0.00  0.00    +0.000 C 
ATOM      2  N   UNL     1       6.721   7.771  16.987  0.00  0.00    +0.000 NA
ENDROOT
BRANCH   1   6
ATOM      3  C   UNL     1       2.976   4.400  17.604  0.00  0.00    +0.000 A 
ATOM      4  C   UNL     1       3.121   5.662  18.182  0.00  0.00    +0.000 A 
ATOM      5  C   UNL     1       4.326   6.354  18.072  0.00  0.00    +0.000 A 
ATOM      6  C   UNL     1       5.392   5.787  17.364  0.00  0.00    +0.000 A 
ATOM      7  C   UNL     1       5.258   4.529  16.757  0.00  0.00    +0.000 A 
ATOM      8  C   UNL     1       4.046   3.838  16.897  0.00  0.00    +0.000 A 
BRANCH   3  10
ATOM      9  C   UNL     1       1.733   2.497  18.314  0.00  0.00    +0.000 C 
ATOM     10  O   UNL     1       1.751   3.823  17.799  0.00  0.00    +0.000 OA
ENDBRANCH   3  10
BRANCH   7  11
ATOM     11  O   UNL     1       6.348   4.044  16.081  0.00  0.00    +0.000 OA
ATOM     12  C   UNL     1       6.245   3.914  14.669  0.00  0.00    +0.000 C 
ENDBRANCH   7  11
ENDBRANCH   1   6
BRANCH   2  13
ATOM     13  O   UNL     1       8.050   8.219  17.064  0.00  0.00    +0.000 OA
BRANCH  13  14
ATOM     14  C   UNL     1       8.370   8.423  18.442  0.00  0.00    +0.000 C 
BRANCH  14  15
ATOM     15  C   UNL     1       8.811   9.847  18.662  0.00  0.00    +0.000 A 
ATOM     16  C   UNL     1       9.464  10.208  19.851  0.00  0.00    +0.000 A 
ATOM     17  C   UNL     1       9.897  11.519  20.053  0.00  0.00    +0.000 A 
ATOM     18  C   UNL     1       9.676  12.478  19.067  0.00  0.00    +0.000 A 
ATOM     19 BR   UNL     1      10.265  14.254  19.336  0.00  0.00    +0.000 Br
ATOM     20  C   UNL     1       9.024  12.139  17.884  0.00  0.00    +0.000 A 
ATOM     21  C   UNL     1       8.592  10.826  17.683  0.00  0.00    +0.000 A 
ENDBRANCH  14  15
ENDBRANCH  13  14
ENDBRANCH   2  13
TORSDOF 6
ENDMDL
MODEL 3
REMARK VINA RESULT:      -6.7      6.922      8.680
REMARK  Name = 
REMARK  8 active torsions:
REMARK  status: ('A' for Active; 'I' for Inactive)
REMARK    1  A    between atoms: C_1  and  O_2
REMARK    2  A    between atoms: O_2  and  C_3
REMARK    3  A    between atoms: C_6  and  C_7
REMARK    4  A    between atoms: N_8  and  O_9
REMARK    5  A    between atoms: O_9  and  C_10
REMARK    6  A    between atoms: C_10  and  C_11
REMARK    7  A    between atoms: C_18  and  O_19
REMARK    8  A    between atoms: O_19  and  C_20
REMARK                            x       y       z     vdW  Elec       q    Type
REMARK                         _______ _______ _______ _____ _____    ______ ____
ROOT
ATOM      1  C   UNL     1       2.145   7.694  17.900  0.00  0.00    +0.000 C 
ATOM      2  N   UNL     1       2.198   8.968  18.131  0.00  0.00    +0.000 NA
ENDROOT
BRANCH   1   6
ATOM      3  C   UNL     1       5.459   5.095  18.615  0.00  0.00    +0.000 A 
ATOM      4  C   UNL     1       5.450   5.943  17.507  0.00  0.00    +0.000 A 
ATOM      5  C   UNL     1       4.373   6.798  17.282  0.00  0.00    +0.000 A 
ATOM      6  C   UNL     1       3.300   6.817  18.180  0.00  0.00    +0.000 A 
ATOM      7  C   UNL     1       3.301   5.987  19.312  0.00  0.00    +0.000 A 
ATOM      8  C   UNL     1       4.383   5.118  19.511  0.00  0.00    +0.000 A 
BRANCH   3  10
ATOM      9  C   UNL     1       7.720   4.700  17.982  0.00  0.00    +0.000 C 
ATOM     10  O   UNL     1       6.566   4.297  18.710  0.00  0.00    +0.000 OA
ENDBRANCH   3  10
BRANCH   7  11
ATOM     11  O   UNL     1       2.214   6.066  20.144  0.00  0.00    +0.000 OA
ATOM     12  C   UNL     1       1.537   4.857  20.464  0.00  0.00    +0.000 C 
ENDBRANCH   7  11
ENDBRANCH   1   6
BRANCH   2  13
ATOM     13  O   UNL     1       0.996   9.564  17.714  0.00  0.00    +0.000 OA
BRANCH  13  14
ATOM     14  C   UNL     1       0.355  10.122  18.863  0.00  0.00    +0.000 C 
BRANCH  14  15
ATOM     15  C   UNL     1      -1.051  10.539  18.517  0.00  0.00    +0.000 A 
ATOM     16  C   UNL     1      -1.729  11.468  19.319  0.00  0.00    +0.000 A 
ATOM     17  C   UNL     1      -3.023  11.878  18.991  0.00  0.00    +0.000 A 
ATOM     18  C   UNL     1      -3.646  11.356  17.860  0.00  0.00    +0.000 A 
ATOM     19 BR   UNL     1      -5.397  11.913  17.412  0.00  0.00    +0.000 Br
ATOM     20  C   UNL     1      -2.989  10.429  17.055  0.00  0.00    +0.000 A 
ATOM     21  C   UNL     1      -1.695  10.020  17.384  0.00  0.00    +0.000 A 
ENDBRANCH  14  15
ENDBRANCH  13  14
ENDBRANCH   2  13
TORSDOF 6
ENDMDL
MODEL 4
REMARK VINA RESULT:      -6.7      0.761      1.286
REMARK  Name = 
REMARK  8 active torsions:
REMARK  status: ('A' for Active; 'I' for Inactive)
REMARK    1  A    between atoms: C_1  and  O_2
REMARK    2  A    between atoms: O_2  and  C_3
REMARK    3  A    between atoms: C_6  and  C_7
REMARK    4  A    between atoms: N_8  and  O_9
REMARK    5  A    between atoms: O_9  and  C_10
REMARK    6  A    between atoms: C_10  and  C_11
REMARK    7  A    between atoms: C_18  and  O_19
REMARK    8  A    between atoms: O_19  and  C_20
REMARK                            x       y       z     vdW  Elec       q    Type
REMARK                         _______ _______ _______ _____ _____    ______ ____
ROOT
ATOM      1  C   UNL     1       7.180   6.778  17.531  0.00  0.00    +0.000 C 
ATOM      2  N   UNL     1       7.840   7.035  18.616  0.00  0.00    +0.000 NA
ENDROOT
BRANCH   1   6
ATOM      3  C   UNL     1       4.308   3.616  17.470  0.00  0.00    +0.000 A 
ATOM      4  C   UNL     1       4.722   4.173  18.680  0.00  0.00    +0.000 A 
ATOM      5  C   UNL     1       5.651   5.212  18.697  0.00  0.00    +0.000 A 
ATOM      6  C   UNL     1       6.161   5.710  17.492  0.00  0.00    +0.000 A 
ATOM      7  C   UNL     1       5.740   5.177  16.264  0.00  0.00    +0.000 A 
ATOM      8  C   UNL     1       4.821   4.118  16.267  0.00  0.00    +0.000 A 
BRANCH   3  10
ATOM      9  C   UNL     1       3.273   2.000  18.880  0.00  0.00    +0.000 C 
ATOM     10  O   UNL     1       3.406   2.595  17.594  0.00  0.00    +0.000 OA
ENDBRANCH   3  10
BRANCH   7  11
ATOM     11  O   UNL     1       6.284   5.720  15.129  0.00  0.00    +0.000 OA
ATOM     12  C   UNL     1       6.962   4.844  14.237  0.00  0.00    +0.000 C 
ENDBRANCH   7  11
ENDBRANCH   1   6
BRANCH   2  13
ATOM     13  O   UNL     1       8.783   8.043  18.354  0.00  0.00    +0.000 OA
BRANCH  13  14
ATOM     14  C   UNL     1       8.076   9.222  17.961  0.00  0.00    +0.000 C 
BRANCH  14  15
ATOM     15  C   UNL     1       8.779  10.445  18.492  0.00  0.00    +0.000 A 
ATOM     16  C   UNL     1       9.457  10.391  19.720  0.00  0.00    +0.000 A 
ATOM     17  C   UNL     1      10.131  11.513  20.207  0.00  0.00    +0.000 A 
ATOM     18  C   UNL     1      10.127  12.695  19.470  0.00  0.00    +0.000 A 
ATOM     19 BR   UNL     1      11.043  14.213  20.126  0.00  0.00    +0.000 Br
ATOM     20  C   UNL     1       9.454  12.766  18.253  0.00  0.00    +0.000 A 
ATOM     21  C   UNL     1       8.781  11.644  17.766  0.00  0.00    +0.000 A 
ENDBRANCH  14  15
ENDBRANCH  13  14
ENDBRANCH   2  13
TORSDOF 6
ENDMDL
MODEL 5
REMARK VINA RESULT:      -6.7      6.970      8.691
REMARK  Name = 
REMARK  8 active torsions:
REMARK  status: ('A' for Active; 'I' for Inactive)
REMARK    1  A    between atoms: C_1  and  O_2
REMARK    2  A    between atoms: O_2  and  C_3
REMARK    3  A    between atoms: C_6  and  C_7
REMARK    4  A    between atoms: N_8  and  O_9
REMARK    5  A    between atoms: O_9  and  C_10
REMARK    6  A    between atoms: C_10  and  C_11
REMARK    7  A    between atoms: C_18  and  O_19
REMARK    8  A    between atoms: O_19  and  C_20
REMARK                            x       y       z     vdW  Elec       q    Type
REMARK                         _______ _______ _______ _____ _____    ______ ____
ROOT
ATOM      1  C   UNL     1       2.117   7.624  17.842  0.00  0.00    +0.000 C 
ATOM      2  N   UNL     1       2.086   8.893  18.104  0.00  0.00    +0.000 NA
ENDROOT
BRANCH   1   6
ATOM      3  C   UNL     1       5.551   5.204  18.621  0.00  0.00    +0.000 A 
ATOM      4  C   UNL     1       5.507   6.031  17.498  0.00  0.00    +0.000 A 
ATOM      5  C   UNL     1       4.390   6.828  17.252  0.00  0.00    +0.000 A 
ATOM      6  C   UNL     1       3.312   6.810  18.144  0.00  0.00    +0.000 A 
ATOM      7  C   UNL     1       3.347   6.002  19.291  0.00  0.00    +0.000 A 
ATOM      8  C   UNL     1       4.470   5.190  19.510  0.00  0.00    +0.000 A 
BRANCH   3  10
ATOM      9  C   UNL     1       7.642   4.565  17.679  0.00  0.00    +0.000 C 
ATOM     10  O   UNL     1       6.696   4.464  18.736  0.00  0.00    +0.000 OA
ENDBRANCH   3  10
BRANCH   7  11
ATOM     11  O   UNL     1       2.253   6.042  20.116  0.00  0.00    +0.000 OA
ATOM     12  C   UNL     1       1.573   4.820  20.371  0.00  0.00    +0.000 C 
ENDBRANCH   7  11
ENDBRANCH   1   6
BRANCH   2  13
ATOM     13  O   UNL     1       0.866   9.427  17.658  0.00  0.00    +0.000 OA
BRANCH  13  14
ATOM     14  C   UNL     1       0.392  10.341  18.649  0.00  0.00    +0.000 C 
BRANCH  14  15
ATOM     15  C   UNL     1      -1.055  10.674  18.392  0.00  0.00    +0.000 A 
ATOM     16  C   UNL     1      -1.733  10.086  17.314  0.00  0.00    +0.000 A 
ATOM     17  C   UNL     1      -3.081  10.370  17.083  0.00  0.00    +0.000 A 
ATOM     18  C   UNL     1      -3.755  11.248  17.929  0.00  0.00    +0.000 A 
ATOM     19 BR   UNL     1      -5.581  11.631  17.620  0.00  0.00    +0.000 Br
ATOM     20  C   UNL     1      -3.096  11.845  19.000  0.00  0.00    +0.000 A 
ATOM     21  C   UNL     1      -1.748  11.559  19.230  0.00  0.00    +0.000 A 
ENDBRANCH  14  15
ENDBRANCH  13  14
ENDBRANCH   2  13
TORSDOF 6
ENDMDL
MODEL 6
REMARK VINA RESULT:      -6.7      6.120      7.429
REMARK  Name = 
REMARK  8 active torsions:
REMARK  status: ('A' for Active; 'I' for Inactive)
REMARK    1  A    between atoms: C_1  and  O_2
REMARK    2  A    between atoms: O_2  and  C_3
REMARK    3  A    between atoms: C_6  and  C_7
REMARK    4  A    between atoms: N_8  and  O_9
REMARK    5  A    between atoms: O_9  and  C_10
REMARK    6  A    between atoms: C_10  and  C_11
REMARK    7  A    between atoms: C_18  and  O_19
REMARK    8  A    between atoms: O_19  and  C_20
REMARK                            x       y       z     vdW  Elec       q    Type
REMARK                         _______ _______ _______ _____ _____    ______ ____
ROOT
ATOM      1  C   UNL     1       2.561   7.213  18.283  0.00  0.00    +0.000 C 
ATOM      2  N   UNL     1       2.479   7.326  19.571  0.00  0.00    +0.000 NA
ENDROOT
BRANCH   1   6
ATOM      3  C   UNL     1       5.118   4.375  16.369  0.00  0.00    +0.000 A 
ATOM      4  C   UNL     1       5.467   5.726  16.414  0.00  0.00    +0.000 A 
ATOM      5  C   UNL     1       4.635   6.648  17.048  0.00  0.00    +0.000 A 
ATOM      6  C   UNL     1       3.452   6.215  17.657  0.00  0.00    +0.000 A 
ATOM      7  C   UNL     1       3.096   4.857  17.642  0.00  0.00    +0.000 A 
ATOM      8  C   UNL     1       3.933   3.948  16.981  0.00  0.00    +0.000 A 
BRANCH   3  10
ATOM      9  C   UNL     1       6.305   3.925  14.355  0.00  0.00    +0.000 C 
ATOM     10  O   UNL     1       6.011   3.581  15.704  0.00  0.00    +0.000 OA
ENDBRANCH   3  10
BRANCH   7  11
ATOM     11  O   UNL     1       1.923   4.514  18.262  0.00  0.00    +0.000 OA
ATOM     12  C   UNL     1       1.978   3.518  19.276  0.00  0.00    +0.000 C 
ENDBRANCH   7  11
ENDBRANCH   1   6
BRANCH   2  13
ATOM     13  O   UNL     1       1.615   8.387  19.887  0.00  0.00    +0.000 OA
BRANCH  13  14
ATOM     14  C   UNL     1       1.168   8.209  21.233  0.00  0.00    +0.000 C 
BRANCH  14  15
ATOM     15  C   UNL     1       0.461   9.453  21.709  0.00  0.00    +0.000 A 
ATOM     16  C   UNL     1       0.663  10.675  21.050  0.00  0.00    +0.000 A 
ATOM     17  C   UNL     1      -0.006  11.826  21.468  0.00  0.00    +0.000 A 
ATOM     18  C   UNL     1      -0.879  11.761  22.552  0.00  0.00    +0.000 A 
ATOM     19 BR   UNL     1      -1.790  13.318  23.118  0.00  0.00    +0.000 Br
ATOM     20  C   UNL     1      -1.088  10.558  23.221  0.00  0.00    +0.000 A 
ATOM     21  C   UNL     1      -0.418   9.406  22.801  0.00  0.00    +0.000 A 
ENDBRANCH  14  15
ENDBRANCH  13  14
ENDBRANCH   2  13
TORSDOF 6
ENDMDL
MODEL 7
REMARK VINA RESULT:      -6.6      6.058      7.436
REMARK  Name = 
REMARK  8 active torsions:
REMARK  status: ('A' for Active; 'I' for Inactive)
REMARK    1  A    between atoms: C_1  and  O_2
REMARK    2  A    between atoms: O_2  and  C_3
REMARK    3  A    between atoms: C_6  and  C_7
REMARK    4  A    between atoms: N_8  and  O_9
REMARK    5  A    between atoms: O_9  and  C_10
REMARK    6  A    between atoms: C_10  and  C_11
REMARK    7  A    between atoms: C_18  and  O_19
REMARK    8  A    between atoms: O_19  and  C_20
REMARK                            x       y       z     vdW  Elec       q    Type
REMARK                         _______ _______ _______ _____ _____    ______ ____
ROOT
ATOM      1  C   UNL     1       2.617   7.421  18.202  0.00  0.00    +0.000 C 
ATOM      2  N   UNL     1       2.450   8.567  17.622  0.00  0.00    +0.000 NA
ENDROOT
BRANCH   1   6
ATOM      3  C   UNL     1       5.117   4.469  16.388  0.00  0.00    +0.000 A 
ATOM      4  C   UNL     1       5.469   5.819  16.344  0.00  0.00    +0.000 A 
ATOM      5  C   UNL     1       4.656   6.779  16.946  0.00  0.00    +0.000 A 
ATOM      6  C   UNL     1       3.490   6.385  17.612  0.00  0.00    +0.000 A 
ATOM      7  C   UNL     1       3.131   5.030  17.685  0.00  0.00    +0.000 A 
ATOM      8  C   UNL     1       3.949   4.081  17.055  0.00  0.00    +0.000 A 
BRANCH   3  10
ATOM      9  C   UNL     1       6.307   3.944  14.394  0.00  0.00    +0.000 C 
ATOM     10  O   UNL     1       5.991   3.635  15.746  0.00  0.00    +0.000 OA
ENDBRANCH   3  10
BRANCH   7  11
ATOM     11  O   UNL     1       1.975   4.727  18.356  0.00  0.00    +0.000 OA
ATOM     12  C   UNL     1       1.525   3.378  18.320  0.00  0.00    +0.000 C 
ENDBRANCH   7  11
ENDBRANCH   1   6
BRANCH   2  13
ATOM     13  O   UNL     1       1.527   9.327  18.359  0.00  0.00    +0.000 OA
BRANCH  13  14
ATOM     14  C   UNL     1       1.484   8.807  19.690  0.00  0.00    +0.000 C 
BRANCH  14  15
ATOM     15  C   UNL     1       0.561   9.642  20.539  0.00  0.00    +0.000 A 
ATOM     16  C   UNL     1       0.474   9.413  21.921  0.00  0.00    +0.000 A 
ATOM     17  C   UNL     1      -0.360  10.197  22.719  0.00  0.00    +0.000 A 
ATOM     18  C   UNL     1      -1.115  11.213  22.138  0.00  0.00    +0.000 A 
ATOM     19 BR   UNL     1      -2.243  12.280  23.217  0.00  0.00    +0.000 Br
ATOM     20  C   UNL     1      -1.045  11.451  20.767  0.00  0.00    +0.000 A 
ATOM     21  C   UNL     1      -0.210  10.665  19.970  0.00  0.00    +0.000 A 
ENDBRANCH  14  15
ENDBRANCH  13  14
ENDBRANCH   2  13
TORSDOF 6
ENDMDL
MODEL 8
REMARK VINA RESULT:      -6.6      6.485      8.109
REMARK  Name = 
REMARK  8 active torsions:
REMARK  status: ('A' for Active; 'I' for Inactive)
REMARK    1  A    between atoms: C_1  and  O_2
REMARK    2  A    between atoms: O_2  and  C_3
REMARK    3  A    between atoms: C_6  and  C_7
REMARK    4  A    between atoms: N_8  and  O_9
REMARK    5  A    between atoms: O_9  and  C_10
REMARK    6  A    between atoms: C_10  and  C_11
REMARK    7  A    between atoms: C_18  and  O_19
REMARK    8  A    between atoms: O_19  and  C_20
REMARK                            x       y       z     vdW  Elec       q    Type
REMARK                         _______ _______ _______ _____ _____    ______ ____
ROOT
ATOM      1  C   UNL     1       2.774   7.199  18.441  0.00  0.00    +0.000 C 
ATOM      2  N   UNL     1       2.189   8.199  17.861  0.00  0.00    +0.000 NA
ENDROOT
BRANCH   1   6
ATOM      3  C   UNL     1       5.290   4.607  16.160  0.00  0.00    +0.000 A 
ATOM      4  C   UNL     1       5.467   5.990  16.110  0.00  0.00    +0.000 A 
ATOM      5  C   UNL     1       4.652   6.833  16.864  0.00  0.00    +0.000 A 
ATOM      6  C   UNL     1       3.660   6.289  17.687  0.00  0.00    +0.000 A 
ATOM      7  C   UNL     1       3.481   4.899  17.767  0.00  0.00    +0.000 A 
ATOM      8  C   UNL     1       4.295   4.068  16.985  0.00  0.00    +0.000 A 
BRANCH   3  10
ATOM      9  C   UNL     1       5.953   4.000  13.955  0.00  0.00    +0.000 C 
ATOM     10  O   UNL     1       6.143   3.896  15.361  0.00  0.00    +0.000 OA
ENDBRANCH   3  10
BRANCH   7  11
ATOM     11  O   UNL     1       2.488   4.445  18.597  0.00  0.00    +0.000 OA
ATOM     12  C   UNL     1       1.461   3.646  18.024  0.00  0.00    +0.000 C 
ENDBRANCH   7  11
ENDBRANCH   1   6
BRANCH   2  13
ATOM     13  O   UNL     1       1.362   8.853  18.789  0.00  0.00    +0.000 OA
BRANCH  13  14
ATOM     14  C   UNL     1       1.199  10.207  18.363  0.00  0.00    +0.000 C 
BRANCH  14  15
ATOM     15  C   UNL     1      -0.267  10.557  18.314  0.00  0.00    +0.000 A 
ATOM     16  C   UNL     1      -1.146   9.801  17.524  0.00  0.00    +0.000 A 
ATOM     17  C   UNL     1      -2.509  10.104  17.492  0.00  0.00    +0.000 A 
ATOM     18  C   UNL     1      -2.998  11.167  18.248  0.00  0.00    +0.000 A 
ATOM     19 BR   UNL     1      -4.843  11.576  18.208  0.00  0.00    +0.000 Br
ATOM     20  C   UNL     1      -2.138  11.931  19.032  0.00  0.00    +0.000 A 
ATOM     21  C   UNL     1      -0.775  11.627  19.064  0.00  0.00    +0.000 A 
ENDBRANCH  14  15
ENDBRANCH  13  14
ENDBRANCH   2  13
TORSDOF 6
ENDMDL
MODEL 9
REMARK VINA RESULT:      -6.5      1.842      2.458
REMARK  Name = 
REMARK  8 active torsions:
REMARK  status: ('A' for Active; 'I' for Inactive)
REMARK    1  A    between atoms: C_1  and  O_2
REMARK    2  A    between atoms: O_2  and  C_3
REMARK    3  A    between atoms: C_6  and  C_7
REMARK    4  A    between atoms: N_8  and  O_9
REMARK    5  A    between atoms: O_9  and  C_10
REMARK    6  A    between atoms: C_10  and  C_11
REMARK    7  A    between atoms: C_18  and  O_19
REMARK    8  A    between atoms: O_19  and  C_20
REMARK                            x       y       z     vdW  Elec       q    Type
REMARK                         _______ _______ _______ _____ _____    ______ ____
ROOT
ATOM      1  C   UNL     1       6.146   7.268  17.617  0.00  0.00    +0.000 C 
ATOM      2  N   UNL     1       7.260   7.129  16.970  0.00  0.00    +0.000 NA
ENDROOT
BRANCH   1   6
ATOM      3  C   UNL     1       3.269   4.110  17.605  0.00  0.00    +0.000 A 
ATOM      4  C   UNL     1       4.633   3.826  17.529  0.00  0.00    +0.000 A 
ATOM      5  C   UNL     1       5.570   4.857  17.544  0.00  0.00    +0.000 A 
ATOM      6  C   UNL     1       5.142   6.185  17.652  0.00  0.00    +0.000 A 
ATOM      7  C   UNL     1       3.776   6.490  17.751  0.00  0.00    +0.000 A 
ATOM      8  C   UNL     1       2.846   5.441  17.713  0.00  0.00    +0.000 A 
BRANCH   3  10
ATOM      9  C   UNL     1       2.987   1.793  18.077  0.00  0.00    +0.000 C 
ATOM     10  O   UNL     1       2.456   3.010  17.565  0.00  0.00    +0.000 OA
ENDBRANCH   3  10
BRANCH   7  11
ATOM     11  O   UNL     1       3.438   7.815  17.855  0.00  0.00    +0.000 OA
ATOM     12  C   UNL     1       2.137   8.129  18.335  0.00  0.00    +0.000 C 
ENDBRANCH   7  11
ENDBRANCH   1   6
BRANCH   2  13
ATOM     13  O   UNL     1       7.993   8.325  17.049  0.00  0.00    +0.000 OA
BRANCH  13  14
ATOM     14  C   UNL     1       8.417   8.498  18.403  0.00  0.00    +0.000 C 
BRANCH  14  15
ATOM     15  C   UNL     1       8.846   9.925  18.629  0.00  0.00    +0.000 A 
ATOM     16  C   UNL     1       9.549  10.273  19.792  0.00  0.00    +0.000 A 
ATOM     17  C   UNL     1       9.972  11.588  19.999  0.00  0.00    +0.000 A 
ATOM     18  C   UNL     1       9.690  12.561  19.043  0.00  0.00    +0.000 A 
ATOM     19 BR   UNL     1      10.265  14.341  19.318  0.00  0.00    +0.000 Br
ATOM     20  C   UNL     1       8.988  12.233  17.885  0.00  0.00    +0.000 A 
ATOM     21  C   UNL     1       8.566  10.918  17.680  0.00  0.00    +0.000 A 
ENDBRANCH  14  15
ENDBRANCH  13  14
ENDBRANCH   2  13
TORSDOF 6
ENDMDL
