MODEL 1
REMARK VINA RESULT:      -4.0      0.000      0.000
REMARK  Name = 
REMARK  1 active torsions:
REMARK  status: ('A' for Active; 'I' for Inactive)
REMARK    1  A    between atoms: C_2  and  C_4
REMARK                            x       y       z     vdW  Elec       q    Type
REMARK                         _______ _______ _______ _____ _____    ______ ____
ROOT
ATOM      1  C   UNL     1       5.604   4.885  15.133  0.00  0.00    +0.000 C 
ATOM      2  F   UNL     1       5.216   4.284  13.981  0.00  0.00    +0.000 F 
ATOM      3  F   UNL     1       5.082   4.185  16.171  0.00  0.00    +0.000 F 
ATOM      4  F   UNL     1       5.078   6.135  15.157  0.00  0.00    +0.000 F 
ENDROOT
BRANCH   1   6
ATOM      5  O   UNL     1       7.754   4.512  16.286  0.00  0.00    +0.000 OA
ATOM      6  C   UNL     1       7.146   4.948  15.251  0.00  0.00    +0.000 C 
ATOM      7  O   UNL     1       7.855   5.446  14.310  0.00  0.00    +0.000 OA
ENDBRANCH   1   6
TORSDOF 1
ENDMDL
MODEL 2
REMARK VINA RESULT:      -3.9      1.220      1.888
REMARK  Name = 
REMARK  1 active torsions:
REMARK  status: ('A' for Active; 'I' for Inactive)
REMARK    1  A    between atoms: C_2  and  C_4
REMARK                            x       y       z     vdW  Elec       q    Type
REMARK                         _______ _______ _______ _____ _____    ______ ____
ROOT
ATOM      1  C   UNL     1       6.214   4.282  15.203  0.00  0.00    +0.000 C 
ATOM      2  F   UNL     1       5.183   5.126  14.955  0.00  0.00    +0.000 F 
ATOM      3  F   UNL     1       6.773   3.937  14.016  0.00  0.00    +0.000 F 
ATOM      4  F   UNL     1       5.713   3.160  15.778  0.00  0.00    +0.000 F 
ENDROOT
BRANCH   1   6
ATOM      5  O   UNL     1       7.998   4.229  16.907  0.00  0.00    +0.000 OA
ATOM      6  C   UNL     1       7.273   4.932  16.125  0.00  0.00    +0.000 C 
ATOM      7  O   UNL     1       7.447   6.199  16.132  0.00  0.00    +0.000 OA
ENDBRANCH   1   6
TORSDOF 1
ENDMDL
MODEL 3
REMARK VINA RESULT:      -3.9      1.290      2.004
REMARK  Name = 
REMARK  1 active torsions:
REMARK  status: ('A' for Active; 'I' for Inactive)
REMARK    1  A    between atoms: C_2  and  C_4
REMARK                            x       y       z     vdW  Elec       q    Type
REMARK                         _______ _______ _______ _____ _____    ______ ____
ROOT
ATOM      1  C   UNL     1       6.316   4.315  15.161  0.00  0.00    +0.000 C 
ATOM      2  F   UNL     1       5.958   3.066  15.549  0.00  0.00    +0.000 F 
ATOM      3  F   UNL     1       5.191   5.066  15.061  0.00  0.00    +0.000 F 
ATOM      4  F   UNL     1       6.881   4.230  13.930  0.00  0.00    +0.000 F 
ENDROOT
BRANCH   1   6
ATOM      5  O   UNL     1       7.465   6.226  16.217  0.00  0.00    +0.000 OA
ATOM      6  C   UNL     1       7.304   4.960  16.161  0.00  0.00    +0.000 C 
ATOM      7  O   UNL     1       7.993   4.237  16.960  0.00  0.00    +0.000 OA
ENDBRANCH   1   6
TORSDOF 1
ENDMDL
MODEL 4
REMARK VINA RESULT:      -3.9      1.139      1.524
REMARK  Name = 
REMARK  1 active torsions:
REMARK  status: ('A' for Active; 'I' for Inactive)
REMARK    1  A    between atoms: C_2  and  C_4
REMARK                            x       y       z     vdW  Elec       q    Type
REMARK                         _______ _______ _______ _____ _____    ______ ____
ROOT
ATOM      1  C   UNL     1       5.859   4.293  15.643  0.00  0.00    +0.000 C 
ATOM      2  F   UNL     1       6.146   3.513  14.572  0.00  0.00    +0.000 F 
ATOM      3  F   UNL     1       5.235   3.525  16.571  0.00  0.00    +0.000 F 
ATOM      4  F   UNL     1       4.996   5.260  15.243  0.00  0.00    +0.000 F 
ENDROOT
BRANCH   1   6
ATOM      5  O   UNL     1       7.436   6.151  16.032  0.00  0.00    +0.000 OA
ATOM      6  C   UNL     1       7.136   4.928  16.244  0.00  0.00    +0.000 C 
ATOM      7  O   UNL     1       7.932   4.237  16.968  0.00  0.00    +0.000 OA
ENDBRANCH   1   6
TORSDOF 1
ENDMDL
MODEL 5
REMARK VINA RESULT:      -3.9      1.358      1.434
REMARK  Name = 
REMARK  1 active torsions:
REMARK  status: ('A' for Active; 'I' for Inactive)
REMARK    1  A    between atoms: C_2  and  C_4
REMARK                            x       y       z     vdW  Elec       q    Type
REMARK                         _______ _______ _______ _____ _____    ______ ____
ROOT
ATOM      1  C   UNL     1       6.431   4.606  14.957  0.00  0.00    +0.000 C 
ATOM      2  F   UNL     1       7.069   4.700  13.764  0.00  0.00    +0.000 F 
ATOM      3  F   UNL     1       6.117   3.303  15.166  0.00  0.00    +0.000 F 
ATOM      4  F   UNL     1       5.278   5.314  14.877  0.00  0.00    +0.000 F 
ENDROOT
BRANCH   1   6
ATOM      5  O   UNL     1       7.910   4.344  16.915  0.00  0.00    +0.000 OA
ATOM      6  C   UNL     1       7.309   5.137  16.115  0.00  0.00    +0.000 C 
ATOM      7  O   UNL     1       7.451   6.394  16.306  0.00  0.00    +0.000 OA
ENDBRANCH   1   6
TORSDOF 1
ENDMDL
MODEL 6
REMARK VINA RESULT:      -3.9      1.357      2.208
REMARK  Name = 
REMARK  1 active torsions:
REMARK  status: ('A' for Active; 'I' for Inactive)
REMARK    1  A    between atoms: C_2  and  C_4
REMARK                            x       y       z     vdW  Elec       q    Type
REMARK                         _______ _______ _______ _____ _____    ______ ____
ROOT
ATOM      1  C   UNL     1       6.412   4.590  14.997  0.00  0.00    +0.000 C 
ATOM      2  F   UNL     1       5.243   5.271  14.908  0.00  0.00    +0.000 F 
ATOM      3  F   UNL     1       7.053   4.694  13.806  0.00  0.00    +0.000 F 
ATOM      4  F   UNL     1       6.124   3.282  15.212  0.00  0.00    +0.000 F 
ENDROOT
BRANCH   1   6
ATOM      5  O   UNL     1       7.466   6.393  16.311  0.00  0.00    +0.000 OA
ATOM      6  C   UNL     1       7.305   5.138  16.135  0.00  0.00    +0.000 C 
ATOM      7  O   UNL     1       7.913   4.344  16.932  0.00  0.00    +0.000 OA
ENDBRANCH   1   6
TORSDOF 1
ENDMDL
MODEL 7
REMARK VINA RESULT:      -3.9      1.368      1.735
REMARK  Name = 
REMARK  1 active torsions:
REMARK  status: ('A' for Active; 'I' for Inactive)
REMARK    1  A    between atoms: C_2  and  C_4
REMARK                            x       y       z     vdW  Elec       q    Type
REMARK                         _______ _______ _______ _____ _____    ______ ____
ROOT
ATOM      1  C   UNL     1       6.435   4.612  14.963  0.00  0.00    +0.000 C 
ATOM      2  F   UNL     1       6.124   3.303  15.130  0.00  0.00    +0.000 F 
ATOM      3  F   UNL     1       5.277   5.316  14.894  0.00  0.00    +0.000 F 
ATOM      4  F   UNL     1       7.085   4.746  13.781  0.00  0.00    +0.000 F 
ENDROOT
BRANCH   1   6
ATOM      5  O   UNL     1       7.914   4.344  16.920  0.00  0.00    +0.000 OA
ATOM      6  C   UNL     1       7.314   5.140  16.122  0.00  0.00    +0.000 C 
ATOM      7  O   UNL     1       7.458   6.396  16.315  0.00  0.00    +0.000 OA
ENDBRANCH   1   6
TORSDOF 1
ENDMDL
MODEL 8
REMARK VINA RESULT:      -3.9      1.241      1.770
REMARK  Name = 
REMARK  1 active torsions:
REMARK  status: ('A' for Active; 'I' for Inactive)
REMARK    1  A    between atoms: C_2  and  C_4
REMARK                            x       y       z     vdW  Elec       q    Type
REMARK                         _______ _______ _______ _____ _____    ______ ____
ROOT
ATOM      1  C   UNL     1       6.181   4.044  14.299  0.00  0.00    +0.000 C 
ATOM      2  F   UNL     1       6.474   3.349  13.173  0.00  0.00    +0.000 F 
ATOM      3  F   UNL     1       6.121   3.168  15.333  0.00  0.00    +0.000 F 
ATOM      4  F   UNL     1       4.955   4.602  14.145  0.00  0.00    +0.000 F 
ENDROOT
BRANCH   1   6
ATOM      5  O   UNL     1       8.018   5.566  13.668  0.00  0.00    +0.000 OA
ATOM      6  C   UNL     1       7.238   5.137  14.585  0.00  0.00    +0.000 C 
ATOM      7  O   UNL     1       7.361   5.640  15.754  0.00  0.00    +0.000 OA
ENDBRANCH   1   6
TORSDOF 1
ENDMDL
MODEL 9
REMARK VINA RESULT:      -3.8      1.223      1.378
REMARK  Name = 
REMARK  1 active torsions:
REMARK  status: ('A' for Active; 'I' for Inactive)
REMARK    1  A    between atoms: C_2  and  C_4
REMARK                            x       y       z     vdW  Elec       q    Type
REMARK                         _______ _______ _______ _____ _____    ______ ____
ROOT
ATOM      1  C   UNL     1       6.175   4.041  14.336  0.00  0.00    +0.000 C 
ATOM      2  F   UNL     1       6.472   3.347  13.210  0.00  0.00    +0.000 F 
ATOM      3  F   UNL     1       6.111   3.165  15.369  0.00  0.00    +0.000 F 
ATOM      4  F   UNL     1       4.951   4.602  14.178  0.00  0.00    +0.000 F 
ENDROOT
BRANCH   1   6
ATOM      5  O   UNL     1       7.365   5.642  15.790  0.00  0.00    +0.000 OA
ATOM      6  C   UNL     1       7.233   5.133  14.626  0.00  0.00    +0.000 C 
ATOM      7  O   UNL     1       8.003   5.561  13.699  0.00  0.00    +0.000 OA
ENDBRANCH   1   6
TORSDOF 1
ENDMDL
