MODEL 1
REMARK VINA RESULT:      -7.0      0.000      0.000
REMARK  Name = 
REMARK  13 active torsions:
REMARK  status: ('A' for Active; 'I' for Inactive)
REMARK    1  A    between atoms: C_1  and  C_2
REMARK    2  A    between atoms: C_2  and  N_3
REMARK    3  A    between atoms: N_3  and  C_4
REMARK    4  A    between atoms: N_3  and  C_6
REMARK    5  A    between atoms: C_4  and  C_5
REMARK    6  A    between atoms: C_6  and  C_7
REMARK    7  A    between atoms: C_7  and  N_8
REMARK    8  A    between atoms: N_8  and  C_9
REMARK    9  A    between atoms: C_12  and  C_13
REMARK   10  A    between atoms: C_13  and  N_14
REMARK   11  A    between atoms: N_14  and  C_15
REMARK   12  A    between atoms: N_14  and  S_16
REMARK   13  A    between atoms: S_16  and  C_17
REMARK                            x       y       z     vdW  Elec       q    Type
REMARK                         _______ _______ _______ _____ _____    ______ ____
ROOT
ATOM      1  C   UNL     1       2.204   8.035  18.974  0.00  0.00    +0.000 A 
ATOM      2  C   UNL     1       2.698   8.708  17.848  0.00  0.00    +0.000 A 
ATOM      3  C   UNL     1       3.535   8.070  16.938  0.00  0.00    +0.000 A 
ATOM      4  C   UNL     1       4.005   6.777  17.181  0.00  0.00    +0.000 A 
ATOM      5  C   UNL     1       3.636   6.127  18.380  0.00  0.00    +0.000 A 
ATOM      6  S   UNL     1       4.516   4.641  18.817  0.00  0.00    +0.000 S 
ATOM      7  C   UNL     1       3.444   3.849  19.958  0.00  0.00    +0.000 A 
ATOM      8  C   UNL     1       3.688   2.489  20.206  0.00  0.00    +0.000 A 
ATOM      9  C   UNL     1       2.910   1.776  21.113  0.00  0.00    +0.000 A 
ATOM     10  C   UNL     1       1.892   2.426  21.799  0.00  0.00    +0.000 A 
ATOM     11  C   UNL     1       1.640   3.778  21.555  0.00  0.00    +0.000 A 
ATOM     12  C   UNL     1       2.407   4.498  20.620  0.00  0.00    +0.000 A 
ATOM     13  C   UNL     1       2.054   5.916  20.350  0.00  0.00    +0.000 A 
ATOM     14  O   UNL     1       1.140   6.401  21.019  0.00  0.00    +0.000 OA
ATOM     15  C   UNL     1       2.678   6.716  19.238  0.00  0.00    +0.000 A 
ENDROOT
BRANCH   1  16
ATOM     16  N   UNL     1       1.359   8.715  19.878  0.00  0.00    +0.000 N 
ATOM     17  H   UNL     1       0.587   8.098  20.170  0.00  0.00    +0.000 HD
BRANCH  16  18
ATOM     18  C   UNL     1       0.933  10.082  19.554  0.00  0.00    +0.000 C 
BRANCH  18  19
ATOM     19  C   UNL     1      -0.386  10.435  20.273  0.00  0.00    +0.000 C 
BRANCH  19  20
ATOM     20  N   UNL     1      -1.502  10.844  19.388  0.00  0.00    +0.000 NA
BRANCH  20  22
ATOM     21  C   UNL     1      -1.003  13.138  20.330  0.00  0.00    +0.000 C 
ATOM     22  C   UNL     1      -2.048  12.130  19.863  0.00  0.00    +0.000 C 
ENDBRANCH  20  22
BRANCH  20  23
ATOM     23  C   UNL     1      -1.156  10.833  17.959  0.00  0.00    +0.000 C 
ATOM     24  C   UNL     1      -1.989   9.913  17.073  0.00  0.00    +0.000 C 
ENDBRANCH  20  23
ENDBRANCH  19  20
ENDBRANCH  18  19
ENDBRANCH  16  18
ENDBRANCH   1  16
BRANCH   4  25
ATOM     25  C   UNL     1       4.812   6.104  16.076  0.00  0.00    +0.000 C 
BRANCH  25  26
ATOM     26  N   UNL     1       6.273   6.321  16.170  0.00  0.00    +0.000 NA
ATOM     27  C   UNL     1       6.707   7.053  17.377  0.00  0.00    +0.000 C 
BRANCH  26  28
ATOM     28  S   UNL     1       7.248   5.023  15.688  0.00  0.00    +0.000 S 
ATOM     29  C   UNL     1       6.059   3.770  15.224  0.00  0.00    +0.000 C 
ATOM     30  O   UNL     1       7.968   5.413  14.492  0.00  0.00    +0.000 OA
ATOM     31  O   UNL     1       7.953   4.539  16.852  0.00  0.00    +0.000 OA
ENDBRANCH  26  28
ENDBRANCH  25  26
ENDBRANCH   4  25
TORSDOF 9
ENDMDL
MODEL 2
REMARK VINA RESULT:      -6.9      2.267      5.804
REMARK  Name = 
REMARK  13 active torsions:
REMARK  status: ('A' for Active; 'I' for Inactive)
REMARK    1  A    between atoms: C_1  and  C_2
REMARK    2  A    between atoms: C_2  and  N_3
REMARK    3  A    between atoms: N_3  and  C_4
REMARK    4  A    between atoms: N_3  and  C_6
REMARK    5  A    between atoms: C_4  and  C_5
REMARK    6  A    between atoms: C_6  and  C_7
REMARK    7  A    between atoms: C_7  and  N_8
REMARK    8  A    between atoms: N_8  and  C_9
REMARK    9  A    between atoms: C_12  and  C_13
REMARK   10  A    between atoms: C_13  and  N_14
REMARK   11  A    between atoms: N_14  and  C_15
REMARK   12  A    between atoms: N_14  and  S_16
REMARK   13  A    between atoms: S_16  and  C_17
REMARK                            x       y       z     vdW  Elec       q    Type
REMARK                         _______ _______ _______ _____ _____    ______ ____
ROOT
ATOM      1  C   UNL     1       3.193   5.086  20.400  0.00  0.00    +0.000 A 
ATOM      2  C   UNL     1       4.295   4.332  19.971  0.00  0.00    +0.000 A 
ATOM      3  C   UNL     1       5.142   4.799  18.971  0.00  0.00    +0.000 A 
ATOM      4  C   UNL     1       4.853   5.979  18.281  0.00  0.00    +0.000 A 
ATOM      5  C   UNL     1       3.672   6.686  18.597  0.00  0.00    +0.000 A 
ATOM      6  S   UNL     1       3.161   7.978  17.480  0.00  0.00    +0.000 S 
ATOM      7  C   UNL     1       2.080   8.958  18.453  0.00  0.00    +0.000 A 
ATOM      8  C   UNL     1       1.800  10.247  17.972  0.00  0.00    +0.000 A 
ATOM      9  C   UNL     1       0.934  11.094  18.657  0.00  0.00    +0.000 A 
ATOM     10  C   UNL     1       0.322  10.650  19.822  0.00  0.00    +0.000 A 
ATOM     11  C   UNL     1       0.599   9.371  20.309  0.00  0.00    +0.000 A 
ATOM     12  C   UNL     1       1.493   8.519  19.635  0.00  0.00    +0.000 A 
ATOM     13  C   UNL     1       1.803   7.193  20.233  0.00  0.00    +0.000 A 
ATOM     14  O   UNL     1       1.199   6.891  21.263  0.00  0.00    +0.000 OA
ATOM     15  C   UNL     1       2.883   6.291  19.702  0.00  0.00    +0.000 A 
ENDROOT
BRANCH   1  16
ATOM     16  N   UNL     1       2.354   4.578  21.415  0.00  0.00    +0.000 N 
ATOM     17  H   UNL     1       2.839   4.614  22.323  0.00  0.00    +0.000 HD
BRANCH  16  18
ATOM     18  C   UNL     1       1.639   3.319  21.175  0.00  0.00    +0.000 C 
BRANCH  18  19
ATOM     19  C   UNL     1       0.909   3.347  19.815  0.00  0.00    +0.000 C 
BRANCH  19  20
ATOM     20  N   UNL     1       1.429   2.405  18.796  0.00  0.00    +0.000 NA
BRANCH  20  22
ATOM     21  C   UNL     1       1.140   4.492  17.395  0.00  0.00    +0.000 C 
ATOM     22  C   UNL     1       1.868   3.169  17.612  0.00  0.00    +0.000 C 
ENDBRANCH  20  22
BRANCH  20  23
ATOM     23  C   UNL     1       2.442   1.474  19.315  0.00  0.00    +0.000 C 
ATOM     24  C   UNL     1       3.672   1.262  18.439  0.00  0.00    +0.000 C 
ENDBRANCH  20  23
ENDBRANCH  19  20
ENDBRANCH  18  19
ENDBRANCH  16  18
ENDBRANCH   1  16
BRANCH   4  25
ATOM     25  C   UNL     1       5.897   6.487  17.291  0.00  0.00    +0.000 C 
BRANCH  25  26
ATOM     26  N   UNL     1       5.778   5.914  15.932  0.00  0.00    +0.000 NA
ATOM     27  C   UNL     1       5.234   6.844  14.921  0.00  0.00    +0.000 C 
BRANCH  26  28
ATOM     28  S   UNL     1       7.055   4.923  15.430  0.00  0.00    +0.000 S 
ATOM     29  C   UNL     1       6.221   3.530  14.680  0.00  0.00    +0.000 C 
ATOM     30  O   UNL     1       7.785   5.615  14.386  0.00  0.00    +0.000 OA
ATOM     31  O   UNL     1       7.732   4.437  16.610  0.00  0.00    +0.000 OA
ENDBRANCH  26  28
ENDBRANCH  25  26
ENDBRANCH   4  25
TORSDOF 9
ENDMDL
MODEL 3
REMARK VINA RESULT:      -6.8      2.204      5.937
REMARK  Name = 
REMARK  13 active torsions:
REMARK  status: ('A' for Active; 'I' for Inactive)
REMARK    1  A    between atoms: C_1  and  C_2
REMARK    2  A    between atoms: C_2  and  N_3
REMARK    3  A    between atoms: N_3  and  C_4
REMARK    4  A    between atoms: N_3  and  C_6
REMARK    5  A    between atoms: C_4  and  C_5
REMARK    6  A    between atoms: C_6  and  C_7
REMARK    7  A    between atoms: C_7  and  N_8
REMARK    8  A    between atoms: N_8  and  C_9
REMARK    9  A    between atoms: C_12  and  C_13
REMARK   10  A    between atoms: C_13  and  N_14
REMARK   11  A    between atoms: N_14  and  C_15
REMARK   12  A    between atoms: N_14  and  S_16
REMARK   13  A    between atoms: S_16  and  C_17
REMARK                            x       y       z     vdW  Elec       q    Type
REMARK                         _______ _______ _______ _____ _____    ______ ____
ROOT
ATOM      1  C   UNL     1       3.074   5.650  20.212  0.00  0.00    +0.000 A 
ATOM      2  C   UNL     1       4.018   4.905  19.492  0.00  0.00    +0.000 A 
ATOM      3  C   UNL     1       4.539   5.372  18.289  0.00  0.00    +0.000 A 
ATOM      4  C   UNL     1       4.048   6.542  17.702  0.00  0.00    +0.000 A 
ATOM      5  C   UNL     1       2.996   7.237  18.337  0.00  0.00    +0.000 A 
ATOM      6  S   UNL     1       2.168   8.511  17.404  0.00  0.00    +0.000 S 
ATOM      7  C   UNL     1       1.396   9.488  18.639  0.00  0.00    +0.000 A 
ATOM      8  C   UNL     1       0.971  10.768  18.249  0.00  0.00    +0.000 A 
ATOM      9  C   UNL     1       0.325  11.613  19.147  0.00  0.00    +0.000 A 
ATOM     10  C   UNL     1       0.077  11.173  20.441  0.00  0.00    +0.000 A 
ATOM     11  C   UNL     1       0.500   9.902  20.838  0.00  0.00    +0.000 A 
ATOM     12  C   UNL     1       1.177   9.054  19.942  0.00  0.00    +0.000 A 
ATOM     13  C   UNL     1       1.664   7.739  20.435  0.00  0.00    +0.000 A 
ATOM     14  O   UNL     1       1.383   7.440  21.597  0.00  0.00    +0.000 OA
ATOM     15  C   UNL     1       2.561   6.844  19.624  0.00  0.00    +0.000 A 
ENDROOT
BRANCH   1  16
ATOM     16  N   UNL     1       2.566   5.143  21.427  0.00  0.00    +0.000 N 
ATOM     17  H   UNL     1       3.175   5.429  22.209  0.00  0.00    +0.000 HD
BRANCH  16  18
ATOM     18  C   UNL     1       2.149   3.737  21.487  0.00  0.00    +0.000 C 
BRANCH  18  19
ATOM     19  C   UNL     1       1.122   3.419  20.379  0.00  0.00    +0.000 C 
BRANCH  19  20
ATOM     20  N   UNL     1       1.437   2.237  19.542  0.00  0.00    +0.000 NA
BRANCH  20  22
ATOM     21  C   UNL     1       1.146   3.994  17.744  0.00  0.00    +0.000 C 
ATOM     22  C   UNL     1       1.062   2.524  18.143  0.00  0.00    +0.000 C 
ENDBRANCH  20  22
BRANCH  20  23
ATOM     23  C   UNL     1       2.814   1.750  19.703  0.00  0.00    +0.000 C 
ATOM     24  C   UNL     1       3.571   1.434  18.417  0.00  0.00    +0.000 C 
ENDBRANCH  20  23
ENDBRANCH  19  20
ENDBRANCH  18  19
ENDBRANCH  16  18
ENDBRANCH   1  16
BRANCH   4  25
ATOM     25  C   UNL     1       4.758   7.051  16.452  0.00  0.00    +0.000 C 
BRANCH  25  26
ATOM     26  N   UNL     1       6.213   6.785  16.426  0.00  0.00    +0.000 NA
ATOM     27  C   UNL     1       6.923   7.140  17.673  0.00  0.00    +0.000 C 
BRANCH  26  28
ATOM     28  S   UNL     1       6.691   5.345  15.676  0.00  0.00    +0.000 S 
ATOM     29  C   UNL     1       7.427   4.413  17.012  0.00  0.00    +0.000 C 
ATOM     30  O   UNL     1       5.500   4.637  15.248  0.00  0.00    +0.000 OA
ATOM     31  O   UNL     1       7.743   5.659  14.737  0.00  0.00    +0.000 OA
ENDBRANCH  26  28
ENDBRANCH  25  26
ENDBRANCH   4  25
TORSDOF 9
ENDMDL
MODEL 4
REMARK VINA RESULT:      -6.8      0.900      1.422
REMARK  Name = 
REMARK  13 active torsions:
REMARK  status: ('A' for Active; 'I' for Inactive)
REMARK    1  A    between atoms: C_1  and  C_2
REMARK    2  A    between atoms: C_2  and  N_3
REMARK    3  A    between atoms: N_3  and  C_4
REMARK    4  A    between atoms: N_3  and  C_6
REMARK    5  A    between atoms: C_4  and  C_5
REMARK    6  A    between atoms: C_6  and  C_7
REMARK    7  A    between atoms: C_7  and  N_8
REMARK    8  A    between atoms: N_8  and  C_9
REMARK    9  A    between atoms: C_12  and  C_13
REMARK   10  A    between atoms: C_13  and  N_14
REMARK   11  A    between atoms: N_14  and  C_15
REMARK   12  A    between atoms: N_14  and  S_16
REMARK   13  A    between atoms: S_16  and  C_17
REMARK                            x       y       z     vdW  Elec       q    Type
REMARK                         _______ _______ _______ _____ _____    ______ ____
ROOT
ATOM      1  C   UNL     1       2.290   7.965  18.878  0.00  0.00    +0.000 A 
ATOM      2  C   UNL     1       2.822   8.590  17.742  0.00  0.00    +0.000 A 
ATOM      3  C   UNL     1       3.643   7.900  16.856  0.00  0.00    +0.000 A 
ATOM      4  C   UNL     1       4.059   6.595  17.135  0.00  0.00    +0.000 A 
ATOM      5  C   UNL     1       3.652   5.989  18.344  0.00  0.00    +0.000 A 
ATOM      6  S   UNL     1       4.469   4.480  18.826  0.00  0.00    +0.000 S 
ATOM      7  C   UNL     1       3.355   3.758  19.972  0.00  0.00    +0.000 A 
ATOM      8  C   UNL     1       3.543   2.396  20.255  0.00  0.00    +0.000 A 
ATOM      9  C   UNL     1       2.728   1.735  21.169  0.00  0.00    +0.000 A 
ATOM     10  C   UNL     1       1.728   2.440  21.828  0.00  0.00    +0.000 A 
ATOM     11  C   UNL     1       1.533   3.795  21.550  0.00  0.00    +0.000 A 
ATOM     12  C   UNL     1       2.337   4.462  20.607  0.00  0.00    +0.000 A 
ATOM     13  C   UNL     1       2.042   5.886  20.300  0.00  0.00    +0.000 A 
ATOM     14  O   UNL     1       1.141   6.422  20.947  0.00  0.00    +0.000 OA
ATOM     15  C   UNL     1       2.709   6.634  19.178  0.00  0.00    +0.000 A 
ENDROOT
BRANCH   1  16
ATOM     16  N   UNL     1       1.463   8.698  19.755  0.00  0.00    +0.000 N 
ATOM     17  H   UNL     1       0.897   8.053  20.327  0.00  0.00    +0.000 HD
BRANCH  16  18
ATOM     18  C   UNL     1       0.703   9.836  19.224  0.00  0.00    +0.000 C 
BRANCH  18  19
ATOM     19  C   UNL     1      -0.624  10.021  19.990  0.00  0.00    +0.000 C 
BRANCH  19  20
ATOM     20  N   UNL     1      -0.676  11.195  20.894  0.00  0.00    +0.000 NA
BRANCH  20  22
ATOM     21  C   UNL     1      -0.561   9.437  22.710  0.00  0.00    +0.000 C 
ATOM     22  C   UNL     1      -0.131  10.813  22.212  0.00  0.00    +0.000 C 
ENDBRANCH  20  22
BRANCH  20  23
ATOM     23  C   UNL     1      -0.067  12.406  20.325  0.00  0.00    +0.000 C 
ATOM     24  C   UNL     1      -0.861  13.103  19.225  0.00  0.00    +0.000 C 
ENDBRANCH  20  23
ENDBRANCH  19  20
ENDBRANCH  18  19
ENDBRANCH  16  18
ENDBRANCH   1  16
BRANCH   4  25
ATOM     25  C   UNL     1       4.851   5.866  16.055  0.00  0.00    +0.000 C 
BRANCH  25  26
ATOM     26  N   UNL     1       6.288   6.219  16.008  0.00  0.00    +0.000 NA
ATOM     27  C   UNL     1       6.776   6.952  17.195  0.00  0.00    +0.000 C 
BRANCH  26  28
ATOM     28  S   UNL     1       7.322   5.037  15.378  0.00  0.00    +0.000 S 
ATOM     29  C   UNL     1       6.195   3.856  14.648  0.00  0.00    +0.000 C 
ATOM     30  O   UNL     1       8.093   5.632  14.304  0.00  0.00    +0.000 OA
ATOM     31  O   UNL     1       7.978   4.382  16.486  0.00  0.00    +0.000 OA
ENDBRANCH  26  28
ENDBRANCH  25  26
ENDBRANCH   4  25
TORSDOF 9
ENDMDL
MODEL 5
REMARK VINA RESULT:      -6.8      0.702      1.085
REMARK  Name = 
REMARK  13 active torsions:
REMARK  status: ('A' for Active; 'I' for Inactive)
REMARK    1  A    between atoms: C_1  and  C_2
REMARK    2  A    between atoms: C_2  and  N_3
REMARK    3  A    between atoms: N_3  and  C_4
REMARK    4  A    between atoms: N_3  and  C_6
REMARK    5  A    between atoms: C_4  and  C_5
REMARK    6  A    between atoms: C_6  and  C_7
REMARK    7  A    between atoms: C_7  and  N_8
REMARK    8  A    between atoms: N_8  and  C_9
REMARK    9  A    between atoms: C_12  and  C_13
REMARK   10  A    between atoms: C_13  and  N_14
REMARK   11  A    between atoms: N_14  and  C_15
REMARK   12  A    between atoms: N_14  and  S_16
REMARK   13  A    between atoms: S_16  and  C_17
REMARK                            x       y       z     vdW  Elec       q    Type
REMARK                         _______ _______ _______ _____ _____    ______ ____
ROOT
ATOM      1  C   UNL     1       2.169   8.026  19.009  0.00  0.00    +0.000 A 
ATOM      2  C   UNL     1       2.658   8.714  17.890  0.00  0.00    +0.000 A 
ATOM      3  C   UNL     1       3.500   8.094  16.973  0.00  0.00    +0.000 A 
ATOM      4  C   UNL     1       3.982   6.802  17.203  0.00  0.00    +0.000 A 
ATOM      5  C   UNL     1       3.618   6.138  18.395  0.00  0.00    +0.000 A 
ATOM      6  S   UNL     1       4.512   4.655  18.818  0.00  0.00    +0.000 S 
ATOM      7  C   UNL     1       3.447   3.842  19.951  0.00  0.00    +0.000 A 
ATOM      8  C   UNL     1       3.704   2.482  20.185  0.00  0.00    +0.000 A 
ATOM      9  C   UNL     1       2.932   1.753  21.085  0.00  0.00    +0.000 A 
ATOM     10  C   UNL     1       1.908   2.386  21.778  0.00  0.00    +0.000 A 
ATOM     11  C   UNL     1       1.644   3.739  21.547  0.00  0.00    +0.000 A 
ATOM     12  C   UNL     1       2.404   4.475  20.619  0.00  0.00    +0.000 A 
ATOM     13  C   UNL     1       2.038   5.892  20.363  0.00  0.00    +0.000 A 
ATOM     14  O   UNL     1       1.120   6.363  21.037  0.00  0.00    +0.000 OA
ATOM     15  C   UNL     1       2.655   6.709  19.260  0.00  0.00    +0.000 A 
ENDROOT
BRANCH   1  16
ATOM     16  N   UNL     1       1.319   8.689  19.919  0.00  0.00    +0.000 N 
ATOM     17  H   UNL     1       0.492   8.105  20.118  0.00  0.00    +0.000 HD
BRANCH  16  18
ATOM     18  C   UNL     1       1.000  10.103  19.686  0.00  0.00    +0.000 C 
BRANCH  18  19
ATOM     19  C   UNL     1      -0.521  10.307  19.523  0.00  0.00    +0.000 C 
BRANCH  19  20
ATOM     20  N   UNL     1      -0.942  11.683  19.165  0.00  0.00    +0.000 NA
BRANCH  20  22
ATOM     21  C   UNL     1      -3.196  12.482  19.992  0.00  0.00    +0.000 C 
ATOM     22  C   UNL     1      -1.715  12.256  20.283  0.00  0.00    +0.000 C 
ENDBRANCH  20  22
BRANCH  20  23
ATOM     23  C   UNL     1       0.162  12.536  18.702  0.00  0.00    +0.000 C 
ATOM     24  C   UNL     1      -0.137  14.029  18.607  0.00  0.00    +0.000 C 
ENDBRANCH  20  23
ENDBRANCH  19  20
ENDBRANCH  18  19
ENDBRANCH  16  18
ENDBRANCH   1  16
BRANCH   4  25
ATOM     25  C   UNL     1       4.795   6.148  16.092  0.00  0.00    +0.000 C 
BRANCH  25  26
ATOM     26  N   UNL     1       6.257   6.345  16.209  0.00  0.00    +0.000 NA
ATOM     27  C   UNL     1       6.681   7.073  17.423  0.00  0.00    +0.000 C 
BRANCH  26  28
ATOM     28  S   UNL     1       7.222   5.034  15.744  0.00  0.00    +0.000 S 
ATOM     29  C   UNL     1       6.023   3.782  15.303  0.00  0.00    +0.000 C 
ATOM     30  O   UNL     1       7.941   5.401  14.540  0.00  0.00    +0.000 OA
ATOM     31  O   UNL     1       7.928   4.564  16.913  0.00  0.00    +0.000 OA
ENDBRANCH  26  28
ENDBRANCH  25  26
ENDBRANCH   4  25
TORSDOF 9
ENDMDL
MODEL 6
REMARK VINA RESULT:      -6.8      2.233      6.014
REMARK  Name = 
REMARK  13 active torsions:
REMARK  status: ('A' for Active; 'I' for Inactive)
REMARK    1  A    between atoms: C_1  and  C_2
REMARK    2  A    between atoms: C_2  and  N_3
REMARK    3  A    between atoms: N_3  and  C_4
REMARK    4  A    between atoms: N_3  and  C_6
REMARK    5  A    between atoms: C_4  and  C_5
REMARK    6  A    between atoms: C_6  and  C_7
REMARK    7  A    between atoms: C_7  and  N_8
REMARK    8  A    between atoms: N_8  and  C_9
REMARK    9  A    between atoms: C_12  and  C_13
REMARK   10  A    between atoms: C_13  and  N_14
REMARK   11  A    between atoms: N_14  and  C_15
REMARK   12  A    between atoms: N_14  and  S_16
REMARK   13  A    between atoms: S_16  and  C_17
REMARK                            x       y       z     vdW  Elec       q    Type
REMARK                         _______ _______ _______ _____ _____    ______ ____
ROOT
ATOM      1  C   UNL     1       2.888   5.554  20.350  0.00  0.00    +0.000 A 
ATOM      2  C   UNL     1       3.828   4.766  19.671  0.00  0.00    +0.000 A 
ATOM      3  C   UNL     1       4.422   5.208  18.493  0.00  0.00    +0.000 A 
ATOM      4  C   UNL     1       4.012   6.398  17.886  0.00  0.00    +0.000 A 
ATOM      5  C   UNL     1       2.965   7.142  18.475  0.00  0.00    +0.000 A 
ATOM      6  S   UNL     1       2.239   8.451  17.508  0.00  0.00    +0.000 S 
ATOM      7  C   UNL     1       1.458   9.464  18.709  0.00  0.00    +0.000 A 
ATOM      8  C   UNL     1       1.110  10.762  18.301  0.00  0.00    +0.000 A 
ATOM      9  C   UNL     1       0.464  11.635  19.171  0.00  0.00    +0.000 A 
ATOM     10  C   UNL     1       0.139  11.208  20.453  0.00  0.00    +0.000 A 
ATOM     11  C   UNL     1       0.485   9.920  20.866  0.00  0.00    +0.000 A 
ATOM     12  C   UNL     1       1.162   9.041  20.000  0.00  0.00    +0.000 A 
ATOM     13  C   UNL     1       1.565   7.705  20.512  0.00  0.00    +0.000 A 
ATOM     14  O   UNL     1       1.220   7.420  21.660  0.00  0.00    +0.000 OA
ATOM     15  C   UNL     1       2.456   6.769  19.741  0.00  0.00    +0.000 A 
ENDROOT
BRANCH   1  16
ATOM     16  N   UNL     1       2.303   5.072  21.541  0.00  0.00    +0.000 N 
ATOM     17  H   UNL     1       2.726   5.541  22.355  0.00  0.00    +0.000 HD
BRANCH  16  18
ATOM     18  C   UNL     1       2.143   3.623  21.712  0.00  0.00    +0.000 C 
BRANCH  18  19
ATOM     19  C   UNL     1       1.042   3.074  20.778  0.00  0.00    +0.000 C 
BRANCH  19  20
ATOM     20  N   UNL     1       1.482   2.026  19.827  0.00  0.00    +0.000 NA
BRANCH  20  22
ATOM     21  C   UNL     1       1.024   3.730  18.014  0.00  0.00    +0.000 C 
ATOM     22  C   UNL     1       0.882   2.293  18.505  0.00  0.00    +0.000 C 
ENDBRANCH  20  22
BRANCH  20  23
ATOM     23  C   UNL     1       2.938   1.832  19.794  0.00  0.00    +0.000 C 
ATOM     24  C   UNL     1       3.529   1.404  18.454  0.00  0.00    +0.000 C 
ENDBRANCH  20  23
ENDBRANCH  19  20
ENDBRANCH  18  19
ENDBRANCH  16  18
ENDBRANCH   1  16
BRANCH   4  25
ATOM     25  C   UNL     1       4.800   6.874  16.670  0.00  0.00    +0.000 C 
BRANCH  25  26
ATOM     26  N   UNL     1       5.591   5.816  16.004  0.00  0.00    +0.000 NA
ATOM     27  C   UNL     1       5.105   5.442  14.660  0.00  0.00    +0.000 C 
BRANCH  26  28
ATOM     28  S   UNL     1       7.270   5.915  16.194  0.00  0.00    +0.000 S 
ATOM     29  C   UNL     1       7.625   4.618  17.373  0.00  0.00    +0.000 C 
ATOM     30  O   UNL     1       7.894   5.552  14.937  0.00  0.00    +0.000 OA
ATOM     31  O   UNL     1       7.572   7.175  16.834  0.00  0.00    +0.000 OA
ENDBRANCH  26  28
ENDBRANCH  25  26
ENDBRANCH   4  25
TORSDOF 9
ENDMDL
MODEL 7
REMARK VINA RESULT:      -6.8      1.227      1.643
REMARK  Name = 
REMARK  13 active torsions:
REMARK  status: ('A' for Active; 'I' for Inactive)
REMARK    1  A    between atoms: C_1  and  C_2
REMARK    2  A    between atoms: C_2  and  N_3
REMARK    3  A    between atoms: N_3  and  C_4
REMARK    4  A    between atoms: N_3  and  C_6
REMARK    5  A    between atoms: C_4  and  C_5
REMARK    6  A    between atoms: C_6  and  C_7
REMARK    7  A    between atoms: C_7  and  N_8
REMARK    8  A    between atoms: N_8  and  C_9
REMARK    9  A    between atoms: C_12  and  C_13
REMARK   10  A    between atoms: C_13  and  N_14
REMARK   11  A    between atoms: N_14  and  C_15
REMARK   12  A    between atoms: N_14  and  S_16
REMARK   13  A    between atoms: S_16  and  C_17
REMARK                            x       y       z     vdW  Elec       q    Type
REMARK                         _______ _______ _______ _____ _____    ______ ____
ROOT
ATOM      1  C   UNL     1       2.217   8.008  19.035  0.00  0.00    +0.000 A 
ATOM      2  C   UNL     1       2.705   8.697  17.916  0.00  0.00    +0.000 A 
ATOM      3  C   UNL     1       3.537   8.073  16.992  0.00  0.00    +0.000 A 
ATOM      4  C   UNL     1       4.009   6.776  17.214  0.00  0.00    +0.000 A 
ATOM      5  C   UNL     1       3.645   6.109  18.405  0.00  0.00    +0.000 A 
ATOM      6  S   UNL     1       4.529   4.617  18.817  0.00  0.00    +0.000 S 
ATOM      7  C   UNL     1       3.462   3.808  19.951  0.00  0.00    +0.000 A 
ATOM      8  C   UNL     1       3.709   2.445  20.178  0.00  0.00    +0.000 A 
ATOM      9  C   UNL     1       2.935   1.719  21.079  0.00  0.00    +0.000 A 
ATOM     10  C   UNL     1       1.920   2.358  21.780  0.00  0.00    +0.000 A 
ATOM     11  C   UNL     1       1.667   3.713  21.556  0.00  0.00    +0.000 A 
ATOM     12  C   UNL     1       2.429   4.447  20.628  0.00  0.00    +0.000 A 
ATOM     13  C   UNL     1       2.074   5.869  20.380  0.00  0.00    +0.000 A 
ATOM     14  O   UNL     1       1.163   6.344  21.061  0.00  0.00    +0.000 OA
ATOM     15  C   UNL     1       2.692   6.685  19.277  0.00  0.00    +0.000 A 
ENDROOT
BRANCH   1  16
ATOM     16  N   UNL     1       1.376   8.674  19.953  0.00  0.00    +0.000 N 
ATOM     17  H   UNL     1       0.862   7.986  20.523  0.00  0.00    +0.000 HD
BRANCH  16  18
ATOM     18  C   UNL     1       0.543   9.782  19.471  0.00  0.00    +0.000 C 
BRANCH  18  19
ATOM     19  C   UNL     1       0.920  11.104  20.174  0.00  0.00    +0.000 C 
BRANCH  19  20
ATOM     20  N   UNL     1       1.075  12.276  19.281  0.00  0.00    +0.000 NA
BRANCH  20  22
ATOM     21  C   UNL     1      -1.134  12.698  18.122  0.00  0.00    +0.000 C 
ATOM     22  C   UNL     1      -0.187  13.041  19.268  0.00  0.00    +0.000 C 
ENDBRANCH  20  22
BRANCH  20  23
ATOM     23  C   UNL     1       2.263  13.090  19.576  0.00  0.00    +0.000 C 
ATOM     24  C   UNL     1       2.987  13.684  18.372  0.00  0.00    +0.000 C 
ENDBRANCH  20  23
ENDBRANCH  19  20
ENDBRANCH  18  19
ENDBRANCH  16  18
ENDBRANCH   1  16
BRANCH   4  25
ATOM     25  C   UNL     1       4.811   6.120  16.095  0.00  0.00    +0.000 C 
BRANCH  25  26
ATOM     26  N   UNL     1       6.273   6.327  16.190  0.00  0.00    +0.000 NA
ATOM     27  C   UNL     1       6.710   7.058  17.397  0.00  0.00    +0.000 C 
BRANCH  26  28
ATOM     28  S   UNL     1       7.239   5.024  15.711  0.00  0.00    +0.000 S 
ATOM     29  C   UNL     1       6.043   3.775  15.254  0.00  0.00    +0.000 C 
ATOM     30  O   UNL     1       7.958   5.406  14.511  0.00  0.00    +0.000 OA
ATOM     31  O   UNL     1       7.946   4.541  16.875  0.00  0.00    +0.000 OA
ENDBRANCH  26  28
ENDBRANCH  25  26
ENDBRANCH   4  25
TORSDOF 9
ENDMDL
MODEL 8
REMARK VINA RESULT:      -6.7      0.859      1.489
REMARK  Name = 
REMARK  13 active torsions:
REMARK  status: ('A' for Active; 'I' for Inactive)
REMARK    1  A    between atoms: C_1  and  C_2
REMARK    2  A    between atoms: C_2  and  N_3
REMARK    3  A    between atoms: N_3  and  C_4
REMARK    4  A    between atoms: N_3  and  C_6
REMARK    5  A    between atoms: C_4  and  C_5
REMARK    6  A    between atoms: C_6  and  C_7
REMARK    7  A    between atoms: C_7  and  N_8
REMARK    8  A    between atoms: N_8  and  C_9
REMARK    9  A    between atoms: C_12  and  C_13
REMARK   10  A    between atoms: C_13  and  N_14
REMARK   11  A    between atoms: N_14  and  C_15
REMARK   12  A    between atoms: N_14  and  S_16
REMARK   13  A    between atoms: S_16  and  C_17
REMARK                            x       y       z     vdW  Elec       q    Type
REMARK                         _______ _______ _______ _____ _____    ______ ____
ROOT
ATOM      1  C   UNL     1       2.156   8.013  19.093  0.00  0.00    +0.000 A 
ATOM      2  C   UNL     1       2.614   8.729  17.978  0.00  0.00    +0.000 A 
ATOM      3  C   UNL     1       3.447   8.137  17.033  0.00  0.00    +0.000 A 
ATOM      4  C   UNL     1       3.950   6.848  17.230  0.00  0.00    +0.000 A 
ATOM      5  C   UNL     1       3.618   6.156  18.415  0.00  0.00    +0.000 A 
ATOM      6  S   UNL     1       4.539   4.678  18.793  0.00  0.00    +0.000 S 
ATOM      7  C   UNL     1       3.506   3.830  19.930  0.00  0.00    +0.000 A 
ATOM      8  C   UNL     1       3.786   2.469  20.133  0.00  0.00    +0.000 A 
ATOM      9  C   UNL     1       3.040   1.713  21.033  0.00  0.00    +0.000 A 
ATOM     10  C   UNL     1       2.022   2.319  21.757  0.00  0.00    +0.000 A 
ATOM     11  C   UNL     1       1.736   3.672  21.557  0.00  0.00    +0.000 A 
ATOM     12  C   UNL     1       2.469   4.436  20.630  0.00  0.00    +0.000 A 
ATOM     13  C   UNL     1       2.080   5.853  20.408  0.00  0.00    +0.000 A 
ATOM     14  O   UNL     1       1.168   6.298  21.108  0.00  0.00    +0.000 OA
ATOM     15  C   UNL     1       2.664   6.698  19.309  0.00  0.00    +0.000 A 
ENDROOT
BRANCH   1  16
ATOM     16  N   UNL     1       1.315   8.648  20.031  0.00  0.00    +0.000 N 
ATOM     17  H   UNL     1       0.598   7.986  20.364  0.00  0.00    +0.000 HD
BRANCH  16  18
ATOM     18  C   UNL     1       0.788   9.982  19.719  0.00  0.00    +0.000 C 
BRANCH  18  19
ATOM     19  C   UNL     1      -0.137  10.489  20.846  0.00  0.00    +0.000 C 
BRANCH  19  20
ATOM     20  N   UNL     1      -0.689  11.850  20.650  0.00  0.00    +0.000 NA
BRANCH  20  22
ATOM     21  C   UNL     1      -2.966  12.756  20.021  0.00  0.00    +0.000 C 
ATOM     22  C   UNL     1      -1.836  11.776  19.724  0.00  0.00    +0.000 C 
ENDBRANCH  20  22
BRANCH  20  23
ATOM     23  C   UNL     1      -0.980  12.556  21.906  0.00  0.00    +0.000 C 
ATOM     24  C   UNL     1      -1.426  11.688  23.077  0.00  0.00    +0.000 C 
ENDBRANCH  20  23
ENDBRANCH  19  20
ENDBRANCH  18  19
ENDBRANCH  16  18
ENDBRANCH   1  16
BRANCH   4  25
ATOM     25  C   UNL     1       4.750   6.226  16.091  0.00  0.00    +0.000 C 
BRANCH  25  26
ATOM     26  N   UNL     1       6.214   6.407  16.204  0.00  0.00    +0.000 NA
ATOM     27  C   UNL     1       6.646   7.175  17.390  0.00  0.00    +0.000 C 
BRANCH  26  28
ATOM     28  S   UNL     1       7.162   5.067  15.792  0.00  0.00    +0.000 S 
ATOM     29  C   UNL     1       5.948   3.832  15.342  0.00  0.00    +0.000 C 
ATOM     30  O   UNL     1       7.921   5.393  14.601  0.00  0.00    +0.000 OA
ATOM     31  O   UNL     1       7.825   4.604  16.989  0.00  0.00    +0.000 OA
ENDBRANCH  26  28
ENDBRANCH  25  26
ENDBRANCH   4  25
TORSDOF 9
ENDMDL
MODEL 9
REMARK VINA RESULT:      -6.5      4.521     10.061
REMARK  Name = 
REMARK  13 active torsions:
REMARK  status: ('A' for Active; 'I' for Inactive)
REMARK    1  A    between atoms: C_1  and  C_2
REMARK    2  A    between atoms: C_2  and  N_3
REMARK    3  A    between atoms: N_3  and  C_4
REMARK    4  A    between atoms: N_3  and  C_6
REMARK    5  A    between atoms: C_4  and  C_5
REMARK    6  A    between atoms: C_6  and  C_7
REMARK    7  A    between atoms: C_7  and  N_8
REMARK    8  A    between atoms: N_8  and  C_9
REMARK    9  A    between atoms: C_12  and  C_13
REMARK   10  A    between atoms: C_13  and  N_14
REMARK   11  A    between atoms: N_14  and  C_15
REMARK   12  A    between atoms: N_14  and  S_16
REMARK   13  A    between atoms: S_16  and  C_17
REMARK                            x       y       z     vdW  Elec       q    Type
REMARK                         _______ _______ _______ _____ _____    ______ ____
ROOT
ATOM      1  C   UNL     1       0.610   9.750  20.306  0.00  0.00    +0.000 A 
ATOM      2  C   UNL     1       0.843   9.975  21.669  0.00  0.00    +0.000 A 
ATOM      3  C   UNL     1      -0.065  10.687  22.448  0.00  0.00    +0.000 A 
ATOM      4  C   UNL     1      -1.178  11.301  21.868  0.00  0.00    +0.000 A 
ATOM      5  C   UNL     1      -1.362  11.209  20.471  0.00  0.00    +0.000 A 
ATOM      6  S   UNL     1      -2.579  12.278  19.727  0.00  0.00    +0.000 S 
ATOM      7  C   UNL     1      -2.927  11.498  18.194  0.00  0.00    +0.000 A 
ATOM      8  C   UNL     1      -4.105  11.899  17.542  0.00  0.00    +0.000 A 
ATOM      9  C   UNL     1      -4.458  11.359  16.309  0.00  0.00    +0.000 A 
ATOM     10  C   UNL     1      -3.623  10.428  15.704  0.00  0.00    +0.000 A 
ATOM     11  C   UNL     1      -2.451  10.023  16.349  0.00  0.00    +0.000 A 
ATOM     12  C   UNL     1      -2.101  10.545  17.608  0.00  0.00    +0.000 A 
ATOM     13  C   UNL     1      -0.879  10.030  18.279  0.00  0.00    +0.000 A 
ATOM     14  O   UNL     1      -0.201   9.213  17.653  0.00  0.00    +0.000 OA
ATOM     15  C   UNL     1      -0.520  10.374  19.699  0.00  0.00    +0.000 A 
ENDROOT
BRANCH   1  16
ATOM     16  N   UNL     1       1.554   9.026  19.547  0.00  0.00    +0.000 N 
ATOM     17  H   UNL     1       1.256   8.985  18.561  0.00  0.00    +0.000 HD
BRANCH  16  18
ATOM     18  C   UNL     1       2.047   7.745  20.069  0.00  0.00    +0.000 C 
BRANCH  18  19
ATOM     19  C   UNL     1       2.479   6.810  18.920  0.00  0.00    +0.000 C 
BRANCH  19  20
ATOM     20  N   UNL     1       2.625   5.381  19.286  0.00  0.00    +0.000 NA
BRANCH  20  22
ATOM     21  C   UNL     1       4.581   3.920  18.619  0.00  0.00    +0.000 C 
ATOM     22  C   UNL     1       4.058   5.074  19.468  0.00  0.00    +0.000 C 
ENDBRANCH  20  22
BRANCH  20  23
ATOM     23  C   UNL     1       1.779   4.972  20.416  0.00  0.00    +0.000 C 
ATOM     24  C   UNL     1       0.988   3.681  20.230  0.00  0.00    +0.000 C 
ENDBRANCH  20  23
ENDBRANCH  19  20
ENDBRANCH  18  19
ENDBRANCH  16  18
ENDBRANCH   1  16
BRANCH   4  25
ATOM     25  C   UNL     1      -2.189  11.952  22.807  0.00  0.00    +0.000 C 
BRANCH  25  26
ATOM     26  N   UNL     1      -1.724  13.215  23.422  0.00  0.00    +0.000 NA
ATOM     27  C   UNL     1      -0.741  13.965  22.613  0.00  0.00    +0.000 C 
BRANCH  26  28
ATOM     28  S   UNL     1      -2.907  14.136  24.208  0.00  0.00    +0.000 S 
ATOM     29  C   UNL     1      -3.519  15.207  22.913  0.00  0.00    +0.000 C 
ATOM     30  O   UNL     1      -3.988  13.252  24.598  0.00  0.00    +0.000 OA
ATOM     31  O   UNL     1      -2.246  14.971  25.184  0.00  0.00    +0.000 OA
ENDBRANCH  26  28
ENDBRANCH  25  26
ENDBRANCH   4  25
TORSDOF 9
ENDMDL
