MODEL 1
REMARK VINA RESULT:      -8.5      0.000      0.000
REMARK  Name = 
REMARK  8 active torsions:
REMARK  status: ('A' for Active; 'I' for Inactive)
REMARK    1  A    between atoms: C_1  and  C_2
REMARK    2  A    between atoms: C_3  and  N_4
REMARK    3  A    between atoms: C_5  and  C_7
REMARK    4  A    between atoms: C_9  and  C_10
REMARK    5  A    between atoms: C_10  and  N_11
REMARK    6  A    between atoms: N_11  and  C_12
REMARK    7  A    between atoms: C_15  and  O_16
REMARK    8  A    between atoms: C_28  and  C_29
REMARK                            x       y       z     vdW  Elec       q    Type
REMARK                         _______ _______ _______ _____ _____    ______ ____
ROOT
ATOM      1  C   UNL     1      -0.052  10.165  20.947  0.00  0.00    +0.000 A 
ATOM      2  C   UNL     1      -0.326  10.876  22.068  0.00  0.00    +0.000 A 
ATOM      3  C   UNL     1      -1.139  12.091  22.032  0.00  0.00    +0.000 A 
ATOM      4  C   UNL     1      -1.634  12.493  20.838  0.00  0.00    +0.000 A 
ATOM      5  N   UNL     1      -1.388  11.732  19.713  0.00  0.00    +0.000 N 
ATOM      6  C   UNL     1      -1.766  11.909  18.410  0.00  0.00    +0.000 A 
ATOM      7  N   UNL     1      -1.342  10.899  17.679  0.00  0.00    +0.000 NA
ATOM      8  N   UNL     1      -0.642  10.051  18.501  0.00  0.00    +0.000 NA
ATOM      9  C   UNL     1      -0.639  10.565  19.717  0.00  0.00    +0.000 A 
ENDROOT
BRANCH   1  11
ATOM     10  N   UNL     1       1.003   8.247  19.925  0.00  0.00    +0.000 N 
ATOM     11  C   UNL     1       0.959   9.067  21.040  0.00  0.00    +0.000 C 
ATOM     12  O   UNL     1       1.657   8.931  22.043  0.00  0.00    +0.000 OA
ATOM     13  H   UNL     1       0.168   8.242  19.334  0.00  0.00    +0.000 HD
BRANCH  10  16
ATOM     14  C   UNL     1       2.863   8.066  17.668  0.00  0.00    +0.000 C 
ATOM     15  C   UNL     1       2.844   7.037  18.777  0.00  0.00    +0.000 A 
ATOM     16  C   UNL     1       1.868   7.146  19.795  0.00  0.00    +0.000 A 
ATOM     17  C   UNL     1       1.653   6.111  20.708  0.00  0.00    +0.000 A 
ATOM     18  C   UNL     1       2.480   4.997  20.691  0.00  0.00    +0.000 A 
ATOM     19  C   UNL     1       3.501   4.910  19.745  0.00  0.00    +0.000 A 
ATOM     20  C   UNL     1       3.720   5.907  18.762  0.00  0.00    +0.000 A 
BRANCH  20  21
ATOM     21  C   UNL     1       4.799   5.699  17.745  0.00  0.00    +0.000 A 
ATOM     22  C   UNL     1       6.063   6.313  17.868  0.00  0.00    +0.000 A 
ATOM     23  C   UNL     1       7.106   6.047  16.968  0.00  0.00    +0.000 A 
ATOM     24  C   UNL     1       6.926   5.127  15.945  0.00  0.00    +0.000 A 
ATOM     25  C   UNL     1       5.683   4.539  15.767  0.00  0.00    +0.000 A 
ATOM     26  C   UNL     1       4.630   4.865  16.627  0.00  0.00    +0.000 A 
ENDBRANCH  20  21
ENDBRANCH  10  16
ENDBRANCH   1  11
BRANCH   3  27
ATOM     27  C   UNL     1      -1.355  12.862  23.304  0.00  0.00    +0.000 C 
BRANCH  27  28
ATOM     28  N   UNL     1      -2.193  14.043  23.083  0.00  0.00    +0.000 NA
ATOM     29  H   UNL     1      -2.303  14.199  22.083  0.00  0.00    +0.000 HD
BRANCH  28  30
ATOM     30  C   UNL     1      -3.510  13.943  23.726  0.00  0.00    +0.000 C 
ATOM     31  C   UNL     1      -4.581  14.436  22.731  0.00  0.00    +0.000 C 
ATOM     32  C   UNL     1      -6.001  14.269  23.278  0.00  0.00    +0.000 C 
ATOM     33  C   UNL     1      -6.263  12.830  23.714  0.00  0.00    +0.000 C 
ATOM     34  C   UNL     1      -5.238  12.383  24.745  0.00  0.00    +0.000 C 
ATOM     35  C   UNL     1      -3.821  12.513  24.199  0.00  0.00    +0.000 C 
BRANCH  33  36
ATOM     36  O   UNL     1      -7.569  12.718  24.267  0.00  0.00    +0.000 OA
ATOM     37  H   UNL     1      -8.209  12.670  23.536  0.00  0.00    +0.000 HD
ENDBRANCH  33  36
ENDBRANCH  28  30
ENDBRANCH  27  28
ENDBRANCH   3  27
TORSDOF 7
ENDMDL
MODEL 2
REMARK VINA RESULT:      -8.4      3.225     10.677
REMARK  Name = 
REMARK  8 active torsions:
REMARK  status: ('A' for Active; 'I' for Inactive)
REMARK    1  A    between atoms: C_1  and  C_2
REMARK    2  A    between atoms: C_3  and  N_4
REMARK    3  A    between atoms: C_5  and  C_7
REMARK    4  A    between atoms: C_9  and  C_10
REMARK    5  A    between atoms: C_10  and  N_11
REMARK    6  A    between atoms: N_11  and  C_12
REMARK    7  A    between atoms: C_15  and  O_16
REMARK    8  A    between atoms: C_28  and  C_29
REMARK                            x       y       z     vdW  Elec       q    Type
REMARK                         _______ _______ _______ _____ _____    ______ ____
ROOT
ATOM      1  C   UNL     1       2.430   5.842  18.890  0.00  0.00    +0.000 A 
ATOM      2  C   UNL     1       3.250   5.718  17.818  0.00  0.00    +0.000 A 
ATOM      3  C   UNL     1       3.702   4.413  17.340  0.00  0.00    +0.000 A 
ATOM      4  C   UNL     1       3.267   3.308  17.989  0.00  0.00    +0.000 A 
ATOM      5  N   UNL     1       2.392   3.447  19.048  0.00  0.00    +0.000 N 
ATOM      6  C   UNL     1       1.809   2.512  19.859  0.00  0.00    +0.000 A 
ATOM      7  N   UNL     1       1.000   3.102  20.714  0.00  0.00    +0.000 NA
ATOM      8  N   UNL     1       1.068   4.455  20.492  0.00  0.00    +0.000 NA
ATOM      9  C   UNL     1       1.929   4.668  19.514  0.00  0.00    +0.000 A 
ENDROOT
BRANCH   1  11
ATOM     10  N   UNL     1       1.702   8.115  18.511  0.00  0.00    +0.000 N 
ATOM     11  C   UNL     1       2.195   7.214  19.441  0.00  0.00    +0.000 C 
ATOM     12  O   UNL     1       2.447   7.478  20.614  0.00  0.00    +0.000 OA
ATOM     13  H   UNL     1       1.864   7.884  17.528  0.00  0.00    +0.000 HD
BRANCH  10  16
ATOM     14  C   UNL     1      -0.546   8.825  20.251  0.00  0.00    +0.000 C 
ATOM     15  C   UNL     1       0.399   9.867  19.695  0.00  0.00    +0.000 A 
ATOM     16  C   UNL     1       1.416   9.461  18.801  0.00  0.00    +0.000 A 
ATOM     17  C   UNL     1       2.164  10.394  18.080  0.00  0.00    +0.000 A 
ATOM     18  C   UNL     1       1.989  11.750  18.322  0.00  0.00    +0.000 A 
ATOM     19  C   UNL     1       1.046  12.166  19.261  0.00  0.00    +0.000 A 
ATOM     20  C   UNL     1       0.222  11.259  19.973  0.00  0.00    +0.000 A 
BRANCH  20  21
ATOM     21  C   UNL     1      -0.809  11.799  20.915  0.00  0.00    +0.000 A 
ATOM     22  C   UNL     1      -1.983  12.425  20.451  0.00  0.00    +0.000 A 
ATOM     23  C   UNL     1      -2.994  12.848  21.328  0.00  0.00    +0.000 A 
ATOM     24  C   UNL     1      -2.875  12.617  22.690  0.00  0.00    +0.000 A 
ATOM     25  C   UNL     1      -1.713  12.045  23.187  0.00  0.00    +0.000 A 
ATOM     26  C   UNL     1      -0.682  11.692  22.311  0.00  0.00    +0.000 A 
ENDBRANCH  20  21
ENDBRANCH  10  16
ENDBRANCH   1  11
BRANCH   3  27
ATOM     27  C   UNL     1       4.659   4.352  16.181  0.00  0.00    +0.000 C 
BRANCH  27  28
ATOM     28  N   UNL     1       5.905   3.675  16.545  0.00  0.00    +0.000 NA
ATOM     29  H   UNL     1       6.240   3.131  15.751  0.00  0.00    +0.000 HD
BRANCH  28  30
ATOM     30  C   UNL     1       6.951   4.599  17.001  0.00  0.00    +0.000 C 
ATOM     31  C   UNL     1       6.668   5.995  16.407  0.00  0.00    +0.000 C 
ATOM     32  C   UNL     1       7.651   7.052  16.916  0.00  0.00    +0.000 C 
ATOM     33  C   UNL     1       7.686   7.090  18.441  0.00  0.00    +0.000 C 
ATOM     34  C   UNL     1       8.033   5.722  19.008  0.00  0.00    +0.000 C 
ATOM     35  C   UNL     1       7.040   4.667  18.535  0.00  0.00    +0.000 C 
BRANCH  33  36
ATOM     36  O   UNL     1       8.646   8.042  18.883  0.00  0.00    +0.000 OA
ATOM     37  H   UNL     1       9.410   8.011  18.282  0.00  0.00    +0.000 HD
ENDBRANCH  33  36
ENDBRANCH  28  30
ENDBRANCH  27  28
ENDBRANCH   3  27
TORSDOF 7
ENDMDL
MODEL 3
REMARK VINA RESULT:      -8.4      1.154      1.700
REMARK  Name = 
REMARK  8 active torsions:
REMARK  status: ('A' for Active; 'I' for Inactive)
REMARK    1  A    between atoms: C_1  and  C_2
REMARK    2  A    between atoms: C_3  and  N_4
REMARK    3  A    between atoms: C_5  and  C_7
REMARK    4  A    between atoms: C_9  and  C_10
REMARK    5  A    between atoms: C_10  and  N_11
REMARK    6  A    between atoms: N_11  and  C_12
REMARK    7  A    between atoms: C_15  and  O_16
REMARK    8  A    between atoms: C_28  and  C_29
REMARK                            x       y       z     vdW  Elec       q    Type
REMARK                         _______ _______ _______ _____ _____    ______ ____
ROOT
ATOM      1  C   UNL     1       0.385  10.382  20.384  0.00  0.00    +0.000 A 
ATOM      2  C   UNL     1       0.594  11.456  21.184  0.00  0.00    +0.000 A 
ATOM      3  C   UNL     1       0.072  12.779  20.850  0.00  0.00    +0.000 A 
ATOM      4  C   UNL     1      -0.651  12.914  19.714  0.00  0.00    +0.000 A 
ATOM      5  N   UNL     1      -0.899  11.801  18.935  0.00  0.00    +0.000 N 
ATOM      6  C   UNL     1      -1.590  11.662  17.762  0.00  0.00    +0.000 A 
ATOM      7  N   UNL     1      -1.608  10.397  17.399  0.00  0.00    +0.000 NA
ATOM      8  N   UNL     1      -0.890   9.684  18.327  0.00  0.00    +0.000 NA
ATOM      9  C   UNL     1      -0.435  10.529  19.233  0.00  0.00    +0.000 A 
ENDROOT
BRANCH   1  11
ATOM     10  N   UNL     1       1.387   8.338  19.574  0.00  0.00    +0.000 N 
ATOM     11  C   UNL     1       1.135   9.123  20.687  0.00  0.00    +0.000 C 
ATOM     12  O   UNL     1       1.466   8.842  21.836  0.00  0.00    +0.000 OA
ATOM     13  H   UNL     1       0.780   8.493  18.765  0.00  0.00    +0.000 HD
BRANCH  10  16
ATOM     14  C   UNL     1       3.420   7.677  17.571  0.00  0.00    +0.000 C 
ATOM     15  C   UNL     1       3.113   6.762  18.735  0.00  0.00    +0.000 A 
ATOM     16  C   UNL     1       2.066   7.108  19.620  0.00  0.00    +0.000 A 
ATOM     17  C   UNL     1       1.586   6.200  20.567  0.00  0.00    +0.000 A 
ATOM     18  C   UNL     1       2.215   4.972  20.722  0.00  0.00    +0.000 A 
ATOM     19  C   UNL     1       3.302   4.646  19.912  0.00  0.00    +0.000 A 
ATOM     20  C   UNL     1       3.787   5.510  18.898  0.00  0.00    +0.000 A 
BRANCH  20  21
ATOM     21  C   UNL     1       4.918   5.051  18.032  0.00  0.00    +0.000 A 
ATOM     22  C   UNL     1       4.694   4.414  16.794  0.00  0.00    +0.000 A 
ATOM     23  C   UNL     1       5.749   4.067  15.937  0.00  0.00    +0.000 A 
ATOM     24  C   UNL     1       7.056   4.385  16.277  0.00  0.00    +0.000 A 
ATOM     25  C   UNL     1       7.318   4.970  17.507  0.00  0.00    +0.000 A 
ATOM     26  C   UNL     1       6.264   5.247  18.384  0.00  0.00    +0.000 A 
ENDBRANCH  20  21
ENDBRANCH  10  16
ENDBRANCH   1  11
BRANCH   3  27
ATOM     27  C   UNL     1       0.390  13.939  21.754  0.00  0.00    +0.000 C 
BRANCH  27  28
ATOM     28  N   UNL     1      -0.143  13.735  23.102  0.00  0.00    +0.000 NA
ATOM     29  H   UNL     1       0.261  14.425  23.734  0.00  0.00    +0.000 HD
BRANCH  28  30
ATOM     30  C   UNL     1      -1.609  13.797  23.158  0.00  0.00    +0.000 C 
ATOM     31  C   UNL     1      -2.158  12.358  23.256  0.00  0.00    +0.000 C 
ATOM     32  C   UNL     1      -3.679  12.329  23.426  0.00  0.00    +0.000 C 
ATOM     33  C   UNL     1      -4.123  13.178  24.614  0.00  0.00    +0.000 C 
ATOM     34  C   UNL     1      -3.629  14.610  24.468  0.00  0.00    +0.000 C 
ATOM     35  C   UNL     1      -2.112  14.654  24.333  0.00  0.00    +0.000 C 
BRANCH  33  36
ATOM     36  O   UNL     1      -5.541  13.175  24.713  0.00  0.00    +0.000 OA
ATOM     37  H   UNL     1      -5.806  13.844  25.368  0.00  0.00    +0.000 HD
ENDBRANCH  33  36
ENDBRANCH  28  30
ENDBRANCH  27  28
ENDBRANCH   3  27
TORSDOF 7
ENDMDL
MODEL 4
REMARK VINA RESULT:      -8.3      3.346      4.852
REMARK  Name = 
REMARK  8 active torsions:
REMARK  status: ('A' for Active; 'I' for Inactive)
REMARK    1  A    between atoms: C_1  and  C_2
REMARK    2  A    between atoms: C_3  and  N_4
REMARK    3  A    between atoms: C_5  and  C_7
REMARK    4  A    between atoms: C_9  and  C_10
REMARK    5  A    between atoms: C_10  and  N_11
REMARK    6  A    between atoms: N_11  and  C_12
REMARK    7  A    between atoms: C_15  and  O_16
REMARK    8  A    between atoms: C_28  and  C_29
REMARK                            x       y       z     vdW  Elec       q    Type
REMARK                         _______ _______ _______ _____ _____    ______ ____
ROOT
ATOM      1  C   UNL     1       0.383  10.331  20.347  0.00  0.00    +0.000 A 
ATOM      2  C   UNL     1       0.809  11.399  21.065  0.00  0.00    +0.000 A 
ATOM      3  C   UNL     1       0.416  12.765  20.723  0.00  0.00    +0.000 A 
ATOM      4  C   UNL     1      -0.407  12.947  19.664  0.00  0.00    +0.000 A 
ATOM      5  N   UNL     1      -0.873  11.846  18.973  0.00  0.00    +0.000 N 
ATOM      6  C   UNL     1      -1.702  11.753  17.888  0.00  0.00    +0.000 A 
ATOM      7  N   UNL     1      -1.914  10.487  17.593  0.00  0.00    +0.000 NA
ATOM      8  N   UNL     1      -1.189   9.724  18.475  0.00  0.00    +0.000 NA
ATOM      9  C   UNL     1      -0.536  10.538  19.284  0.00  0.00    +0.000 A 
ENDROOT
BRANCH   1  11
ATOM     10  N   UNL     1       1.568   8.394  19.520  0.00  0.00    +0.000 N 
ATOM     11  C   UNL     1       1.004   9.000  20.631  0.00  0.00    +0.000 C 
ATOM     12  O   UNL     1       0.980   8.517  21.761  0.00  0.00    +0.000 OA
ATOM     13  H   UNL     1       1.227   8.714  18.610  0.00  0.00    +0.000 HD
BRANCH  10  16
ATOM     14  C   UNL     1       3.530   7.660  17.473  0.00  0.00    +0.000 C 
ATOM     15  C   UNL     1       3.210   6.753  18.639  0.00  0.00    +0.000 A 
ATOM     16  C   UNL     1       2.197   7.137  19.548  0.00  0.00    +0.000 A 
ATOM     17  C   UNL     1       1.700   6.246  20.501  0.00  0.00    +0.000 A 
ATOM     18  C   UNL     1       2.281   4.992  20.638  0.00  0.00    +0.000 A 
ATOM     19  C   UNL     1       3.335   4.626  19.804  0.00  0.00    +0.000 A 
ATOM     20  C   UNL     1       3.835   5.474  18.784  0.00  0.00    +0.000 A 
BRANCH  20  21
ATOM     21  C   UNL     1       4.928   4.972  17.892  0.00  0.00    +0.000 A 
ATOM     22  C   UNL     1       4.654   4.381  16.642  0.00  0.00    +0.000 A 
ATOM     23  C   UNL     1       5.678   3.996  15.764  0.00  0.00    +0.000 A 
ATOM     24  C   UNL     1       7.005   4.230  16.096  0.00  0.00    +0.000 A 
ATOM     25  C   UNL     1       7.313   4.767  17.336  0.00  0.00    +0.000 A 
ATOM     26  C   UNL     1       6.287   5.082  18.233  0.00  0.00    +0.000 A 
ENDBRANCH  20  21
ENDBRANCH  10  16
ENDBRANCH   1  11
BRANCH   3  27
ATOM     27  C   UNL     1       0.972  13.907  21.527  0.00  0.00    +0.000 C 
BRANCH  27  28
ATOM     28  N   UNL     1       2.430  13.987  21.415  0.00  0.00    +0.000 NA
ATOM     29  H   UNL     1       2.797  13.087  21.110  0.00  0.00    +0.000 HD
BRANCH  28  30
ATOM     30  C   UNL     1       2.881  15.050  20.507  0.00  0.00    +0.000 C 
ATOM     31  C   UNL     1       3.198  14.421  19.134  0.00  0.00    +0.000 C 
ATOM     32  C   UNL     1       3.576  15.473  18.088  0.00  0.00    +0.000 C 
ATOM     33  C   UNL     1       2.504  16.553  17.973  0.00  0.00    +0.000 C 
ATOM     34  C   UNL     1       2.251  17.209  19.323  0.00  0.00    +0.000 C 
ATOM     35  C   UNL     1       1.841  16.175  20.364  0.00  0.00    +0.000 C 
BRANCH  33  36
ATOM     36  O   UNL     1       2.907  17.543  17.035  0.00  0.00    +0.000 OA
ATOM     37  H   UNL     1       2.514  18.393  17.296  0.00  0.00    +0.000 HD
ENDBRANCH  33  36
ENDBRANCH  28  30
ENDBRANCH  27  28
ENDBRANCH   3  27
TORSDOF 7
ENDMDL
MODEL 5
REMARK VINA RESULT:      -8.2      1.053      1.351
REMARK  Name = 
REMARK  8 active torsions:
REMARK  status: ('A' for Active; 'I' for Inactive)
REMARK    1  A    between atoms: C_1  and  C_2
REMARK    2  A    between atoms: C_3  and  N_4
REMARK    3  A    between atoms: C_5  and  C_7
REMARK    4  A    between atoms: C_9  and  C_10
REMARK    5  A    between atoms: C_10  and  N_11
REMARK    6  A    between atoms: N_11  and  C_12
REMARK    7  A    between atoms: C_15  and  O_16
REMARK    8  A    between atoms: C_28  and  C_29
REMARK                            x       y       z     vdW  Elec       q    Type
REMARK                         _______ _______ _______ _____ _____    ______ ____
ROOT
ATOM      1  C   UNL     1      -0.120   9.940  20.887  0.00  0.00    +0.000 A 
ATOM      2  C   UNL     1      -0.545  10.516  22.038  0.00  0.00    +0.000 A 
ATOM      3  C   UNL     1      -1.427  11.682  22.036  0.00  0.00    +0.000 A 
ATOM      4  C   UNL     1      -1.830  12.177  20.842  0.00  0.00    +0.000 A 
ATOM      5  N   UNL     1      -1.429  11.549  19.680  0.00  0.00    +0.000 N 
ATOM      6  C   UNL     1      -1.691  11.837  18.368  0.00  0.00    +0.000 A 
ATOM      7  N   UNL     1      -1.134  10.932  17.591  0.00  0.00    +0.000 NA
ATOM      8  N   UNL     1      -0.463  10.043  18.394  0.00  0.00    +0.000 NA
ATOM      9  C   UNL     1      -0.610  10.431  19.648  0.00  0.00    +0.000 A 
ENDROOT
BRANCH   1  11
ATOM     10  N   UNL     1       0.975   8.026  19.898  0.00  0.00    +0.000 N 
ATOM     11  C   UNL     1       0.947   8.894  20.978  0.00  0.00    +0.000 C 
ATOM     12  O   UNL     1       1.698   8.837  21.948  0.00  0.00    +0.000 OA
ATOM     13  H   UNL     1       0.114   7.956  19.352  0.00  0.00    +0.000 HD
BRANCH  10  16
ATOM     14  C   UNL     1       2.881   7.942  17.675  0.00  0.00    +0.000 C 
ATOM     15  C   UNL     1       2.882   6.901  18.772  0.00  0.00    +0.000 A 
ATOM     16  C   UNL     1       1.885   6.961  19.773  0.00  0.00    +0.000 A 
ATOM     17  C   UNL     1       1.693   5.909  20.671  0.00  0.00    +0.000 A 
ATOM     18  C   UNL     1       2.564   4.828  20.659  0.00  0.00    +0.000 A 
ATOM     19  C   UNL     1       3.603   4.790  19.731  0.00  0.00    +0.000 A 
ATOM     20  C   UNL     1       3.802   5.806  18.762  0.00  0.00    +0.000 A 
BRANCH  20  21
ATOM     21  C   UNL     1       4.906   5.651  17.762  0.00  0.00    +0.000 A 
ATOM     22  C   UNL     1       6.198   6.161  18.000  0.00  0.00    +0.000 A 
ATOM     23  C   UNL     1       7.259   5.937  17.109  0.00  0.00    +0.000 A 
ATOM     24  C   UNL     1       7.064   5.160  15.976  0.00  0.00    +0.000 A 
ATOM     25  C   UNL     1       5.796   4.680  15.687  0.00  0.00    +0.000 A 
ATOM     26  C   UNL     1       4.731   4.969  16.546  0.00  0.00    +0.000 A 
ENDBRANCH  20  21
ENDBRANCH  10  16
ENDBRANCH   1  11
BRANCH   3  27
ATOM     27  C   UNL     1      -1.813  12.307  23.348  0.00  0.00    +0.000 C 
BRANCH  27  28
ATOM     28  N   UNL     1      -3.152  11.889  23.771  0.00  0.00    +0.000 NA
ATOM     29  H   UNL     1      -3.072  11.188  24.505  0.00  0.00    +0.000 HD
BRANCH  28  30
ATOM     30  C   UNL     1      -3.987  13.007  24.230  0.00  0.00    +0.000 C 
ATOM     31  C   UNL     1      -3.096  14.258  24.376  0.00  0.00    +0.000 C 
ATOM     32  C   UNL     1      -3.904  15.504  24.750  0.00  0.00    +0.000 C 
ATOM     33  C   UNL     1      -5.045  15.743  23.766  0.00  0.00    +0.000 C 
ATOM     34  C   UNL     1      -5.952  14.523  23.684  0.00  0.00    +0.000 C 
ATOM     35  C   UNL     1      -5.164  13.284  23.279  0.00  0.00    +0.000 C 
BRANCH  33  36
ATOM     36  O   UNL     1      -5.808  16.873  24.169  0.00  0.00    +0.000 OA
ATOM     37  H   UNL     1      -5.317  17.678  23.930  0.00  0.00    +0.000 HD
ENDBRANCH  33  36
ENDBRANCH  28  30
ENDBRANCH  27  28
ENDBRANCH   3  27
TORSDOF 7
ENDMDL
MODEL 6
REMARK VINA RESULT:      -8.2      1.186      1.438
REMARK  Name = 
REMARK  8 active torsions:
REMARK  status: ('A' for Active; 'I' for Inactive)
REMARK    1  A    between atoms: C_1  and  C_2
REMARK    2  A    between atoms: C_3  and  N_4
REMARK    3  A    between atoms: C_5  and  C_7
REMARK    4  A    between atoms: C_9  and  C_10
REMARK    5  A    between atoms: C_10  and  N_11
REMARK    6  A    between atoms: N_11  and  C_12
REMARK    7  A    between atoms: C_15  and  O_16
REMARK    8  A    between atoms: C_28  and  C_29
REMARK                            x       y       z     vdW  Elec       q    Type
REMARK                         _______ _______ _______ _____ _____    ______ ____
ROOT
ATOM      1  C   UNL     1       0.656   9.984  20.856  0.00  0.00    +0.000 A 
ATOM      2  C   UNL     1      -0.290  10.255  21.788  0.00  0.00    +0.000 A 
ATOM      3  C   UNL     1      -0.952  11.556  21.860  0.00  0.00    +0.000 A 
ATOM      4  C   UNL     1      -0.607  12.499  20.953  0.00  0.00    +0.000 A 
ATOM      5  N   UNL     1       0.322  12.193  19.979  0.00  0.00    +0.000 N 
ATOM      6  C   UNL     1       0.837  12.948  18.960  0.00  0.00    +0.000 A 
ATOM      7  N   UNL     1       1.668  12.223  18.241  0.00  0.00    +0.000 NA
ATOM      8  N   UNL     1       1.735  10.975  18.807  0.00  0.00    +0.000 NA
ATOM      9  C   UNL     1       0.953  10.963  19.871  0.00  0.00    +0.000 A 
ENDROOT
BRANCH   1  11
ATOM     10  N   UNL     1       1.511   7.975  19.822  0.00  0.00    +0.000 N 
ATOM     11  C   UNL     1       1.433   8.712  20.992  0.00  0.00    +0.000 C 
ATOM     12  O   UNL     1       1.926   8.381  22.067  0.00  0.00    +0.000 OA
ATOM     13  H   UNL     1       0.793   8.166  19.119  0.00  0.00    +0.000 HD
BRANCH  10  16
ATOM     14  C   UNL     1       3.446   7.506  17.673  0.00  0.00    +0.000 C 
ATOM     15  C   UNL     1       3.182   6.481  18.753  0.00  0.00    +0.000 A 
ATOM     16  C   UNL     1       2.180   6.743  19.715  0.00  0.00    +0.000 A 
ATOM     17  C   UNL     1       1.734   5.748  20.589  0.00  0.00    +0.000 A 
ATOM     18  C   UNL     1       2.357   4.508  20.593  0.00  0.00    +0.000 A 
ATOM     19  C   UNL     1       3.402   4.258  19.705  0.00  0.00    +0.000 A 
ATOM     20  C   UNL     1       3.850   5.216  18.761  0.00  0.00    +0.000 A 
BRANCH  20  21
ATOM     21  C   UNL     1       4.937   4.838  17.803  0.00  0.00    +0.000 A 
ATOM     22  C   UNL     1       4.651   4.308  16.528  0.00  0.00    +0.000 A 
ATOM     23  C   UNL     1       5.663   4.041  15.593  0.00  0.00    +0.000 A 
ATOM     24  C   UNL     1       6.984   4.337  15.893  0.00  0.00    +0.000 A 
ATOM     25  C   UNL     1       7.307   4.817  17.153  0.00  0.00    +0.000 A 
ATOM     26  C   UNL     1       6.299   5.013  18.102  0.00  0.00    +0.000 A 
ENDBRANCH  20  21
ENDBRANCH  10  16
ENDBRANCH   1  11
BRANCH   3  27
ATOM     27  C   UNL     1      -1.951  11.807  22.955  0.00  0.00    +0.000 C 
BRANCH  27  28
ATOM     28  N   UNL     1      -2.070  13.235  23.260  0.00  0.00    +0.000 NA
ATOM     29  H   UNL     1      -1.968  13.775  22.402  0.00  0.00    +0.000 HD
BRANCH  28  30
ATOM     30  C   UNL     1      -3.333  13.579  23.925  0.00  0.00    +0.000 C 
ATOM     31  C   UNL     1      -4.165  14.465  22.974  0.00  0.00    +0.000 C 
ATOM     32  C   UNL     1      -5.549  14.787  23.543  0.00  0.00    +0.000 C 
ATOM     33  C   UNL     1      -6.303  13.516  23.924  0.00  0.00    +0.000 C 
ATOM     34  C   UNL     1      -5.498  12.687  24.914  0.00  0.00    +0.000 C 
ATOM     35  C   UNL     1      -4.130  12.331  24.344  0.00  0.00    +0.000 C 
BRANCH  33  36
ATOM     36  O   UNL     1      -7.561  13.848  24.498  0.00  0.00    +0.000 OA
ATOM     37  H   UNL     1      -7.584  14.808  24.655  0.00  0.00    +0.000 HD
ENDBRANCH  33  36
ENDBRANCH  28  30
ENDBRANCH  27  28
ENDBRANCH   3  27
TORSDOF 7
ENDMDL
MODEL 7
REMARK VINA RESULT:      -8.2      1.581      2.062
REMARK  Name = 
REMARK  8 active torsions:
REMARK  status: ('A' for Active; 'I' for Inactive)
REMARK    1  A    between atoms: C_1  and  C_2
REMARK    2  A    between atoms: C_3  and  N_4
REMARK    3  A    between atoms: C_5  and  C_7
REMARK    4  A    between atoms: C_9  and  C_10
REMARK    5  A    between atoms: C_10  and  N_11
REMARK    6  A    between atoms: N_11  and  C_12
REMARK    7  A    between atoms: C_15  and  O_16
REMARK    8  A    between atoms: C_28  and  C_29
REMARK                            x       y       z     vdW  Elec       q    Type
REMARK                         _______ _______ _______ _____ _____    ______ ____
ROOT
ATOM      1  C   UNL     1       0.478  10.123  21.012  0.00  0.00    +0.000 A 
ATOM      2  C   UNL     1      -0.478  10.359  21.943  0.00  0.00    +0.000 A 
ATOM      3  C   UNL     1      -1.176  11.642  22.023  0.00  0.00    +0.000 A 
ATOM      4  C   UNL     1      -0.854  12.602  21.125  0.00  0.00    +0.000 A 
ATOM      5  N   UNL     1       0.086  12.329  20.151  0.00  0.00    +0.000 N 
ATOM      6  C   UNL     1       0.583  13.106  19.141  0.00  0.00    +0.000 A 
ATOM      7  N   UNL     1       1.436  12.411  18.419  0.00  0.00    +0.000 NA
ATOM      8  N   UNL     1       1.535  11.160  18.975  0.00  0.00    +0.000 NA
ATOM      9  C   UNL     1       0.751  11.118  20.036  0.00  0.00    +0.000 A 
ENDROOT
BRANCH   1  11
ATOM     10  N   UNL     1       1.360   8.128  19.973  0.00  0.00    +0.000 N 
ATOM     11  C   UNL     1       1.288   8.871  21.140  0.00  0.00    +0.000 C 
ATOM     12  O   UNL     1       1.812   8.561  22.207  0.00  0.00    +0.000 OA
ATOM     13  H   UNL     1       0.623   8.296  19.284  0.00  0.00    +0.000 HD
BRANCH  10  16
ATOM     14  C   UNL     1       3.287   7.704  17.807  0.00  0.00    +0.000 C 
ATOM     15  C   UNL     1       3.057   6.673  18.890  0.00  0.00    +0.000 A 
ATOM     16  C   UNL     1       2.057   6.912  19.861  0.00  0.00    +0.000 A 
ATOM     17  C   UNL     1       1.643   5.907  20.738  0.00  0.00    +0.000 A 
ATOM     18  C   UNL     1       2.295   4.682  20.737  0.00  0.00    +0.000 A 
ATOM     19  C   UNL     1       3.338   4.457  19.841  0.00  0.00    +0.000 A 
ATOM     20  C   UNL     1       3.755   5.425  18.892  0.00  0.00    +0.000 A 
BRANCH  20  21
ATOM     21  C   UNL     1       4.842   5.073  17.925  0.00  0.00    +0.000 A 
ATOM     22  C   UNL     1       4.559   4.510  16.663  0.00  0.00    +0.000 A 
ATOM     23  C   UNL     1       5.567   4.267  15.718  0.00  0.00    +0.000 A 
ATOM     24  C   UNL     1       6.880   4.618  15.994  0.00  0.00    +0.000 A 
ATOM     25  C   UNL     1       7.202   5.131  17.241  0.00  0.00    +0.000 A 
ATOM     26  C   UNL     1       6.201   5.305  18.201  0.00  0.00    +0.000 A 
ENDBRANCH  20  21
ENDBRANCH  10  16
ENDBRANCH   1  11
BRANCH   3  27
ATOM     27  C   UNL     1      -2.185  11.856  23.117  0.00  0.00    +0.000 C 
BRANCH  27  28
ATOM     28  N   UNL     1      -3.381  12.542  22.621  0.00  0.00    +0.000 NA
ATOM     29  H   UNL     1      -4.086  11.853  22.366  0.00  0.00    +0.000 HD
BRANCH  28  30
ATOM     30  C   UNL     1      -3.937  13.500  23.586  0.00  0.00    +0.000 C 
ATOM     31  C   UNL     1      -2.778  14.318  24.192  0.00  0.00    +0.000 C 
ATOM     32  C   UNL     1      -3.275  15.418  25.133  0.00  0.00    +0.000 C 
ATOM     33  C   UNL     1      -4.295  16.320  24.445  0.00  0.00    +0.000 C 
ATOM     34  C   UNL     1      -5.465  15.505  23.913  0.00  0.00    +0.000 C 
ATOM     35  C   UNL     1      -4.985  14.429  22.947  0.00  0.00    +0.000 C 
BRANCH  33  36
ATOM     36  O   UNL     1      -4.777  17.297  25.360  0.00  0.00    +0.000 OA
ATOM     37  H   UNL     1      -5.700  17.504  25.131  0.00  0.00    +0.000 HD
ENDBRANCH  33  36
ENDBRANCH  28  30
ENDBRANCH  27  28
ENDBRANCH   3  27
TORSDOF 7
ENDMDL
MODEL 8
REMARK VINA RESULT:      -8.1      2.548      4.685
REMARK  Name = 
REMARK  8 active torsions:
REMARK  status: ('A' for Active; 'I' for Inactive)
REMARK    1  A    between atoms: C_1  and  C_2
REMARK    2  A    between atoms: C_3  and  N_4
REMARK    3  A    between atoms: C_5  and  C_7
REMARK    4  A    between atoms: C_9  and  C_10
REMARK    5  A    between atoms: C_10  and  N_11
REMARK    6  A    between atoms: N_11  and  C_12
REMARK    7  A    between atoms: C_15  and  O_16
REMARK    8  A    between atoms: C_28  and  C_29
REMARK                            x       y       z     vdW  Elec       q    Type
REMARK                         _______ _______ _______ _____ _____    ______ ____
ROOT
ATOM      1  C   UNL     1       0.187  10.087  20.808  0.00  0.00    +0.000 A 
ATOM      2  C   UNL     1      -0.043  10.516  19.544  0.00  0.00    +0.000 A 
ATOM      3  C   UNL     1      -1.048  11.536  19.246  0.00  0.00    +0.000 A 
ATOM      4  C   UNL     1      -1.746  12.065  20.278  0.00  0.00    +0.000 A 
ATOM      5  N   UNL     1      -1.466  11.654  21.566  0.00  0.00    +0.000 N 
ATOM      6  C   UNL     1      -2.012  12.024  22.765  0.00  0.00    +0.000 A 
ATOM      7  N   UNL     1      -1.396  11.402  23.748  0.00  0.00    +0.000 NA
ATOM      8  N   UNL     1      -0.445  10.581  23.196  0.00  0.00    +0.000 NA
ATOM      9  C   UNL     1      -0.507  10.704  21.883  0.00  0.00    +0.000 A 
ENDROOT
BRANCH   1  11
ATOM     10  N   UNL     1       1.214   8.117  19.857  0.00  0.00    +0.000 N 
ATOM     11  C   UNL     1       1.070   8.893  20.996  0.00  0.00    +0.000 C 
ATOM     12  O   UNL     1       1.589   8.652  22.083  0.00  0.00    +0.000 OA
ATOM     13  H   UNL     1       0.484   8.216  19.148  0.00  0.00    +0.000 HD
BRANCH  10  16
ATOM     14  C   UNL     1       3.220   7.749  17.754  0.00  0.00    +0.000 C 
ATOM     15  C   UNL     1       3.025   6.739  18.863  0.00  0.00    +0.000 A 
ATOM     16  C   UNL     1       1.987   6.945  19.801  0.00  0.00    +0.000 A 
ATOM     17  C   UNL     1       1.613   5.943  20.700  0.00  0.00    +0.000 A 
ATOM     18  C   UNL     1       2.339   4.761  20.754  0.00  0.00    +0.000 A 
ATOM     19  C   UNL     1       3.418   4.575  19.891  0.00  0.00    +0.000 A 
ATOM     20  C   UNL     1       3.799   5.537  18.923  0.00  0.00    +0.000 A 
BRANCH  20  21
ATOM     21  C   UNL     1       4.931   5.225  17.994  0.00  0.00    +0.000 A 
ATOM     22  C   UNL     1       6.275   5.420  18.371  0.00  0.00    +0.000 A 
ATOM     23  C   UNL     1       7.341   5.041  17.540  0.00  0.00    +0.000 A 
ATOM     24  C   UNL     1       7.089   4.418  16.327  0.00  0.00    +0.000 A 
ATOM     25  C   UNL     1       5.780   4.252  15.903  0.00  0.00    +0.000 A 
ATOM     26  C   UNL     1       4.726   4.697  16.708  0.00  0.00    +0.000 A 
ENDBRANCH  20  21
ENDBRANCH  10  16
ENDBRANCH   1  11
BRANCH   3  27
ATOM     27  C   UNL     1      -1.292  11.924  17.814  0.00  0.00    +0.000 C 
BRANCH  27  28
ATOM     28  N   UNL     1      -0.715  13.234  17.504  0.00  0.00    +0.000 NA
ATOM     29  H   UNL     1      -1.465  13.910  17.365  0.00  0.00    +0.000 HD
BRANCH  28  30
ATOM     30  C   UNL     1       0.213  13.713  18.535  0.00  0.00    +0.000 C 
ATOM     31  C   UNL     1       1.655  13.402  18.083  0.00  0.00    +0.000 C 
ATOM     32  C   UNL     1       2.700  13.962  19.050  0.00  0.00    +0.000 C 
ATOM     33  C   UNL     1       2.499  15.457  19.281  0.00  0.00    +0.000 C 
ATOM     34  C   UNL     1       1.093  15.740  19.791  0.00  0.00    +0.000 C 
ATOM     35  C   UNL     1       0.044  15.216  18.819  0.00  0.00    +0.000 C 
BRANCH  33  36
ATOM     36  O   UNL     1       3.449  15.937  20.224  0.00  0.00    +0.000 OA
ATOM     37  H   UNL     1       3.319  15.462  21.062  0.00  0.00    +0.000 HD
ENDBRANCH  33  36
ENDBRANCH  28  30
ENDBRANCH  27  28
ENDBRANCH   3  27
TORSDOF 7
ENDMDL
MODEL 9
REMARK VINA RESULT:      -8.1      3.252      5.174
REMARK  Name = 
REMARK  8 active torsions:
REMARK  status: ('A' for Active; 'I' for Inactive)
REMARK    1  A    between atoms: C_1  and  C_2
REMARK    2  A    between atoms: C_3  and  N_4
REMARK    3  A    between atoms: C_5  and  C_7
REMARK    4  A    between atoms: C_9  and  C_10
REMARK    5  A    between atoms: C_10  and  N_11
REMARK    6  A    between atoms: N_11  and  C_12
REMARK    7  A    between atoms: C_15  and  O_16
REMARK    8  A    between atoms: C_28  and  C_29
REMARK                            x       y       z     vdW  Elec       q    Type
REMARK                         _______ _______ _______ _____ _____    ______ ____
ROOT
ATOM      1  C   UNL     1       0.643  10.480  21.026  0.00  0.00    +0.000 A 
ATOM      2  C   UNL     1       0.940  11.223  19.933  0.00  0.00    +0.000 A 
ATOM      3  C   UNL     1       0.181  12.424  19.587  0.00  0.00    +0.000 A 
ATOM      4  C   UNL     1      -0.834  12.795  20.401  0.00  0.00    +0.000 A 
ATOM      5  N   UNL     1      -1.093  12.057  21.539  0.00  0.00    +0.000 N 
ATOM      6  C   UNL     1      -2.040  12.213  22.514  0.00  0.00    +0.000 A 
ATOM      7  N   UNL     1      -1.884  11.293  23.442  0.00  0.00    +0.000 NA
ATOM      8  N   UNL     1      -0.836  10.490  23.065  0.00  0.00    +0.000 NA
ATOM      9  C   UNL     1      -0.380  10.926  21.905  0.00  0.00    +0.000 A 
ENDROOT
BRANCH   1  11
ATOM     10  N   UNL     1       1.416   8.430  20.007  0.00  0.00    +0.000 N 
ATOM     11  C   UNL     1       1.324   9.157  21.183  0.00  0.00    +0.000 C 
ATOM     12  O   UNL     1       1.736   8.781  22.278  0.00  0.00    +0.000 OA
ATOM     13  H   UNL     1       0.752   8.677  19.270  0.00  0.00    +0.000 HD
BRANCH  10  16
ATOM     14  C   UNL     1       3.333   7.819  17.878  0.00  0.00    +0.000 C 
ATOM     15  C   UNL     1       2.997   6.823  18.966  0.00  0.00    +0.000 A 
ATOM     16  C   UNL     1       2.006   7.157  19.918  0.00  0.00    +0.000 A 
ATOM     17  C   UNL     1       1.492   6.201  20.797  0.00  0.00    +0.000 A 
ATOM     18  C   UNL     1       2.036   4.924  20.817  0.00  0.00    +0.000 A 
ATOM     19  C   UNL     1       3.070   4.600  19.941  0.00  0.00    +0.000 A 
ATOM     20  C   UNL     1       3.584   5.519  18.991  0.00  0.00    +0.000 A 
BRANCH  20  21
ATOM     21  C   UNL     1       4.652   5.064  18.045  0.00  0.00    +0.000 A 
ATOM     22  C   UNL     1       4.341   4.486  16.797  0.00  0.00    +0.000 A 
ATOM     23  C   UNL     1       5.337   4.145  15.869  0.00  0.00    +0.000 A 
ATOM     24  C   UNL     1       6.669   4.413  16.149  0.00  0.00    +0.000 A 
ATOM     25  C   UNL     1       7.016   4.938  17.384  0.00  0.00    +0.000 A 
ATOM     26  C   UNL     1       6.021   5.208  18.329  0.00  0.00    +0.000 A 
ENDBRANCH  20  21
ENDBRANCH  10  16
ENDBRANCH   1  11
BRANCH   3  27
ATOM     27  C   UNL     1       0.527  13.169  18.327  0.00  0.00    +0.000 C 
BRANCH  27  28
ATOM     28  N   UNL     1       1.959  13.086  18.028  0.00  0.00    +0.000 NA
ATOM     29  H   UNL     1       2.086  12.781  17.064  0.00  0.00    +0.000 HD
BRANCH  28  30
ATOM     30  C   UNL     1       2.669  14.351  18.254  0.00  0.00    +0.000 C 
ATOM     31  C   UNL     1       1.636  15.497  18.286  0.00  0.00    +0.000 C 
ATOM     32  C   UNL     1       2.276  16.846  18.624  0.00  0.00    +0.000 C 
ATOM     33  C   UNL     1       3.070  16.774  19.925  0.00  0.00    +0.000 C 
ATOM     34  C   UNL     1       4.129  15.684  19.852  0.00  0.00    +0.000 C 
ATOM     35  C   UNL     1       3.499  14.330  19.550  0.00  0.00    +0.000 C 
BRANCH  33  36
ATOM     36  O   UNL     1       3.696  18.025  20.184  0.00  0.00    +0.000 OA
ATOM     37  H   UNL     1       4.420  17.881  20.818  0.00  0.00    +0.000 HD
ENDBRANCH  33  36
ENDBRANCH  28  30
ENDBRANCH  27  28
ENDBRANCH   3  27
TORSDOF 7
ENDMDL
