MODEL 1
REMARK VINA RESULT:      -7.5      0.000      0.000
REMARK  Name = 
REMARK  4 active torsions:
REMARK  status: ('A' for Active; 'I' for Inactive)
REMARK    1  A    between atoms: C_2  and  C_10
REMARK    2  A    between atoms: N_3  and  C_4
REMARK    3  A    between atoms: N_14  and  S_15
REMARK    4  A    between atoms: S_15  and  C_18
REMARK                            x       y       z     vdW  Elec       q    Type
REMARK                         _______ _______ _______ _____ _____    ______ ____
ROOT
ATOM      1  C   UNL     1       5.736   4.769  18.763  0.00  0.00    +0.000 C 
ATOM      2  C   UNL     1       6.727   5.694  19.465  0.00  0.00    +0.000 C 
ATOM      3  C   UNL     1       8.073   5.201  18.985  0.00  0.00    +0.000 C 
ATOM      4  C   UNL     1       7.815   4.561  17.621  0.00  0.00    +0.000 C 
ATOM      5  N   UNL     1       6.330   4.603  17.387  0.00  0.00    +0.000 NA
ENDROOT
BRANCH   1   7
ATOM      6  O   UNL     1       4.045   6.378  19.417  0.00  0.00    +0.000 OA
ATOM      7  C   UNL     1       4.304   5.255  18.988  0.00  0.00    +0.000 C 
ATOM      8  N   UNL     1       3.325   4.296  18.794  0.00  0.00    +0.000 N 
ATOM      9  H   UNL     1       3.583   3.442  18.313  0.00  0.00    +0.000 HD
BRANCH   8  10
ATOM     10  C   UNL     1       1.933   4.535  19.155  0.00  0.00    +0.000 C 
ATOM     11  C   UNL     1       1.025   3.331  18.869  0.00  0.00    +0.000 C 
ATOM     12  C   UNL     1       1.219   2.169  19.845  0.00  0.00    +0.000 C 
ATOM     13  C   UNL     1       1.284   2.585  21.315  0.00  0.00    +0.000 C 
ATOM     14  C   UNL     1       2.164   3.805  21.562  0.00  0.00    +0.000 C 
ATOM     15  C   UNL     1       1.792   4.949  20.624  0.00  0.00    +0.000 C 
ENDBRANCH   8  10
ENDBRANCH   1   7
BRANCH   5  16
ATOM     16  S   UNL     1       5.817   5.768  16.235  0.00  0.00    +0.000 S 
ATOM     17  O   UNL     1       4.380   5.886  16.336  0.00  0.00    +0.000 OA
ATOM     18  O   UNL     1       6.687   6.920  16.346  0.00  0.00    +0.000 OA
BRANCH  16  19
ATOM     19  C   UNL     1       6.149   5.011  14.641  0.00  0.00    +0.000 A 
ATOM     20  C   UNL     1       7.364   5.278  13.998  0.00  0.00    +0.000 A 
ATOM     21  C   UNL     1       7.705   4.585  12.831  0.00  0.00    +0.000 A 
ATOM     22  C   UNL     1       6.836   3.624  12.314  0.00  0.00    +0.000 A 
ATOM     23 CL   UNL     1       7.262   2.769  10.881  0.00  0.00    +0.000 Cl
ATOM     24  C   UNL     1       5.634   3.339  12.961  0.00  0.00    +0.000 A 
ATOM     25  C   UNL     1       5.292   4.025  14.135  0.00  0.00    +0.000 A 
ENDBRANCH  16  19
ENDBRANCH   5  16
TORSDOF 4
ENDMDL
MODEL 2
REMARK VINA RESULT:      -7.5      4.160      7.465
REMARK  Name = 
REMARK  4 active torsions:
REMARK  status: ('A' for Active; 'I' for Inactive)
REMARK    1  A    between atoms: C_2  and  C_10
REMARK    2  A    between atoms: N_3  and  C_4
REMARK    3  A    between atoms: N_14  and  S_15
REMARK    4  A    between atoms: S_15  and  C_18
REMARK                            x       y       z     vdW  Elec       q    Type
REMARK                         _______ _______ _______ _____ _____    ______ ____
ROOT
ATOM      1  C   UNL     1       3.476   3.898  19.684  0.00  0.00    +0.000 C 
ATOM      2  C   UNL     1       2.304   2.996  19.308  0.00  0.00    +0.000 C 
ATOM      3  C   UNL     1       1.241   3.354  20.322  0.00  0.00    +0.000 C 
ATOM      4  C   UNL     1       1.539   4.794  20.740  0.00  0.00    +0.000 C 
ATOM      5  N   UNL     1       2.810   5.201  20.047  0.00  0.00    +0.000 NA
ENDROOT
BRANCH   1   7
ATOM      6  O   UNL     1       4.531   3.015  17.689  0.00  0.00    +0.000 OA
ATOM      7  C   UNL     1       4.580   3.803  18.631  0.00  0.00    +0.000 C 
ATOM      8  N   UNL     1       5.697   4.580  18.885  0.00  0.00    +0.000 N 
ATOM      9  H   UNL     1       5.624   5.304  19.590  0.00  0.00    +0.000 HD
BRANCH   8  10
ATOM     10  C   UNL     1       6.914   4.459  18.091  0.00  0.00    +0.000 C 
ATOM     11  C   UNL     1       6.745   4.975  16.655  0.00  0.00    +0.000 C 
ATOM     12  C   UNL     1       6.669   6.498  16.554  0.00  0.00    +0.000 C 
ATOM     13  C   UNL     1       7.725   7.237  17.377  0.00  0.00    +0.000 C 
ATOM     14  C   UNL     1       7.895   6.680  18.786  0.00  0.00    +0.000 C 
ATOM     15  C   UNL     1       8.098   5.169  18.757  0.00  0.00    +0.000 C 
ENDBRANCH   8  10
ENDBRANCH   1   7
BRANCH   5  16
ATOM     16  S   UNL     1       2.596   6.291  18.738  0.00  0.00    +0.000 S 
ATOM     17  O   UNL     1       3.907   6.640  18.235  0.00  0.00    +0.000 OA
ATOM     18  O   UNL     1       1.565   5.756  17.873  0.00  0.00    +0.000 OA
BRANCH  16  19
ATOM     19  C   UNL     1       1.932   7.781  19.488  0.00  0.00    +0.000 A 
ATOM     20  C   UNL     1       1.630   8.879  18.673  0.00  0.00    +0.000 A 
ATOM     21  C   UNL     1       0.975   9.992  19.214  0.00  0.00    +0.000 A 
ATOM     22  C   UNL     1       0.620  10.002  20.563  0.00  0.00    +0.000 A 
ATOM     23 CL   UNL     1      -0.190  11.371  21.222  0.00  0.00    +0.000 Cl
ATOM     24  C   UNL     1       0.900   8.904  21.375  0.00  0.00    +0.000 A 
ATOM     25  C   UNL     1       1.548   7.783  20.836  0.00  0.00    +0.000 A 
ENDBRANCH  16  19
ENDBRANCH   5  16
TORSDOF 4
ENDMDL
MODEL 3
REMARK VINA RESULT:      -7.3      2.905      4.760
REMARK  Name = 
REMARK  4 active torsions:
REMARK  status: ('A' for Active; 'I' for Inactive)
REMARK    1  A    between atoms: C_2  and  C_10
REMARK    2  A    between atoms: N_3  and  C_4
REMARK    3  A    between atoms: N_14  and  S_15
REMARK    4  A    between atoms: S_15  and  C_18
REMARK                            x       y       z     vdW  Elec       q    Type
REMARK                         _______ _______ _______ _____ _____    ______ ____
ROOT
ATOM      1  C   UNL     1       1.767   4.605  18.908  0.00  0.00    +0.000 C 
ATOM      2  C   UNL     1       1.234   4.297  20.305  0.00  0.00    +0.000 C 
ATOM      3  C   UNL     1       1.151   2.787  20.328  0.00  0.00    +0.000 C 
ATOM      4  C   UNL     1       2.202   2.302  19.329  0.00  0.00    +0.000 C 
ATOM      5  N   UNL     1       2.793   3.523  18.681  0.00  0.00    +0.000 NA
ENDROOT
BRANCH   1   7
ATOM      6  O   UNL     1       2.786   6.543  17.868  0.00  0.00    +0.000 OA
ATOM      7  C   UNL     1       2.097   6.092  18.781  0.00  0.00    +0.000 C 
ATOM      8  N   UNL     1       1.669   6.877  19.839  0.00  0.00    +0.000 N 
ATOM      9  H   UNL     1       0.995   6.481  20.483  0.00  0.00    +0.000 HD
BRANCH   8  10
ATOM     10  C   UNL     1       2.069   8.272  19.971  0.00  0.00    +0.000 C 
ATOM     11  C   UNL     1       1.668   9.127  18.761  0.00  0.00    +0.000 C 
ATOM     12  C   UNL     1       0.170   9.424  18.688  0.00  0.00    +0.000 C 
ATOM     13  C   UNL     1      -0.451   9.863  20.014  0.00  0.00    +0.000 C 
ATOM     14  C   UNL     1      -0.006   9.018  21.203  0.00  0.00    +0.000 C 
ATOM     15  C   UNL     1       1.514   8.901  21.254  0.00  0.00    +0.000 C 
ENDBRANCH   8  10
ENDBRANCH   1   7
BRANCH   5  16
ATOM     16  S   UNL     1       4.381   3.915  19.203  0.00  0.00    +0.000 S 
ATOM     17  O   UNL     1       4.329   5.214  19.837  0.00  0.00    +0.000 OA
ATOM     18  O   UNL     1       4.930   2.758  19.878  0.00  0.00    +0.000 OA
BRANCH  16  19
ATOM     19  C   UNL     1       5.319   4.132  17.687  0.00  0.00    +0.000 A 
ATOM     20  C   UNL     1       4.672   3.974  16.455  0.00  0.00    +0.000 A 
ATOM     21  C   UNL     1       5.344   4.282  15.267  0.00  0.00    +0.000 A 
ATOM     22  C   UNL     1       6.656   4.754  15.312  0.00  0.00    +0.000 A 
ATOM     23 CL   UNL     1       7.477   5.137  13.848  0.00  0.00    +0.000 Cl
ATOM     24  C   UNL     1       7.299   4.933  16.536  0.00  0.00    +0.000 A 
ATOM     25  C   UNL     1       6.627   4.633  17.730  0.00  0.00    +0.000 A 
ENDBRANCH  16  19
ENDBRANCH   5  16
TORSDOF 4
ENDMDL
MODEL 4
REMARK VINA RESULT:      -7.3      2.870      4.670
REMARK  Name = 
REMARK  4 active torsions:
REMARK  status: ('A' for Active; 'I' for Inactive)
REMARK    1  A    between atoms: C_2  and  C_10
REMARK    2  A    between atoms: N_3  and  C_4
REMARK    3  A    between atoms: N_14  and  S_15
REMARK    4  A    between atoms: S_15  and  C_18
REMARK                            x       y       z     vdW  Elec       q    Type
REMARK                         _______ _______ _______ _____ _____    ______ ____
ROOT
ATOM      1  C   UNL     1       1.691   4.604  19.007  0.00  0.00    +0.000 C 
ATOM      2  C   UNL     1       1.199   4.222  20.400  0.00  0.00    +0.000 C 
ATOM      3  C   UNL     1       1.146   2.712  20.356  0.00  0.00    +0.000 C 
ATOM      4  C   UNL     1       2.181   2.294  19.312  0.00  0.00    +0.000 C 
ATOM      5  N   UNL     1       2.732   3.555  18.706  0.00  0.00    +0.000 NA
ENDROOT
BRANCH   1   7
ATOM      6  O   UNL     1       2.614   6.613  18.013  0.00  0.00    +0.000 OA
ATOM      7  C   UNL     1       1.989   6.102  18.940  0.00  0.00    +0.000 C 
ATOM      8  N   UNL     1       1.614   6.822  20.062  0.00  0.00    +0.000 N 
ATOM      9  H   UNL     1       0.987   6.380  20.724  0.00  0.00    +0.000 HD
BRANCH   8  10
ATOM     10  C   UNL     1       2.000   8.216  20.245  0.00  0.00    +0.000 C 
ATOM     11  C   UNL     1       1.534   9.121  19.096  0.00  0.00    +0.000 C 
ATOM     12  C   UNL     1       0.030   9.396  19.101  0.00  0.00    +0.000 C 
ATOM     13  C   UNL     1      -0.539   9.761  20.472  0.00  0.00    +0.000 C 
ATOM     14  C   UNL     1      -0.031   8.868  21.599  0.00  0.00    +0.000 C 
ATOM     15  C   UNL     1       1.491   8.774  21.579  0.00  0.00    +0.000 C 
ENDBRANCH   8  10
ENDBRANCH   1   7
BRANCH   5  16
ATOM     16  S   UNL     1       4.325   3.956  19.208  0.00  0.00    +0.000 S 
ATOM     17  O   UNL     1       4.251   5.179  19.975  0.00  0.00    +0.000 OA
ATOM     18  O   UNL     1       4.943   2.759  19.737  0.00  0.00    +0.000 OA
BRANCH  16  19
ATOM     19  C   UNL     1       5.192   4.366  17.689  0.00  0.00    +0.000 A 
ATOM     20  C   UNL     1       6.554   4.687  17.746  0.00  0.00    +0.000 A 
ATOM     21  C   UNL     1       7.280   4.864  16.563  0.00  0.00    +0.000 A 
ATOM     22  C   UNL     1       6.647   4.714  15.328  0.00  0.00    +0.000 A 
ATOM     23 CL   UNL     1       7.546   4.927  13.876  0.00  0.00    +0.000 Cl
ATOM     24  C   UNL     1       5.296   4.376  15.266  0.00  0.00    +0.000 A 
ATOM     25  C   UNL     1       4.566   4.189  16.448  0.00  0.00    +0.000 A 
ENDBRANCH  16  19
ENDBRANCH   5  16
TORSDOF 4
ENDMDL
MODEL 5
REMARK VINA RESULT:      -7.2      4.078      7.388
REMARK  Name = 
REMARK  4 active torsions:
REMARK  status: ('A' for Active; 'I' for Inactive)
REMARK    1  A    between atoms: C_2  and  C_10
REMARK    2  A    between atoms: N_3  and  C_4
REMARK    3  A    between atoms: N_14  and  S_15
REMARK    4  A    between atoms: S_15  and  C_18
REMARK                            x       y       z     vdW  Elec       q    Type
REMARK                         _______ _______ _______ _____ _____    ______ ____
ROOT
ATOM      1  C   UNL     1       3.897   4.079  19.716  0.00  0.00    +0.000 C 
ATOM      2  C   UNL     1       3.156   3.065  18.848  0.00  0.00    +0.000 C 
ATOM      3  C   UNL     1       1.770   3.028  19.450  0.00  0.00    +0.000 C 
ATOM      4  C   UNL     1       1.569   4.395  20.105  0.00  0.00    +0.000 C 
ATOM      5  N   UNL     1       2.863   5.148  19.961  0.00  0.00    +0.000 NA
ENDROOT
BRANCH   1   7
ATOM      6  O   UNL     1       6.182   4.886  19.777  0.00  0.00    +0.000 OA
ATOM      7  C   UNL     1       5.272   4.384  19.121  0.00  0.00    +0.000 C 
ATOM      8  N   UNL     1       5.377   4.171  17.757  0.00  0.00    +0.000 N 
ATOM      9  H   UNL     1       4.650   3.632  17.301  0.00  0.00    +0.000 HD
BRANCH   8  10
ATOM     10  C   UNL     1       6.550   4.595  17.002  0.00  0.00    +0.000 C 
ATOM     11  C   UNL     1       6.828   3.708  15.780  0.00  0.00    +0.000 C 
ATOM     12  C   UNL     1       5.843   3.919  14.630  0.00  0.00    +0.000 C 
ATOM     13  C   UNL     1       5.562   5.386  14.303  0.00  0.00    +0.000 C 
ATOM     14  C   UNL     1       5.325   6.249  15.537  0.00  0.00    +0.000 C 
ATOM     15  C   UNL     1       6.439   6.059  16.560  0.00  0.00    +0.000 C 
ENDBRANCH   8  10
ENDBRANCH   1   7
BRANCH   5  16
ATOM     16  S   UNL     1       2.835   6.405  18.792  0.00  0.00    +0.000 S 
ATOM     17  O   UNL     1       4.193   6.867  18.607  0.00  0.00    +0.000 OA
ATOM     18  O   UNL     1       2.020   5.964  17.679  0.00  0.00    +0.000 OA
BRANCH  16  19
ATOM     19  C   UNL     1       1.951   7.750  19.589  0.00  0.00    +0.000 A 
ATOM     20  C   UNL     1       1.530   8.842  18.819  0.00  0.00    +0.000 A 
ATOM     21  C   UNL     1       0.714   9.826  19.389  0.00  0.00    +0.000 A 
ATOM     22  C   UNL     1       0.316   9.714  20.721  0.00  0.00    +0.000 A 
ATOM     23 CL   UNL     1      -0.693  10.924  21.415  0.00  0.00    +0.000 Cl
ATOM     24  C   UNL     1       0.715   8.619  21.487  0.00  0.00    +0.000 A 
ATOM     25  C   UNL     1       1.526   7.627  20.919  0.00  0.00    +0.000 A 
ENDBRANCH  16  19
ENDBRANCH   5  16
TORSDOF 4
ENDMDL
MODEL 6
REMARK VINA RESULT:      -7.2      4.095      7.422
REMARK  Name = 
REMARK  4 active torsions:
REMARK  status: ('A' for Active; 'I' for Inactive)
REMARK    1  A    between atoms: C_2  and  C_10
REMARK    2  A    between atoms: N_3  and  C_4
REMARK    3  A    between atoms: N_14  and  S_15
REMARK    4  A    between atoms: S_15  and  C_18
REMARK                            x       y       z     vdW  Elec       q    Type
REMARK                         _______ _______ _______ _____ _____    ______ ____
ROOT
ATOM      1  C   UNL     1       3.845   4.040  19.737  0.00  0.00    +0.000 C 
ATOM      2  C   UNL     1       3.113   3.035  18.851  0.00  0.00    +0.000 C 
ATOM      3  C   UNL     1       1.721   2.991  19.439  0.00  0.00    +0.000 C 
ATOM      4  C   UNL     1       1.513   4.350  20.108  0.00  0.00    +0.000 C 
ATOM      5  N   UNL     1       2.807   5.106  19.984  0.00  0.00    +0.000 NA
ENDROOT
BRANCH   1   7
ATOM      6  O   UNL     1       6.129   4.843  19.831  0.00  0.00    +0.000 OA
ATOM      7  C   UNL     1       5.224   4.353  19.159  0.00  0.00    +0.000 C 
ATOM      8  N   UNL     1       5.341   4.161  17.792  0.00  0.00    +0.000 N 
ATOM      9  H   UNL     1       4.618   3.631  17.322  0.00  0.00    +0.000 HD
BRANCH   8  10
ATOM     10  C   UNL     1       6.521   4.597  17.054  0.00  0.00    +0.000 C 
ATOM     11  C   UNL     1       6.810   3.727  15.822  0.00  0.00    +0.000 C 
ATOM     12  C   UNL     1       5.835   3.955  14.666  0.00  0.00    +0.000 C 
ATOM     13  C   UNL     1       5.557   5.426  14.357  0.00  0.00    +0.000 C 
ATOM     14  C   UNL     1       5.309   6.272  15.602  0.00  0.00    +0.000 C 
ATOM     15  C   UNL     1       6.414   6.067  16.633  0.00  0.00    +0.000 C 
ENDBRANCH   8  10
ENDBRANCH   1   7
BRANCH   5  16
ATOM     16  S   UNL     1       2.789   6.376  18.829  0.00  0.00    +0.000 S 
ATOM     17  O   UNL     1       4.141   6.873  18.698  0.00  0.00    +0.000 OA
ATOM     18  O   UNL     1       2.026   5.928  17.683  0.00  0.00    +0.000 OA
BRANCH  16  19
ATOM     19  C   UNL     1       1.843   7.688  19.609  0.00  0.00    +0.000 A 
ATOM     20  C   UNL     1       1.600   7.629  20.987  0.00  0.00    +0.000 A 
ATOM     21  C   UNL     1       0.996   8.710  21.638  0.00  0.00    +0.000 A 
ATOM     22  C   UNL     1       0.642   9.849  20.913  0.00  0.00    +0.000 A 
ATOM     23 CL   UNL     1      -0.095  11.179  21.720  0.00  0.00    +0.000 Cl
ATOM     24  C   UNL     1       0.900   9.922  19.545  0.00  0.00    +0.000 A 
ATOM     25  C   UNL     1       1.512   8.845  18.890  0.00  0.00    +0.000 A 
ENDBRANCH  16  19
ENDBRANCH   5  16
TORSDOF 4
ENDMDL
MODEL 7
REMARK VINA RESULT:      -7.2      0.163      1.001
REMARK  Name = 
REMARK  4 active torsions:
REMARK  status: ('A' for Active; 'I' for Inactive)
REMARK    1  A    between atoms: C_2  and  C_10
REMARK    2  A    between atoms: N_3  and  C_4
REMARK    3  A    between atoms: N_14  and  S_15
REMARK    4  A    between atoms: S_15  and  C_18
REMARK                            x       y       z     vdW  Elec       q    Type
REMARK                         _______ _______ _______ _____ _____    ______ ____
ROOT
ATOM      1  C   UNL     1       5.775   4.829  18.846  0.00  0.00    +0.000 C 
ATOM      2  C   UNL     1       6.743   5.834  19.466  0.00  0.00    +0.000 C 
ATOM      3  C   UNL     1       8.102   5.334  19.029  0.00  0.00    +0.000 C 
ATOM      4  C   UNL     1       7.861   4.574  17.725  0.00  0.00    +0.000 C 
ATOM      5  N   UNL     1       6.376   4.560  17.489  0.00  0.00    +0.000 NA
ENDROOT
BRANCH   1   7
ATOM      6  O   UNL     1       4.047   6.436  19.396  0.00  0.00    +0.000 OA
ATOM      7  C   UNL     1       4.332   5.299  19.029  0.00  0.00    +0.000 C 
ATOM      8  N   UNL     1       3.374   4.312  18.873  0.00  0.00    +0.000 N 
ATOM      9  H   UNL     1       3.653   3.440  18.439  0.00  0.00    +0.000 HD
BRANCH   8  10
ATOM     10  C   UNL     1       1.973   4.542  19.204  0.00  0.00    +0.000 C 
ATOM     11  C   UNL     1       1.076   3.339  18.882  0.00  0.00    +0.000 C 
ATOM     12  C   UNL     1       1.251   2.166  19.846  0.00  0.00    +0.000 C 
ATOM     13  C   UNL     1       1.280   2.562  21.322  0.00  0.00    +0.000 C 
ATOM     14  C   UNL     1       2.151   3.782  21.607  0.00  0.00    +0.000 C 
ATOM     15  C   UNL     1       1.797   4.936  20.675  0.00  0.00    +0.000 C 
ENDBRANCH   8  10
ENDBRANCH   1   7
BRANCH   5  16
ATOM     16  S   UNL     1       5.838   5.611  16.241  0.00  0.00    +0.000 S 
ATOM     17  O   UNL     1       4.392   5.604  16.252  0.00  0.00    +0.000 OA
ATOM     18  O   UNL     1       6.596   6.840  16.333  0.00  0.00    +0.000 OA
BRANCH  16  19
ATOM     19  C   UNL     1       6.334   4.800  14.718  0.00  0.00    +0.000 A 
ATOM     20  C   UNL     1       5.489   3.838  14.150  0.00  0.00    +0.000 A 
ATOM     21  C   UNL     1       5.785   3.304  12.890  0.00  0.00    +0.000 A 
ATOM     22  C   UNL     1       6.918   3.736  12.200  0.00  0.00    +0.000 A 
ATOM     23 CL   UNL     1       7.274   3.081  10.648  0.00  0.00    +0.000 Cl
ATOM     24  C   UNL     1       7.751   4.708  12.751  0.00  0.00    +0.000 A 
ATOM     25  C   UNL     1       7.455   5.252  14.009  0.00  0.00    +0.000 A 
ENDBRANCH  16  19
ENDBRANCH   5  16
TORSDOF 4
ENDMDL
MODEL 8
REMARK VINA RESULT:      -7.0      3.611      5.496
REMARK  Name = 
REMARK  4 active torsions:
REMARK  status: ('A' for Active; 'I' for Inactive)
REMARK    1  A    between atoms: C_2  and  C_10
REMARK    2  A    between atoms: N_3  and  C_4
REMARK    3  A    between atoms: N_14  and  S_15
REMARK    4  A    between atoms: S_15  and  C_18
REMARK                            x       y       z     vdW  Elec       q    Type
REMARK                         _______ _______ _______ _____ _____    ______ ____
ROOT
ATOM      1  C   UNL     1       4.375   3.948  16.258  0.00  0.00    +0.000 C 
ATOM      2  C   UNL     1       5.829   3.637  15.916  0.00  0.00    +0.000 C 
ATOM      3  C   UNL     1       6.247   4.803  15.049  0.00  0.00    +0.000 C 
ATOM      4  C   UNL     1       5.356   5.970  15.472  0.00  0.00    +0.000 C 
ATOM      5  N   UNL     1       4.383   5.438  16.488  0.00  0.00    +0.000 NA
ENDROOT
BRANCH   1   7
ATOM      6  O   UNL     1       4.466   1.944  17.618  0.00  0.00    +0.000 OA
ATOM      7  C   UNL     1       3.850   2.958  17.297  0.00  0.00    +0.000 C 
ATOM      8  N   UNL     1       2.570   3.219  17.758  0.00  0.00    +0.000 N 
ATOM      9  H   UNL     1       2.172   4.131  17.567  0.00  0.00    +0.000 HD
BRANCH   8  10
ATOM     10  C   UNL     1       1.848   2.271  18.598  0.00  0.00    +0.000 C 
ATOM     11  C   UNL     1       2.683   1.763  19.781  0.00  0.00    +0.000 C 
ATOM     12  C   UNL     1       2.878   2.800  20.887  0.00  0.00    +0.000 C 
ATOM     13  C   UNL     1       1.605   3.549  21.280  0.00  0.00    +0.000 C 
ATOM     14  C   UNL     1       0.778   4.011  20.085  0.00  0.00    +0.000 C 
ATOM     15  C   UNL     1       0.530   2.862  19.114  0.00  0.00    +0.000 C 
ENDBRANCH   8  10
ENDBRANCH   1   7
BRANCH   5  16
ATOM     16  S   UNL     1       4.702   5.916  18.106  0.00  0.00    +0.000 S 
ATOM     17  O   UNL     1       4.611   4.738  18.940  0.00  0.00    +0.000 OA
ATOM     18  O   UNL     1       5.879   6.759  18.101  0.00  0.00    +0.000 OA
BRANCH  16  19
ATOM     19  C   UNL     1       3.312   6.960  18.556  0.00  0.00    +0.000 A 
ATOM     20  C   UNL     1       2.722   6.806  19.817  0.00  0.00    +0.000 A 
ATOM     21  C   UNL     1       1.738   7.705  20.244  0.00  0.00    +0.000 A 
ATOM     22  C   UNL     1       1.350   8.757  19.413  0.00  0.00    +0.000 A 
ATOM     23 CL   UNL     1       0.143   9.864  19.944  0.00  0.00    +0.000 Cl
ATOM     24  C   UNL     1       1.947   8.927  18.164  0.00  0.00    +0.000 A 
ATOM     25  C   UNL     1       2.939   8.034  17.736  0.00  0.00    +0.000 A 
ENDBRANCH  16  19
ENDBRANCH   5  16
TORSDOF 4
ENDMDL
MODEL 9
REMARK VINA RESULT:      -6.9      3.611      6.688
REMARK  Name = 
REMARK  4 active torsions:
REMARK  status: ('A' for Active; 'I' for Inactive)
REMARK    1  A    between atoms: C_2  and  C_10
REMARK    2  A    between atoms: N_3  and  C_4
REMARK    3  A    between atoms: N_14  and  S_15
REMARK    4  A    between atoms: S_15  and  C_18
REMARK                            x       y       z     vdW  Elec       q    Type
REMARK                         _______ _______ _______ _____ _____    ______ ____
ROOT
ATOM      1  C   UNL     1       4.116   3.395  19.579  0.00  0.00    +0.000 C 
ATOM      2  C   UNL     1       4.339   2.097  18.807  0.00  0.00    +0.000 C 
ATOM      3  C   UNL     1       3.088   1.297  19.090  0.00  0.00    +0.000 C 
ATOM      4  C   UNL     1       1.997   2.327  19.381  0.00  0.00    +0.000 C 
ATOM      5  N   UNL     1       2.651   3.681  19.363  0.00  0.00    +0.000 NA
ENDROOT
BRANCH   1   7
ATOM      6  O   UNL     1       5.284   5.509  19.786  0.00  0.00    +0.000 OA
ATOM      7  C   UNL     1       5.211   4.408  19.244  0.00  0.00    +0.000 C 
ATOM      8  N   UNL     1       6.039   4.046  18.195  0.00  0.00    +0.000 N 
ATOM      9  H   UNL     1       6.020   3.082  17.884  0.00  0.00    +0.000 HD
BRANCH   8  10
ATOM     10  C   UNL     1       7.003   4.977  17.620  0.00  0.00    +0.000 C 
ATOM     11  C   UNL     1       7.639   4.455  16.324  0.00  0.00    +0.000 C 
ATOM     12  C   UNL     1       6.695   4.481  15.122  0.00  0.00    +0.000 C 
ATOM     13  C   UNL     1       5.907   5.781  14.967  0.00  0.00    +0.000 C 
ATOM     14  C   UNL     1       5.317   6.294  16.277  0.00  0.00    +0.000 C 
ATOM     15  C   UNL     1       6.379   6.354  17.370  0.00  0.00    +0.000 C 
ENDBRANCH   8  10
ENDBRANCH   1   7
BRANCH   5  16
ATOM     16  S   UNL     1       2.299   4.630  17.976  0.00  0.00    +0.000 S 
ATOM     17  O   UNL     1       3.469   4.620  17.126  0.00  0.00    +0.000 OA
ATOM     18  O   UNL     1       0.995   4.238  17.484  0.00  0.00    +0.000 OA
BRANCH  16  19
ATOM     19  C   UNL     1       2.143   6.307  18.598  0.00  0.00    +0.000 A 
ATOM     20  C   UNL     1       2.067   7.369  17.688  0.00  0.00    +0.000 A 
ATOM     21  C   UNL     1       1.797   8.664  18.145  0.00  0.00    +0.000 A 
ATOM     22  C   UNL     1       1.598   8.894  19.506  0.00  0.00    +0.000 A 
ATOM     23 CL   UNL     1       1.260  10.487  20.063  0.00  0.00    +0.000 Cl
ATOM     24  C   UNL     1       1.653   7.837  20.415  0.00  0.00    +0.000 A 
ATOM     25  C   UNL     1       1.915   6.537  19.962  0.00  0.00    +0.000 A 
ENDBRANCH  16  19
ENDBRANCH   5  16
TORSDOF 4
ENDMDL
