MODEL 1
REMARK VINA RESULT:      -7.3      0.000      0.000
REMARK  Name = 
REMARK  7 active torsions:
REMARK  status: ('A' for Active; 'I' for Inactive)
REMARK    1  A    between atoms: C_1  and  C_2
REMARK    2  A    between atoms: C_5  and  C_6
REMARK    3  A    between atoms: C_7  and  S_8
REMARK    4  A    between atoms: C_7  and  C_17
REMARK    5  A    between atoms: S_8  and  C_9
REMARK    6  A    between atoms: C_9  and  C_10
REMARK    7  A    between atoms: C_17  and  C_19
REMARK                            x       y       z     vdW  Elec       q    Type
REMARK                         _______ _______ _______ _____ _____    ______ ____
ROOT
ATOM      1  C   UNL     1       5.390   6.087  18.710  0.00  0.00    +0.000 C 
ATOM      2  C   UNL     1       6.559   6.203  18.032  0.00  0.00    +0.000 C 
ENDROOT
BRANCH   1   7
ATOM      3  C   UNL     1       1.274   2.724  18.551  0.00  0.00    +0.000 C 
ATOM      4  C   UNL     1       2.616   3.335  18.795  0.00  0.00    +0.000 A 
ATOM      5  C   UNL     1       3.747   2.730  19.293  0.00  0.00    +0.000 A 
ATOM      6  C   UNL     1       4.847   3.637  19.401  0.00  0.00    +0.000 A 
ATOM      7  C   UNL     1       4.583   4.907  18.905  0.00  0.00    +0.000 A 
ATOM      8  S   UNL     1       2.901   4.985  18.453  0.00  0.00    +0.000 S 
ENDBRANCH   1   7
BRANCH   2   9
ATOM      9  C   UNL     1       7.206   5.048  17.293  0.00  0.00    +0.000 C 
ATOM     10  O   UNL     1       8.061   4.352  17.842  0.00  0.00    +0.000 OA
BRANCH   9  11
ATOM     11  C   UNL     1       6.807   4.657  15.897  0.00  0.00    +0.000 A 
ATOM     12  C   UNL     1       7.485   5.033  14.731  0.00  0.00    +0.000 A 
ATOM     13  C   UNL     1       7.027   4.607  13.473  0.00  0.00    +0.000 A 
ATOM     14  C   UNL     1       5.917   3.772  13.375  0.00  0.00    +0.000 A 
ATOM     15 CL   UNL     1       5.387   3.217  11.835  0.00  0.00    +0.000 Cl
ATOM     16  C   UNL     1       5.241   3.369  14.522  0.00  0.00    +0.000 A 
ATOM     17  C   UNL     1       5.683   3.815  15.772  0.00  0.00    +0.000 A 
ENDBRANCH   9  11
ENDBRANCH   2   9
BRANCH   2  18
ATOM     18  S   UNL     1       7.200   7.785  17.575  0.00  0.00    +0.000 S 
BRANCH  18  19
ATOM     19  C   UNL     1       8.599   8.143  18.678  0.00  0.00    +0.000 C 
BRANCH  19  20
ATOM     20  C   UNL     1       8.851   9.644  18.761  0.00  0.00    +0.000 A 
ATOM     21  C   UNL     1       9.485  10.199  19.884  0.00  0.00    +0.000 A 
ATOM     22  C   UNL     1       9.698  11.584  19.984  0.00  0.00    +0.000 A 
ATOM     23  C   UNL     1       9.280  12.417  18.956  0.00  0.00    +0.000 A 
ATOM     24 CL   UNL     1       9.535  14.118  19.074  0.00  0.00    +0.000 Cl
ATOM     25  C   UNL     1       8.645  11.891  17.836  0.00  0.00    +0.000 A 
ATOM     26  C   UNL     1       8.427  10.506  17.737  0.00  0.00    +0.000 A 
ENDBRANCH  19  20
ENDBRANCH  18  19
ENDBRANCH   2  18
TORSDOF 6
ENDMDL
MODEL 2
REMARK VINA RESULT:      -7.2      0.806      1.031
REMARK  Name = 
REMARK  7 active torsions:
REMARK  status: ('A' for Active; 'I' for Inactive)
REMARK    1  A    between atoms: C_1  and  C_2
REMARK    2  A    between atoms: C_5  and  C_6
REMARK    3  A    between atoms: C_7  and  S_8
REMARK    4  A    between atoms: C_7  and  C_17
REMARK    5  A    between atoms: S_8  and  C_9
REMARK    6  A    between atoms: C_9  and  C_10
REMARK    7  A    between atoms: C_17  and  C_19
REMARK                            x       y       z     vdW  Elec       q    Type
REMARK                         _______ _______ _______ _____ _____    ______ ____
ROOT
ATOM      1  C   UNL     1       5.400   6.728  18.241  0.00  0.00    +0.000 C 
ATOM      2  C   UNL     1       6.659   6.554  17.768  0.00  0.00    +0.000 C 
ENDROOT
BRANCH   1   7
ATOM      3  C   UNL     1       2.532   2.604  19.985  0.00  0.00    +0.000 C 
ATOM      4  C   UNL     1       3.006   3.799  19.223  0.00  0.00    +0.000 A 
ATOM      5  C   UNL     1       2.328   4.522  18.270  0.00  0.00    +0.000 A 
ATOM      6  C   UNL     1       3.109   5.599  17.745  0.00  0.00    +0.000 A 
ATOM      7  C   UNL     1       4.346   5.750  18.357  0.00  0.00    +0.000 A 
ATOM      8  S   UNL     1       4.570   4.435  19.480  0.00  0.00    +0.000 S 
ENDBRANCH   1   7
BRANCH   2   9
ATOM      9  C   UNL     1       7.159   5.236  17.210  0.00  0.00    +0.000 C 
ATOM     10  O   UNL     1       7.826   4.472  17.908  0.00  0.00    +0.000 OA
BRANCH   9  11
ATOM     11  C   UNL     1       6.827   4.769  15.820  0.00  0.00    +0.000 A 
ATOM     12  C   UNL     1       7.519   5.137  14.660  0.00  0.00    +0.000 A 
ATOM     13  C   UNL     1       7.124   4.636  13.407  0.00  0.00    +0.000 A 
ATOM     14  C   UNL     1       6.067   3.736  13.312  0.00  0.00    +0.000 A 
ATOM     15 CL   UNL     1       5.617   3.092  11.781  0.00  0.00    +0.000 Cl
ATOM     16  C   UNL     1       5.379   3.340  14.454  0.00  0.00    +0.000 A 
ATOM     17  C   UNL     1       5.756   3.860  15.696  0.00  0.00    +0.000 A 
ENDBRANCH   9  11
ENDBRANCH   2   9
BRANCH   2  18
ATOM     18  S   UNL     1       7.678   7.935  17.346  0.00  0.00    +0.000 S 
BRANCH  18  19
ATOM     19  C   UNL     1       8.607   8.399  18.837  0.00  0.00    +0.000 C 
BRANCH  19  20
ATOM     20  C   UNL     1       8.947   9.885  18.820  0.00  0.00    +0.000 A 
ATOM     21  C   UNL     1       9.700  10.455  19.859  0.00  0.00    +0.000 A 
ATOM     22  C   UNL     1       9.995  11.828  19.868  0.00  0.00    +0.000 A 
ATOM     23  C   UNL     1       9.542  12.634  18.834  0.00  0.00    +0.000 A 
ATOM     24 CL   UNL     1       9.900  14.321  18.841  0.00  0.00    +0.000 Cl
ATOM     25  C   UNL     1       8.791  12.092  17.796  0.00  0.00    +0.000 A 
ATOM     26  C   UNL     1       8.490  10.720  17.788  0.00  0.00    +0.000 A 
ENDBRANCH  19  20
ENDBRANCH  18  19
ENDBRANCH   2  18
TORSDOF 6
ENDMDL
MODEL 3
REMARK VINA RESULT:      -7.1      1.392      1.531
REMARK  Name = 
REMARK  7 active torsions:
REMARK  status: ('A' for Active; 'I' for Inactive)
REMARK    1  A    between atoms: C_1  and  C_2
REMARK    2  A    between atoms: C_5  and  C_6
REMARK    3  A    between atoms: C_7  and  S_8
REMARK    4  A    between atoms: C_7  and  C_17
REMARK    5  A    between atoms: S_8  and  C_9
REMARK    6  A    between atoms: C_9  and  C_10
REMARK    7  A    between atoms: C_17  and  C_19
REMARK                            x       y       z     vdW  Elec       q    Type
REMARK                         _______ _______ _______ _____ _____    ______ ____
ROOT
ATOM      1  C   UNL     1       5.779   5.380  19.311  0.00  0.00    +0.000 C 
ATOM      2  C   UNL     1       6.380   5.976  18.252  0.00  0.00    +0.000 C 
ENDROOT
BRANCH   1   7
ATOM      3  C   UNL     1       1.691   1.980  19.387  0.00  0.00    +0.000 C 
ATOM      4  C   UNL     1       2.525   3.219  19.449  0.00  0.00    +0.000 A 
ATOM      5  C   UNL     1       2.138   4.486  19.815  0.00  0.00    +0.000 A 
ATOM      6  C   UNL     1       3.213   5.427  19.740  0.00  0.00    +0.000 A 
ATOM      7  C   UNL     1       4.435   4.863  19.403  0.00  0.00    +0.000 A 
ATOM      8  S   UNL     1       4.182   3.178  19.031  0.00  0.00    +0.000 S 
ENDBRANCH   1   7
BRANCH   2   9
ATOM      9  C   UNL     1       5.669   6.247  16.941  0.00  0.00    +0.000 C 
ATOM     10  O   UNL     1       4.829   7.143  16.856  0.00  0.00    +0.000 OA
BRANCH   9  11
ATOM     11  C   UNL     1       5.985   5.493  15.679  0.00  0.00    +0.000 A 
ATOM     12  C   UNL     1       7.180   5.599  14.956  0.00  0.00    +0.000 A 
ATOM     13  C   UNL     1       7.373   4.842  13.788  0.00  0.00    +0.000 A 
ATOM     14  C   UNL     1       6.395   3.949  13.359  0.00  0.00    +0.000 A 
ATOM     15 CL   UNL     1       6.657   2.993  11.952  0.00  0.00    +0.000 Cl
ATOM     16  C   UNL     1       5.211   3.812  14.074  0.00  0.00    +0.000 A 
ATOM     17  C   UNL     1       5.008   4.585  15.222  0.00  0.00    +0.000 A 
ENDBRANCH   9  11
ENDBRANCH   2   9
BRANCH   2  18
ATOM     18  S   UNL     1       7.884   6.883  18.443  0.00  0.00    +0.000 S 
BRANCH  18  19
ATOM     19  C   UNL     1       7.748   8.380  17.423  0.00  0.00    +0.000 C 
BRANCH  19  20
ATOM     20  C   UNL     1       8.412   9.566  18.113  0.00  0.00    +0.000 A 
ATOM     21  C   UNL     1       9.072   9.398  19.340  0.00  0.00    +0.000 A 
ATOM     22  C   UNL     1       9.664  10.488  19.999  0.00  0.00    +0.000 A 
ATOM     23  C   UNL     1       9.601  11.751  19.426  0.00  0.00    +0.000 A 
ATOM     24 CL   UNL     1      10.323  13.094  20.231  0.00  0.00    +0.000 Cl
ATOM     25  C   UNL     1       8.949  11.943  18.213  0.00  0.00    +0.000 A 
ATOM     26  C   UNL     1       8.352  10.854  17.555  0.00  0.00    +0.000 A 
ENDBRANCH  19  20
ENDBRANCH  18  19
ENDBRANCH   2  18
TORSDOF 6
ENDMDL
MODEL 4
REMARK VINA RESULT:      -7.1      1.305      1.629
REMARK  Name = 
REMARK  7 active torsions:
REMARK  status: ('A' for Active; 'I' for Inactive)
REMARK    1  A    between atoms: C_1  and  C_2
REMARK    2  A    between atoms: C_5  and  C_6
REMARK    3  A    between atoms: C_7  and  S_8
REMARK    4  A    between atoms: C_7  and  C_17
REMARK    5  A    between atoms: S_8  and  C_9
REMARK    6  A    between atoms: C_9  and  C_10
REMARK    7  A    between atoms: C_17  and  C_19
REMARK                            x       y       z     vdW  Elec       q    Type
REMARK                         _______ _______ _______ _____ _____    ______ ____
ROOT
ATOM      1  C   UNL     1       6.178   5.115  19.289  0.00  0.00    +0.000 C 
ATOM      2  C   UNL     1       6.634   5.882  18.267  0.00  0.00    +0.000 C 
ENDROOT
BRANCH   1   7
ATOM      3  C   UNL     1       0.989   4.098  19.848  0.00  0.00    +0.000 C 
ATOM      4  C   UNL     1       2.461   3.957  19.634  0.00  0.00    +0.000 A 
ATOM      5  C   UNL     1       3.162   2.833  19.263  0.00  0.00    +0.000 A 
ATOM      6  C   UNL     1       4.568   3.074  19.168  0.00  0.00    +0.000 A 
ATOM      7  C   UNL     1       4.930   4.398  19.381  0.00  0.00    +0.000 A 
ATOM      8  S   UNL     1       3.508   5.290  19.852  0.00  0.00    +0.000 S 
ENDBRANCH   1   7
BRANCH   2   9
ATOM      9  C   UNL     1       5.828   6.153  17.012  0.00  0.00    +0.000 C 
ATOM     10  O   UNL     1       5.030   7.091  16.970  0.00  0.00    +0.000 OA
BRANCH   9  11
ATOM     11  C   UNL     1       5.995   5.348  15.754  0.00  0.00    +0.000 A 
ATOM     12  C   UNL     1       5.074   4.412  15.269  0.00  0.00    +0.000 A 
ATOM     13  C   UNL     1       5.329   3.715  14.075  0.00  0.00    +0.000 A 
ATOM     14  C   UNL     1       6.482   3.979  13.341  0.00  0.00    +0.000 A 
ATOM     15 CL   UNL     1       6.767   3.154  11.857  0.00  0.00    +0.000 Cl
ATOM     16  C   UNL     1       7.400   4.920  13.793  0.00  0.00    +0.000 A 
ATOM     17  C   UNL     1       7.158   5.593  14.994  0.00  0.00    +0.000 A 
ENDBRANCH   9  11
ENDBRANCH   2   9
BRANCH   2  18
ATOM     18  S   UNL     1       7.997   6.984  18.486  0.00  0.00    +0.000 S 
BRANCH  18  19
ATOM     19  C   UNL     1       7.641   8.485  17.525  0.00  0.00    +0.000 C 
BRANCH  19  20
ATOM     20  C   UNL     1       8.367   9.688  18.115  0.00  0.00    +0.000 A 
ATOM     21  C   UNL     1       9.122   9.558  19.292  0.00  0.00    +0.000 A 
ATOM     22  C   UNL     1       9.773  10.666  19.859  0.00  0.00    +0.000 A 
ATOM     23  C   UNL     1       9.673  11.907  19.247  0.00  0.00    +0.000 A 
ATOM     24 CL   UNL     1      10.467  13.272  19.941  0.00  0.00    +0.000 Cl
ATOM     25  C   UNL     1       8.927  12.061  18.084  0.00  0.00    +0.000 A 
ATOM     26  C   UNL     1       8.271  10.955  17.517  0.00  0.00    +0.000 A 
ENDBRANCH  19  20
ENDBRANCH  18  19
ENDBRANCH   2  18
TORSDOF 6
ENDMDL
MODEL 5
REMARK VINA RESULT:      -7.1      2.426      4.555
REMARK  Name = 
REMARK  7 active torsions:
REMARK  status: ('A' for Active; 'I' for Inactive)
REMARK    1  A    between atoms: C_1  and  C_2
REMARK    2  A    between atoms: C_5  and  C_6
REMARK    3  A    between atoms: C_7  and  S_8
REMARK    4  A    between atoms: C_7  and  C_17
REMARK    5  A    between atoms: S_8  and  C_9
REMARK    6  A    between atoms: C_9  and  C_10
REMARK    7  A    between atoms: C_17  and  C_19
REMARK                            x       y       z     vdW  Elec       q    Type
REMARK                         _______ _______ _______ _____ _____    ______ ____
ROOT
ATOM      1  C   UNL     1       6.965   6.439  16.064  0.00  0.00    +0.000 C 
ATOM      2  C   UNL     1       7.050   6.407  17.417  0.00  0.00    +0.000 C 
ENDROOT
BRANCH   1   7
ATOM      3  C   UNL     1       6.558   3.010  12.020  0.00  0.00    +0.000 C 
ATOM      4  C   UNL     1       6.288   3.805  13.257  0.00  0.00    +0.000 A 
ATOM      5  C   UNL     1       5.257   3.657  14.154  0.00  0.00    +0.000 A 
ATOM      6  C   UNL     1       5.317   4.613  15.216  0.00  0.00    +0.000 A 
ATOM      7  C   UNL     1       6.438   5.431  15.177  0.00  0.00    +0.000 A 
ATOM      8  S   UNL     1       7.321   5.087  13.714  0.00  0.00    +0.000 S 
ENDBRANCH   1   7
BRANCH   2   9
ATOM      9  C   UNL     1       6.619   5.213  18.246  0.00  0.00    +0.000 C 
ATOM     10  O   UNL     1       7.440   4.369  18.605  0.00  0.00    +0.000 OA
BRANCH   9  11
ATOM     11  C   UNL     1       5.204   5.026  18.719  0.00  0.00    +0.000 A 
ATOM     12  C   UNL     1       4.181   5.975  18.593  0.00  0.00    +0.000 A 
ATOM     13  C   UNL     1       2.889   5.694  19.068  0.00  0.00    +0.000 A 
ATOM     14  C   UNL     1       2.601   4.453  19.632  0.00  0.00    +0.000 A 
ATOM     15 CL   UNL     1       1.006   4.100  20.171  0.00  0.00    +0.000 Cl
ATOM     16  C   UNL     1       3.596   3.489  19.747  0.00  0.00    +0.000 A 
ATOM     17  C   UNL     1       4.889   3.779  19.298  0.00  0.00    +0.000 A 
ENDBRANCH   9  11
ENDBRANCH   2   9
BRANCH   2  18
ATOM     18  S   UNL     1       8.066   7.552  18.299  0.00  0.00    +0.000 S 
BRANCH  18  19
ATOM     19  C   UNL     1       7.766   9.199  17.592  0.00  0.00    +0.000 C 
BRANCH  19  20
ATOM     20  C   UNL     1       8.607  10.253  18.304  0.00  0.00    +0.000 A 
ATOM     21  C   UNL     1       8.804  11.517  17.726  0.00  0.00    +0.000 A 
ATOM     22  C   UNL     1       9.599  12.486  18.360  0.00  0.00    +0.000 A 
ATOM     23  C   UNL     1      10.196  12.193  19.578  0.00  0.00    +0.000 A 
ATOM     24 CL   UNL     1      11.176  13.378  20.359  0.00  0.00    +0.000 Cl
ATOM     25  C   UNL     1      10.019  10.947  20.168  0.00  0.00    +0.000 A 
ATOM     26  C   UNL     1       9.228   9.974  19.533  0.00  0.00    +0.000 A 
ENDBRANCH  19  20
ENDBRANCH  18  19
ENDBRANCH   2  18
TORSDOF 6
ENDMDL
MODEL 6
REMARK VINA RESULT:      -7.1      7.407     10.102
REMARK  Name = 
REMARK  7 active torsions:
REMARK  status: ('A' for Active; 'I' for Inactive)
REMARK    1  A    between atoms: C_1  and  C_2
REMARK    2  A    between atoms: C_5  and  C_6
REMARK    3  A    between atoms: C_7  and  S_8
REMARK    4  A    between atoms: C_7  and  C_17
REMARK    5  A    between atoms: S_8  and  C_9
REMARK    6  A    between atoms: C_9  and  C_10
REMARK    7  A    between atoms: C_17  and  C_19
REMARK                            x       y       z     vdW  Elec       q    Type
REMARK                         _______ _______ _______ _____ _____    ______ ____
ROOT
ATOM      1  C   UNL     1       1.926  11.535  18.554  0.00  0.00    +0.000 C 
ATOM      2  C   UNL     1       1.307  10.334  18.660  0.00  0.00    +0.000 C 
ENDROOT
BRANCH   1   7
ATOM      3  C   UNL     1       1.570  15.870  21.614  0.00  0.00    +0.000 C 
ATOM      4  C   UNL     1       1.366  14.861  20.531  0.00  0.00    +0.000 A 
ATOM      5  C   UNL     1       0.601  14.977  19.394  0.00  0.00    +0.000 A 
ATOM      6  C   UNL     1       0.636  13.795  18.590  0.00  0.00    +0.000 A 
ATOM      7  C   UNL     1       1.494  12.813  19.066  0.00  0.00    +0.000 A 
ATOM      8  S   UNL     1       2.126  13.332  20.606  0.00  0.00    +0.000 S 
ENDBRANCH   1   7
BRANCH   2   9
ATOM      9  C   UNL     1      -0.041  10.154  19.332  0.00  0.00    +0.000 C 
ATOM     10  O   UNL     1      -0.115   9.716  20.481  0.00  0.00    +0.000 OA
BRANCH   9  11
ATOM     11  C   UNL     1      -1.332  10.548  18.672  0.00  0.00    +0.000 A 
ATOM     12  C   UNL     1      -1.831   9.994  17.486  0.00  0.00    +0.000 A 
ATOM     13  C   UNL     1      -3.056  10.435  16.956  0.00  0.00    +0.000 A 
ATOM     14  C   UNL     1      -3.807  11.397  17.627  0.00  0.00    +0.000 A 
ATOM     15 CL   UNL     1      -5.327  11.899  16.995  0.00  0.00    +0.000 Cl
ATOM     16  C   UNL     1      -3.340  11.944  18.817  0.00  0.00    +0.000 A 
ATOM     17  C   UNL     1      -2.109  11.524  19.329  0.00  0.00    +0.000 A 
ENDBRANCH   9  11
ENDBRANCH   2   9
BRANCH   2  18
ATOM     18  S   UNL     1       1.784   8.965  17.651  0.00  0.00    +0.000 S 
BRANCH  18  19
ATOM     19  C   UNL     1       2.385   7.657  18.760  0.00  0.00    +0.000 C 
BRANCH  19  20
ATOM     20  C   UNL     1       3.232   6.647  17.995  0.00  0.00    +0.000 A 
ATOM     21  C   UNL     1       2.928   5.277  18.047  0.00  0.00    +0.000 A 
ATOM     22  C   UNL     1       3.719   4.335  17.367  0.00  0.00    +0.000 A 
ATOM     23  C   UNL     1       4.813   4.763  16.630  0.00  0.00    +0.000 A 
ATOM     24 CL   UNL     1       5.789   3.611  15.796  0.00  0.00    +0.000 Cl
ATOM     25  C   UNL     1       5.136   6.115  16.567  0.00  0.00    +0.000 A 
ATOM     26  C   UNL     1       4.350   7.058  17.250  0.00  0.00    +0.000 A 
ENDBRANCH  19  20
ENDBRANCH  18  19
ENDBRANCH   2  18
TORSDOF 6
ENDMDL
MODEL 7
REMARK VINA RESULT:      -7.1      4.047      6.885
REMARK  Name = 
REMARK  7 active torsions:
REMARK  status: ('A' for Active; 'I' for Inactive)
REMARK    1  A    between atoms: C_1  and  C_2
REMARK    2  A    between atoms: C_5  and  C_6
REMARK    3  A    between atoms: C_7  and  S_8
REMARK    4  A    between atoms: C_7  and  C_17
REMARK    5  A    between atoms: S_8  and  C_9
REMARK    6  A    between atoms: C_9  and  C_10
REMARK    7  A    between atoms: C_17  and  C_19
REMARK                            x       y       z     vdW  Elec       q    Type
REMARK                         _______ _______ _______ _____ _____    ______ ____
ROOT
ATOM      1  C   UNL     1       4.671   3.288  17.611  0.00  0.00    +0.000 C 
ATOM      2  C   UNL     1       5.469   4.378  17.726  0.00  0.00    +0.000 C 
ENDROOT
BRANCH   1   7
ATOM      3  C   UNL     1       1.313   2.429  21.644  0.00  0.00    +0.000 C 
ATOM      4  C   UNL     1       1.900   2.597  20.280  0.00  0.00    +0.000 A 
ATOM      5  C   UNL     1       1.246   2.620  19.070  0.00  0.00    +0.000 A 
ATOM      6  C   UNL     1       2.142   2.788  17.969  0.00  0.00    +0.000 A 
ATOM      7  C   UNL     1       3.465   2.981  18.342  0.00  0.00    +0.000 A 
ATOM      8  S   UNL     1       3.585   2.791  20.071  0.00  0.00    +0.000 S 
ENDBRANCH   1   7
BRANCH   2   9
ATOM      9  C   UNL     1       5.223   5.481  18.736  0.00  0.00    +0.000 C 
ATOM     10  O   UNL     1       5.953   5.605  19.720  0.00  0.00    +0.000 OA
BRANCH   9  11
ATOM     11  C   UNL     1       4.134   6.503  18.568  0.00  0.00    +0.000 A 
ATOM     12  C   UNL     1       4.008   7.372  17.476  0.00  0.00    +0.000 A 
ATOM     13  C   UNL     1       2.945   8.290  17.417  0.00  0.00    +0.000 A 
ATOM     14  C   UNL     1       1.983   8.317  18.423  0.00  0.00    +0.000 A 
ATOM     15 CL   UNL     1       0.660   9.412  18.323  0.00  0.00    +0.000 Cl
ATOM     16  C   UNL     1       2.077   7.448  19.505  0.00  0.00    +0.000 A 
ATOM     17  C   UNL     1       3.150   6.554  19.576  0.00  0.00    +0.000 A 
ENDBRANCH   9  11
ENDBRANCH   2   9
BRANCH   2  18
ATOM     18  S   UNL     1       7.094   4.401  17.032  0.00  0.00    +0.000 S 
BRANCH  18  19
ATOM     19  C   UNL     1       7.048   5.493  15.580  0.00  0.00    +0.000 C 
BRANCH  19  20
ATOM     20  C   UNL     1       6.565   4.734  14.350  0.00  0.00    +0.000 A 
ATOM     21  C   UNL     1       5.275   4.180  14.315  0.00  0.00    +0.000 A 
ATOM     22  C   UNL     1       4.829   3.456  13.197  0.00  0.00    +0.000 A 
ATOM     23  C   UNL     1       5.673   3.288  12.108  0.00  0.00    +0.000 A 
ATOM     24 CL   UNL     1       5.132   2.397  10.734  0.00  0.00    +0.000 Cl
ATOM     25  C   UNL     1       6.956   3.824  12.121  0.00  0.00    +0.000 A 
ATOM     26  C   UNL     1       7.405   4.545  13.240  0.00  0.00    +0.000 A 
ENDBRANCH  19  20
ENDBRANCH  18  19
ENDBRANCH   2  18
TORSDOF 6
ENDMDL
MODEL 8
REMARK VINA RESULT:      -7.0      7.502     10.613
REMARK  Name = 
REMARK  7 active torsions:
REMARK  status: ('A' for Active; 'I' for Inactive)
REMARK    1  A    between atoms: C_1  and  C_2
REMARK    2  A    between atoms: C_5  and  C_6
REMARK    3  A    between atoms: C_7  and  S_8
REMARK    4  A    between atoms: C_7  and  C_17
REMARK    5  A    between atoms: S_8  and  C_9
REMARK    6  A    between atoms: C_9  and  C_10
REMARK    7  A    between atoms: C_17  and  C_19
REMARK                            x       y       z     vdW  Elec       q    Type
REMARK                         _______ _______ _______ _____ _____    ______ ____
ROOT
ATOM      1  C   UNL     1       1.917  11.356  18.543  0.00  0.00    +0.000 C 
ATOM      2  C   UNL     1       1.346  10.152  18.792  0.00  0.00    +0.000 C 
ENDROOT
BRANCH   1   7
ATOM      3  C   UNL     1       1.322  15.954  21.148  0.00  0.00    +0.000 C 
ATOM      4  C   UNL     1       1.194  14.841  20.158  0.00  0.00    +0.000 A 
ATOM      5  C   UNL     1       0.489  14.831  18.978  0.00  0.00    +0.000 A 
ATOM      6  C   UNL     1       0.587  13.579  18.294  0.00  0.00    +0.000 A 
ATOM      7  C   UNL     1       1.436  12.667  18.906  0.00  0.00    +0.000 A 
ATOM      8  S   UNL     1       1.976  13.344  20.419  0.00  0.00    +0.000 S 
ENDBRANCH   1   7
BRANCH   2   9
ATOM      9  C   UNL     1       0.008   9.998  19.489  0.00  0.00    +0.000 C 
ATOM     10  O   UNL     1      -0.063   9.481  20.604  0.00  0.00    +0.000 OA
BRANCH   9  11
ATOM     11  C   UNL     1      -1.275  10.513  18.898  0.00  0.00    +0.000 A 
ATOM     12  C   UNL     1      -2.095  11.489  19.479  0.00  0.00    +0.000 A 
ATOM     13  C   UNL     1      -3.274  11.901  18.836  0.00  0.00    +0.000 A 
ATOM     14  C   UNL     1      -3.620  11.373  17.595  0.00  0.00    +0.000 A 
ATOM     15 CL   UNL     1      -5.043  11.915  16.794  0.00  0.00    +0.000 Cl
ATOM     16  C   UNL     1      -2.810  10.419  16.990  0.00  0.00    +0.000 A 
ATOM     17  C   UNL     1      -1.650   9.990  17.643  0.00  0.00    +0.000 A 
ENDBRANCH   9  11
ENDBRANCH   2   9
BRANCH   2  18
ATOM     18  S   UNL     1       1.875   8.694  17.945  0.00  0.00    +0.000 S 
BRANCH  18  19
ATOM     19  C   UNL     1       2.754   7.656  19.150  0.00  0.00    +0.000 C 
BRANCH  19  20
ATOM     20  C   UNL     1       2.248   6.219  19.094  0.00  0.00    +0.000 A 
ATOM     21  C   UNL     1       2.211   5.524  17.874  0.00  0.00    +0.000 A 
ATOM     22  C   UNL     1       1.722   4.209  17.806  0.00  0.00    +0.000 A 
ATOM     23  C   UNL     1       1.274   3.584  18.961  0.00  0.00    +0.000 A 
ATOM     24 CL   UNL     1       0.670   1.970  18.883  0.00  0.00    +0.000 Cl
ATOM     25  C   UNL     1       1.297   4.253  20.179  0.00  0.00    +0.000 A 
ATOM     26  C   UNL     1       1.781   5.571  20.249  0.00  0.00    +0.000 A 
ENDBRANCH  19  20
ENDBRANCH  18  19
ENDBRANCH   2  18
TORSDOF 6
ENDMDL
MODEL 9
REMARK VINA RESULT:      -7.0      2.462      4.354
REMARK  Name = 
REMARK  7 active torsions:
REMARK  status: ('A' for Active; 'I' for Inactive)
REMARK    1  A    between atoms: C_1  and  C_2
REMARK    2  A    between atoms: C_5  and  C_6
REMARK    3  A    between atoms: C_7  and  S_8
REMARK    4  A    between atoms: C_7  and  C_17
REMARK    5  A    between atoms: S_8  and  C_9
REMARK    6  A    between atoms: C_9  and  C_10
REMARK    7  A    between atoms: C_17  and  C_19
REMARK                            x       y       z     vdW  Elec       q    Type
REMARK                         _______ _______ _______ _____ _____    ______ ____
ROOT
ATOM      1  C   UNL     1       6.905   6.699  16.451  0.00  0.00    +0.000 C 
ATOM      2  C   UNL     1       7.138   6.647  17.786  0.00  0.00    +0.000 C 
ENDROOT
BRANCH   1   7
ATOM      3  C   UNL     1       6.287   3.105  12.581  0.00  0.00    +0.000 C 
ATOM      4  C   UNL     1       6.062   3.983  13.769  0.00  0.00    +0.000 A 
ATOM      5  C   UNL     1       5.008   3.966  14.651  0.00  0.00    +0.000 A 
ATOM      6  C   UNL     1       5.127   4.969  15.663  0.00  0.00    +0.000 A 
ATOM      7  C   UNL     1       6.312   5.691  15.606  0.00  0.00    +0.000 A 
ATOM      8  S   UNL     1       7.189   5.201  14.181  0.00  0.00    +0.000 S 
ENDBRANCH   1   7
BRANCH   2   9
ATOM      9  C   UNL     1       6.834   5.426  18.632  0.00  0.00    +0.000 C 
ATOM     10  O   UNL     1       7.744   4.708  19.047  0.00  0.00    +0.000 OA
BRANCH   9  11
ATOM     11  C   UNL     1       5.438   5.063  19.054  0.00  0.00    +0.000 A 
ATOM     12  C   UNL     1       4.407   5.979  19.299  0.00  0.00    +0.000 A 
ATOM     13  C   UNL     1       3.133   5.529  19.687  0.00  0.00    +0.000 A 
ATOM     14  C   UNL     1       2.871   4.166  19.792  0.00  0.00    +0.000 A 
ATOM     15 CL   UNL     1       1.297   3.621  20.224  0.00  0.00    +0.000 Cl
ATOM     16  C   UNL     1       3.874   3.239  19.532  0.00  0.00    +0.000 A 
ATOM     17  C   UNL     1       5.148   3.688  19.172  0.00  0.00    +0.000 A 
ENDBRANCH   9  11
ENDBRANCH   2   9
BRANCH   2  18
ATOM     18  S   UNL     1       8.213   7.806  18.574  0.00  0.00    +0.000 S 
BRANCH  18  19
ATOM     19  C   UNL     1       8.089   9.371  17.659  0.00  0.00    +0.000 C 
BRANCH  19  20
ATOM     20  C   UNL     1       8.825  10.485  18.392  0.00  0.00    +0.000 A 
ATOM     21  C   UNL     1       9.322  10.277  19.689  0.00  0.00    +0.000 A 
ATOM     22  C   UNL     1       9.979  11.306  20.385  0.00  0.00    +0.000 A 
ATOM     23  C   UNL     1      10.144  12.544  19.782  0.00  0.00    +0.000 A 
ATOM     24 CL   UNL     1      10.947  13.812  20.633  0.00  0.00    +0.000 Cl
ATOM     25  C   UNL     1       9.657  12.775  18.501  0.00  0.00    +0.000 A 
ATOM     26  C   UNL     1       8.996  11.749  17.804  0.00  0.00    +0.000 A 
ENDBRANCH  19  20
ENDBRANCH  18  19
ENDBRANCH   2  18
TORSDOF 6
ENDMDL
