MODEL 1
REMARK VINA RESULT:      -7.7      0.000      0.000
REMARK  Name = 
REMARK  6 active torsions:
REMARK  status: ('A' for Active; 'I' for Inactive)
REMARK    1  A    between atoms: C_1  and  O_2
REMARK    2  A    between atoms: O_2  and  C_3
REMARK    3  A    between atoms: C_6  and  N_7
REMARK    4  A    between atoms: C_11  and  C_13
REMARK    5  A    between atoms: C_13  and  C_22
REMARK    6  A    between atoms: C_14  and  C_15
REMARK                            x       y       z     vdW  Elec       q    Type
REMARK                         _______ _______ _______ _____ _____    ______ ____
ROOT
ATOM      1  N   UNL     1       1.629   8.424  20.467  0.00  0.00    +0.000 N 
ATOM      2  C   UNL     1       1.060   9.420  19.542  0.00  0.00    +0.000 C 
ATOM      3  C   UNL     1      -0.401   9.728  19.925  0.00  0.00    +0.000 C 
ATOM      4  N   UNL     1      -0.445  10.229  21.303  0.00  0.00    +0.000 N 
ATOM      5  C   UNL     1      -0.655  11.532  21.755  0.00  0.00    +0.000 C 
ATOM      6  O   UNL     1      -0.608  11.790  22.964  0.00  0.00    +0.000 OA
ATOM      7  C   UNL     1       0.030   9.182  22.237  0.00  0.00    +0.000 C 
ATOM      8  C   UNL     1       1.481   8.730  21.912  0.00  0.00    +0.000 C 
ENDROOT
BRANCH   1  12
ATOM      9  C   UNL     1       2.453   4.498  19.120  0.00  0.00    +0.000 A 
ATOM     10  C   UNL     1       2.776   5.603  18.335  0.00  0.00    +0.000 A 
ATOM     11  C   UNL     1       2.527   6.901  18.802  0.00  0.00    +0.000 A 
ATOM     12  C   UNL     1       1.924   7.138  20.045  0.00  0.00    +0.000 A 
ATOM     13  C   UNL     1       1.591   6.005  20.806  0.00  0.00    +0.000 A 
ATOM     14  C   UNL     1       1.848   4.704  20.354  0.00  0.00    +0.000 A 
BRANCH   9  16
ATOM     15  C   UNL     1       1.920   2.204  19.067  0.00  0.00    +0.000 C 
ATOM     16  O   UNL     1       2.716   3.275  18.568  0.00  0.00    +0.000 OA
ENDBRANCH   9  16
ENDBRANCH   1  12
BRANCH   5  17
ATOM     17  C   UNL     1      -0.979  12.680  20.789  0.00  0.00    +0.000 C 
ATOM     18  C   UNL     1      -0.565  13.947  20.977  0.00  0.00    +0.000 C 
BRANCH  18  19
ATOM     19  C   UNL     1      -0.764  15.129  20.113  0.00  0.00    +0.000 A 
ATOM     20  C   UNL     1      -1.809  15.993  20.467  0.00  0.00    +0.000 A 
ATOM     21  C   UNL     1      -2.027  17.177  19.766  0.00  0.00    +0.000 A 
ATOM     22  C   UNL     1      -1.192  17.526  18.708  0.00  0.00    +0.000 A 
ATOM     23  C   UNL     1      -0.146  16.678  18.343  0.00  0.00    +0.000 A 
ATOM     24  C   UNL     1       0.062  15.478  19.032  0.00  0.00    +0.000 A 
ATOM     25 CL   UNL     1       1.390  14.490  18.532  0.00  0.00    +0.000 Cl
ENDBRANCH  18  19
BRANCH  17  26
ATOM     26  C   UNL     1      -1.999  12.506  19.705  0.00  0.00    +0.000 A 
ATOM     27  C   UNL     1      -3.367  12.446  19.996  0.00  0.00    +0.000 A 
ATOM     28  C   UNL     1      -4.270  11.946  19.047  0.00  0.00    +0.000 A 
ATOM     29  C   UNL     1      -3.822  11.523  17.798  0.00  0.00    +0.000 A 
ATOM     30  C   UNL     1      -2.474  11.640  17.471  0.00  0.00    +0.000 A 
ATOM     31  C   UNL     1      -1.571  12.138  18.416  0.00  0.00    +0.000 A 
ENDBRANCH  17  26
ENDBRANCH   5  17
TORSDOF 5
ENDMDL
MODEL 2
REMARK VINA RESULT:      -7.6      3.446      9.655
REMARK  Name = 
REMARK  6 active torsions:
REMARK  status: ('A' for Active; 'I' for Inactive)
REMARK    1  A    between atoms: C_1  and  O_2
REMARK    2  A    between atoms: O_2  and  C_3
REMARK    3  A    between atoms: C_6  and  N_7
REMARK    4  A    between atoms: C_11  and  C_13
REMARK    5  A    between atoms: C_13  and  C_22
REMARK    6  A    between atoms: C_14  and  C_15
REMARK                            x       y       z     vdW  Elec       q    Type
REMARK                         _______ _______ _______ _____ _____    ______ ____
ROOT
ATOM      1  N   UNL     1       0.841  10.962  21.132  0.00  0.00    +0.000 N 
ATOM      2  C   UNL     1       0.878   9.503  21.337  0.00  0.00    +0.000 C 
ATOM      3  C   UNL     1       0.399   8.775  20.065  0.00  0.00    +0.000 C 
ATOM      4  N   UNL     1       1.260   9.153  18.939  0.00  0.00    +0.000 N 
ATOM      5  C   UNL     1       2.249   8.402  18.303  0.00  0.00    +0.000 C 
ATOM      6  O   UNL     1       2.924   8.900  17.392  0.00  0.00    +0.000 OA
ATOM      7  C   UNL     1       1.136  10.604  18.672  0.00  0.00    +0.000 C 
ATOM      8  C   UNL     1       1.527  11.456  19.912  0.00  0.00    +0.000 C 
ENDROOT
BRANCH   1  12
ATOM      9  C   UNL     1      -2.024  13.379  23.096  0.00  0.00    +0.000 A 
ATOM     10  C   UNL     1      -2.104  11.990  23.154  0.00  0.00    +0.000 A 
ATOM     11  C   UNL     1      -1.133  11.196  22.526  0.00  0.00    +0.000 A 
ATOM     12  C   UNL     1      -0.076  11.758  21.798  0.00  0.00    +0.000 A 
ATOM     13  C   UNL     1      -0.031  13.161  21.739  0.00  0.00    +0.000 A 
ATOM     14  C   UNL     1      -0.988  13.963  22.375  0.00  0.00    +0.000 A 
BRANCH   9  16
ATOM     15  C   UNL     1      -3.826  13.284  24.610  0.00  0.00    +0.000 C 
ATOM     16  O   UNL     1      -3.027  14.063  23.723  0.00  0.00    +0.000 OA
ENDBRANCH   9  16
ENDBRANCH   1  12
BRANCH   5  17
ATOM     17  C   UNL     1       2.521   6.939  18.679  0.00  0.00    +0.000 C 
ATOM     18  C   UNL     1       1.742   6.234  19.520  0.00  0.00    +0.000 C 
BRANCH  18  19
ATOM     19  C   UNL     1       1.859   4.818  19.931  0.00  0.00    +0.000 A 
ATOM     20  C   UNL     1       2.158   4.582  21.280  0.00  0.00    +0.000 A 
ATOM     21  C   UNL     1       2.209   3.284  21.783  0.00  0.00    +0.000 A 
ATOM     22  C   UNL     1       1.945   2.200  20.951  0.00  0.00    +0.000 A 
ATOM     23  C   UNL     1       1.645   2.418  19.605  0.00  0.00    +0.000 A 
ATOM     24  C   UNL     1       1.613   3.719  19.092  0.00  0.00    +0.000 A 
ATOM     25 CL   UNL     1       1.215   3.908  17.420  0.00  0.00    +0.000 Cl
ENDBRANCH  18  19
BRANCH  17  26
ATOM     26  C   UNL     1       3.823   6.286  18.330  0.00  0.00    +0.000 A 
ATOM     27  C   UNL     1       4.029   5.697  17.078  0.00  0.00    +0.000 A 
ATOM     28  C   UNL     1       5.092   4.804  16.884  0.00  0.00    +0.000 A 
ATOM     29  C   UNL     1       5.967   4.507  17.926  0.00  0.00    +0.000 A 
ATOM     30  C   UNL     1       5.814   5.137  19.157  0.00  0.00    +0.000 A 
ATOM     31  C   UNL     1       4.754   6.029  19.354  0.00  0.00    +0.000 A 
ENDBRANCH  17  26
ENDBRANCH   5  17
TORSDOF 5
ENDMDL
MODEL 3
REMARK VINA RESULT:      -7.6      0.958      1.257
REMARK  Name = 
REMARK  6 active torsions:
REMARK  status: ('A' for Active; 'I' for Inactive)
REMARK    1  A    between atoms: C_1  and  O_2
REMARK    2  A    between atoms: O_2  and  C_3
REMARK    3  A    between atoms: C_6  and  N_7
REMARK    4  A    between atoms: C_11  and  C_13
REMARK    5  A    between atoms: C_13  and  C_22
REMARK    6  A    between atoms: C_14  and  C_15
REMARK                            x       y       z     vdW  Elec       q    Type
REMARK                         _______ _______ _______ _____ _____    ______ ____
ROOT
ATOM      1  N   UNL     1       1.654   8.488  20.472  0.00  0.00    +0.000 N 
ATOM      2  C   UNL     1       1.053   9.595  19.707  0.00  0.00    +0.000 C 
ATOM      3  C   UNL     1      -0.425   9.779  20.109  0.00  0.00    +0.000 C 
ATOM      4  N   UNL     1      -0.503  10.052  21.548  0.00  0.00    +0.000 N 
ATOM      5  C   UNL     1      -0.774  11.257  22.197  0.00  0.00    +0.000 C 
ATOM      6  O   UNL     1      -0.750  11.321  23.433  0.00  0.00    +0.000 OA
ATOM      7  C   UNL     1       0.005   8.890  22.312  0.00  0.00    +0.000 C 
ATOM      8  C   UNL     1       1.478   8.555  21.944  0.00  0.00    +0.000 C 
ENDROOT
BRANCH   1  12
ATOM      9  C   UNL     1       2.654   4.859  18.539  0.00  0.00    +0.000 A 
ATOM     10  C   UNL     1       2.847   6.082  17.901  0.00  0.00    +0.000 A 
ATOM     11  C   UNL     1       2.541   7.282  18.560  0.00  0.00    +0.000 A 
ATOM     12  C   UNL     1       2.007   7.299  19.856  0.00  0.00    +0.000 A 
ATOM     13  C   UNL     1       1.805   6.050  20.467  0.00  0.00    +0.000 A 
ATOM     14  C   UNL     1       2.119   4.847  19.823  0.00  0.00    +0.000 A 
BRANCH   9  16
ATOM     15  C   UNL     1       2.140   2.612  18.056  0.00  0.00    +0.000 C 
ATOM     16  O   UNL     1       2.963   3.747  17.806  0.00  0.00    +0.000 OA
ENDBRANCH   9  16
ENDBRANCH   1  12
BRANCH   5  17
ATOM     17  C   UNL     1      -1.136  12.530  21.420  0.00  0.00    +0.000 C 
ATOM     18  C   UNL     1      -0.298  13.574  21.274  0.00  0.00    +0.000 C 
BRANCH  18  19
ATOM     19  C   UNL     1      -0.498  14.830  20.521  0.00  0.00    +0.000 A 
ATOM     20  C   UNL     1      -0.814  15.968  21.277  0.00  0.00    +0.000 A 
ATOM     21  C   UNL     1      -0.941  17.215  20.670  0.00  0.00    +0.000 A 
ATOM     22  C   UNL     1      -0.739  17.350  19.300  0.00  0.00    +0.000 A 
ATOM     23  C   UNL     1      -0.423  16.228  18.533  0.00  0.00    +0.000 A 
ATOM     24  C   UNL     1      -0.315  14.970  19.136  0.00  0.00    +0.000 A 
ATOM     25 CL   UNL     1       0.097  13.632  18.122  0.00  0.00    +0.000 Cl
ENDBRANCH  18  19
BRANCH  17  26
ATOM     26  C   UNL     1      -2.548  12.792  20.992  0.00  0.00    +0.000 A 
ATOM     27  C   UNL     1      -3.523  13.200  21.909  0.00  0.00    +0.000 A 
ATOM     28  C   UNL     1      -4.883  13.109  21.583  0.00  0.00    +0.000 A 
ATOM     29  C   UNL     1      -5.281  12.630  20.337  0.00  0.00    +0.000 A 
ATOM     30  C   UNL     1      -4.321  12.284  19.391  0.00  0.00    +0.000 A 
ATOM     31  C   UNL     1      -2.964  12.374  19.713  0.00  0.00    +0.000 A 
ENDBRANCH  17  26
ENDBRANCH   5  17
TORSDOF 5
ENDMDL
MODEL 4
REMARK VINA RESULT:      -7.6      1.259      1.878
REMARK  Name = 
REMARK  6 active torsions:
REMARK  status: ('A' for Active; 'I' for Inactive)
REMARK    1  A    between atoms: C_1  and  O_2
REMARK    2  A    between atoms: O_2  and  C_3
REMARK    3  A    between atoms: C_6  and  N_7
REMARK    4  A    between atoms: C_11  and  C_13
REMARK    5  A    between atoms: C_13  and  C_22
REMARK    6  A    between atoms: C_14  and  C_15
REMARK                            x       y       z     vdW  Elec       q    Type
REMARK                         _______ _______ _______ _____ _____    ______ ____
ROOT
ATOM      1  N   UNL     1       1.626   8.560  20.422  0.00  0.00    +0.000 N 
ATOM      2  C   UNL     1       0.998   9.650  19.655  0.00  0.00    +0.000 C 
ATOM      3  C   UNL     1      -0.471   9.829  20.089  0.00  0.00    +0.000 C 
ATOM      4  N   UNL     1      -0.517  10.125  21.525  0.00  0.00    +0.000 N 
ATOM      5  C   UNL     1      -0.781  11.337  22.161  0.00  0.00    +0.000 C 
ATOM      6  O   UNL     1      -0.728  11.422  23.395  0.00  0.00    +0.000 OA
ATOM      7  C   UNL     1       0.020   8.978  22.295  0.00  0.00    +0.000 C 
ATOM      8  C   UNL     1       1.486   8.649  21.897  0.00  0.00    +0.000 C 
ENDROOT
BRANCH   1  12
ATOM      9  C   UNL     1       2.769   4.901  18.630  0.00  0.00    +0.000 A 
ATOM     10  C   UNL     1       2.179   4.923  19.891  0.00  0.00    +0.000 A 
ATOM     11  C   UNL     1       1.776   6.137  20.465  0.00  0.00    +0.000 A 
ATOM     12  C   UNL     1       1.975   7.364  19.817  0.00  0.00    +0.000 A 
ATOM     13  C   UNL     1       2.590   7.314  18.555  0.00  0.00    +0.000 A 
ATOM     14  C   UNL     1       2.984   6.105  17.968  0.00  0.00    +0.000 A 
BRANCH   9  16
ATOM     15  C   UNL     1       2.197   2.630  18.381  0.00  0.00    +0.000 C 
ATOM     16  O   UNL     1       3.145   3.671  18.166  0.00  0.00    +0.000 OA
ENDBRANCH   9  16
ENDBRANCH   1  12
BRANCH   5  17
ATOM     17  C   UNL     1      -1.173  12.595  21.373  0.00  0.00    +0.000 C 
ATOM     18  C   UNL     1      -0.401  13.695  21.302  0.00  0.00    +0.000 C 
BRANCH  18  19
ATOM     19  C   UNL     1      -0.632  14.947  20.550  0.00  0.00    +0.000 A 
ATOM     20  C   UNL     1      -0.134  14.989  19.240  0.00  0.00    +0.000 A 
ATOM     21  C   UNL     1      -0.371  16.091  18.421  0.00  0.00    +0.000 A 
ATOM     22  C   UNL     1      -1.123  17.163  18.892  0.00  0.00    +0.000 A 
ATOM     23  C   UNL     1      -1.626  17.137  20.193  0.00  0.00    +0.000 A 
ATOM     24  C   UNL     1      -1.373  16.041  21.025  0.00  0.00    +0.000 A 
ATOM     25 CL   UNL     1      -2.046  16.075  22.617  0.00  0.00    +0.000 Cl
ENDBRANCH  18  19
BRANCH  17  26
ATOM     26  C   UNL     1      -2.564  12.767  20.844  0.00  0.00    +0.000 A 
ATOM     27  C   UNL     1      -3.633  13.074  21.693  0.00  0.00    +0.000 A 
ATOM     28  C   UNL     1      -4.954  12.894  21.260  0.00  0.00    +0.000 A 
ATOM     29  C   UNL     1      -5.220  12.427  19.975  0.00  0.00    +0.000 A 
ATOM     30  C   UNL     1      -4.168  12.181  19.098  0.00  0.00    +0.000 A 
ATOM     31  C   UNL     1      -2.849  12.360  19.527  0.00  0.00    +0.000 A 
ENDBRANCH  17  26
ENDBRANCH   5  17
TORSDOF 5
ENDMDL
MODEL 5
REMARK VINA RESULT:      -7.5      3.172      9.788
REMARK  Name = 
REMARK  6 active torsions:
REMARK  status: ('A' for Active; 'I' for Inactive)
REMARK    1  A    between atoms: C_1  and  O_2
REMARK    2  A    between atoms: O_2  and  C_3
REMARK    3  A    between atoms: C_6  and  N_7
REMARK    4  A    between atoms: C_11  and  C_13
REMARK    5  A    between atoms: C_13  and  C_22
REMARK    6  A    between atoms: C_14  and  C_15
REMARK                            x       y       z     vdW  Elec       q    Type
REMARK                         _______ _______ _______ _____ _____    ______ ____
ROOT
ATOM      1  N   UNL     1       0.659   9.930  18.748  0.00  0.00    +0.000 N 
ATOM      2  C   UNL     1       1.802   9.272  18.093  0.00  0.00    +0.000 C 
ATOM      3  C   UNL     1       2.783   8.730  19.152  0.00  0.00    +0.000 C 
ATOM      4  N   UNL     1       2.080   7.781  20.021  0.00  0.00    +0.000 N 
ATOM      5  C   UNL     1       2.173   6.390  20.055  0.00  0.00    +0.000 C 
ATOM      6  O   UNL     1       1.461   5.733  20.826  0.00  0.00    +0.000 OA
ATOM      7  C   UNL     1       0.998   8.475  20.757  0.00  0.00    +0.000 C 
ATOM      8  C   UNL     1      -0.030   9.131  19.793  0.00  0.00    +0.000 C 
ENDROOT
BRANCH   1  12
ATOM      9  C   UNL     1       0.141  14.128  18.633  0.00  0.00    +0.000 A 
ATOM     10  C   UNL     1       1.416  13.568  18.666  0.00  0.00    +0.000 A 
ATOM     11  C   UNL     1       1.579  12.176  18.673  0.00  0.00    +0.000 A 
ATOM     12  C   UNL     1       0.483  11.302  18.680  0.00  0.00    +0.000 A 
ATOM     13  C   UNL     1      -0.791  11.894  18.666  0.00  0.00    +0.000 A 
ATOM     14  C   UNL     1      -0.964  13.284  18.645  0.00  0.00    +0.000 A 
BRANCH   9  16
ATOM     15  C   UNL     1      -0.846  16.050  19.571  0.00  0.00    +0.000 C 
ATOM     16  O   UNL     1       0.086  15.494  18.648  0.00  0.00    +0.000 OA
ENDBRANCH   9  16
ENDBRANCH   1  12
BRANCH   5  17
ATOM     17  C   UNL     1       3.170   5.625  19.173  0.00  0.00    +0.000 C 
ATOM     18  C   UNL     1       4.004   6.227  18.305  0.00  0.00    +0.000 C 
BRANCH  18  19
ATOM     19  C   UNL     1       5.036   5.623  17.435  0.00  0.00    +0.000 A 
ATOM     20  C   UNL     1       4.684   5.428  16.092  0.00  0.00    +0.000 A 
ATOM     21  C   UNL     1       5.613   4.942  15.174  0.00  0.00    +0.000 A 
ATOM     22  C   UNL     1       6.913   4.658  15.579  0.00  0.00    +0.000 A 
ATOM     23  C   UNL     1       7.280   4.847  16.912  0.00  0.00    +0.000 A 
ATOM     24  C   UNL     1       6.345   5.315  17.841  0.00  0.00    +0.000 A 
ATOM     25 CL   UNL     1       6.880   5.542  19.469  0.00  0.00    +0.000 Cl
ENDBRANCH  18  19
BRANCH  17  26
ATOM     26  C   UNL     1       3.091   4.135  19.040  0.00  0.00    +0.000 A 
ATOM     27  C   UNL     1       3.973   3.295  19.727  0.00  0.00    +0.000 A 
ATOM     28  C   UNL     1       4.120   1.955  19.340  0.00  0.00    +0.000 A 
ATOM     29  C   UNL     1       3.377   1.439  18.282  0.00  0.00    +0.000 A 
ATOM     30  C   UNL     1       2.447   2.245  17.633  0.00  0.00    +0.000 A 
ATOM     31  C   UNL     1       2.297   3.581  18.017  0.00  0.00    +0.000 A 
ENDBRANCH  17  26
ENDBRANCH   5  17
TORSDOF 5
ENDMDL
MODEL 6
REMARK VINA RESULT:      -7.4      1.176      1.488
REMARK  Name = 
REMARK  6 active torsions:
REMARK  status: ('A' for Active; 'I' for Inactive)
REMARK    1  A    between atoms: C_1  and  O_2
REMARK    2  A    between atoms: O_2  and  C_3
REMARK    3  A    between atoms: C_6  and  N_7
REMARK    4  A    between atoms: C_11  and  C_13
REMARK    5  A    between atoms: C_13  and  C_22
REMARK    6  A    between atoms: C_14  and  C_15
REMARK                            x       y       z     vdW  Elec       q    Type
REMARK                         _______ _______ _______ _____ _____    ______ ____
ROOT
ATOM      1  N   UNL     1       1.658   8.506  20.547  0.00  0.00    +0.000 N 
ATOM      2  C   UNL     1       1.093   9.551  19.676  0.00  0.00    +0.000 C 
ATOM      3  C   UNL     1      -0.402   9.756  19.991  0.00  0.00    +0.000 C 
ATOM      4  N   UNL     1      -0.552  10.133  21.400  0.00  0.00    +0.000 N 
ATOM      5  C   UNL     1      -0.856  11.381  21.945  0.00  0.00    +0.000 C 
ATOM      6  O   UNL     1      -0.893  11.535  23.173  0.00  0.00    +0.000 OA
ATOM      7  C   UNL     1      -0.079   9.032  22.271  0.00  0.00    +0.000 C 
ATOM      8  C   UNL     1       1.410   8.679  22.001  0.00  0.00    +0.000 C 
ENDROOT
BRANCH   1  12
ATOM      9  C   UNL     1       2.755   4.749  18.939  0.00  0.00    +0.000 A 
ATOM     10  C   UNL     1       2.933   5.918  18.203  0.00  0.00    +0.000 A 
ATOM     11  C   UNL     1       2.596   7.162  18.755  0.00  0.00    +0.000 A 
ATOM     12  C   UNL     1       2.043   7.277  20.038  0.00  0.00    +0.000 A 
ATOM     13  C   UNL     1       1.855   6.080  20.750  0.00  0.00    +0.000 A 
ATOM     14  C   UNL     1       2.202   4.834  20.212  0.00  0.00    +0.000 A 
BRANCH   9  16
ATOM     15  C   UNL     1       2.355   3.304  17.122  0.00  0.00    +0.000 C 
ATOM     16  O   UNL     1       3.096   3.586  18.306  0.00  0.00    +0.000 OA
ENDBRANCH   9  16
ENDBRANCH   1  12
BRANCH   5  17
ATOM     17  C   UNL     1      -1.182  12.591  21.060  0.00  0.00    +0.000 C 
ATOM     18  C   UNL     1      -0.536  13.770  21.149  0.00  0.00    +0.000 C 
BRANCH  18  19
ATOM     19  C   UNL     1      -0.715  14.992  20.337  0.00  0.00    +0.000 A 
ATOM     20  C   UNL     1      -0.014  15.043  19.123  0.00  0.00    +0.000 A 
ATOM     21  C   UNL     1      -0.179  16.115  18.248  0.00  0.00    +0.000 A 
ATOM     22  C   UNL     1      -1.060  17.146  18.564  0.00  0.00    +0.000 A 
ATOM     23  C   UNL     1      -1.765  17.110  19.767  0.00  0.00    +0.000 A 
ATOM     24  C   UNL     1      -1.587  16.045  20.658  0.00  0.00    +0.000 A 
ATOM     25 CL   UNL     1      -2.510  16.063  22.119  0.00  0.00    +0.000 Cl
ENDBRANCH  18  19
BRANCH  17  26
ATOM     26  C   UNL     1      -2.419  12.614  20.216  0.00  0.00    +0.000 A 
ATOM     27  C   UNL     1      -3.675  12.880  20.772  0.00  0.00    +0.000 A 
ATOM     28  C   UNL     1      -4.843  12.564  20.065  0.00  0.00    +0.000 A 
ATOM     29  C   UNL     1      -4.770  12.001  18.793  0.00  0.00    +0.000 A 
ATOM     30  C   UNL     1      -3.528  11.793  18.200  0.00  0.00    +0.000 A 
ATOM     31  C   UNL     1      -2.361  12.108  18.904  0.00  0.00    +0.000 A 
ENDBRANCH  17  26
ENDBRANCH   5  17
TORSDOF 5
ENDMDL
MODEL 7
REMARK VINA RESULT:      -7.4      3.439      9.728
REMARK  Name = 
REMARK  6 active torsions:
REMARK  status: ('A' for Active; 'I' for Inactive)
REMARK    1  A    between atoms: C_1  and  O_2
REMARK    2  A    between atoms: O_2  and  C_3
REMARK    3  A    between atoms: C_6  and  N_7
REMARK    4  A    between atoms: C_11  and  C_13
REMARK    5  A    between atoms: C_13  and  C_22
REMARK    6  A    between atoms: C_14  and  C_15
REMARK                            x       y       z     vdW  Elec       q    Type
REMARK                         _______ _______ _______ _____ _____    ______ ____
ROOT
ATOM      1  N   UNL     1       0.818  10.435  20.813  0.00  0.00    +0.000 N 
ATOM      2  C   UNL     1       0.942   8.967  20.849  0.00  0.00    +0.000 C 
ATOM      3  C   UNL     1       0.554   8.367  19.483  0.00  0.00    +0.000 C 
ATOM      4  N   UNL     1       1.426   8.926  18.444  0.00  0.00    +0.000 N 
ATOM      5  C   UNL     1       2.482   8.317  17.766  0.00  0.00    +0.000 C 
ATOM      6  O   UNL     1       3.152   8.959  16.947  0.00  0.00    +0.000 OA
ATOM      7  C   UNL     1       1.217  10.389  18.342  0.00  0.00    +0.000 C 
ATOM      8  C   UNL     1       1.510  11.111  19.687  0.00  0.00    +0.000 C 
ENDROOT
BRANCH   1  12
ATOM      9  C   UNL     1      -2.132  12.491  23.043  0.00  0.00    +0.000 A 
ATOM     10  C   UNL     1      -1.549  13.078  21.923  0.00  0.00    +0.000 A 
ATOM     11  C   UNL     1      -0.594  12.378  21.171  0.00  0.00    +0.000 A 
ATOM     12  C   UNL     1      -0.170  11.090  21.529  0.00  0.00    +0.000 A 
ATOM     13  C   UNL     1      -0.760  10.532  22.675  0.00  0.00    +0.000 A 
ATOM     14  C   UNL     1      -1.725  11.218  23.424  0.00  0.00    +0.000 A 
BRANCH   9  16
ATOM     15  C   UNL     1      -4.067  12.538  24.386  0.00  0.00    +0.000 C 
ATOM     16  O   UNL     1      -3.037  13.262  23.719  0.00  0.00    +0.000 OA
ENDBRANCH   9  16
ENDBRANCH   1  12
BRANCH   5  17
ATOM     17  C   UNL     1       2.834   6.839  17.981  0.00  0.00    +0.000 C 
ATOM     18  C   UNL     1       1.952   5.923  18.421  0.00  0.00    +0.000 C 
BRANCH  18  19
ATOM     19  C   UNL     1       2.142   4.471  18.627  0.00  0.00    +0.000 A 
ATOM     20  C   UNL     1       2.265   3.688  17.471  0.00  0.00    +0.000 A 
ATOM     21  C   UNL     1       2.528   2.322  17.559  0.00  0.00    +0.000 A 
ATOM     22  C   UNL     1       2.690   1.720  18.804  0.00  0.00    +0.000 A 
ATOM     23  C   UNL     1       2.572   2.486  19.964  0.00  0.00    +0.000 A 
ATOM     24  C   UNL     1       2.287   3.854  19.880  0.00  0.00    +0.000 A 
ATOM     25 CL   UNL     1       2.175   4.738  21.361  0.00  0.00    +0.000 Cl
ENDBRANCH  18  19
BRANCH  17  26
ATOM     26  C   UNL     1       4.260   6.379  17.958  0.00  0.00    +0.000 A 
ATOM     27  C   UNL     1       4.923   6.121  16.753  0.00  0.00    +0.000 A 
ATOM     28  C   UNL     1       6.110   5.376  16.745  0.00  0.00    +0.000 A 
ATOM     29  C   UNL     1       6.656   4.900  17.935  0.00  0.00    +0.000 A 
ATOM     30  C   UNL     1       6.043   5.207  19.146  0.00  0.00    +0.000 A 
ATOM     31  C   UNL     1       4.859   5.950  19.158  0.00  0.00    +0.000 A 
ENDBRANCH  17  26
ENDBRANCH   5  17
TORSDOF 5
ENDMDL
MODEL 8
REMARK VINA RESULT:      -7.3      3.074      4.935
REMARK  Name = 
REMARK  6 active torsions:
REMARK  status: ('A' for Active; 'I' for Inactive)
REMARK    1  A    between atoms: C_1  and  O_2
REMARK    2  A    between atoms: O_2  and  C_3
REMARK    3  A    between atoms: C_6  and  N_7
REMARK    4  A    between atoms: C_11  and  C_13
REMARK    5  A    between atoms: C_13  and  C_22
REMARK    6  A    between atoms: C_14  and  C_15
REMARK                            x       y       z     vdW  Elec       q    Type
REMARK                         _______ _______ _______ _____ _____    ______ ____
ROOT
ATOM      1  N   UNL     1       0.775  10.049  19.423  0.00  0.00    +0.000 N 
ATOM      2  C   UNL     1      -0.248  10.128  20.481  0.00  0.00    +0.000 C 
ATOM      3  C   UNL     1       0.203  11.103  21.586  0.00  0.00    +0.000 C 
ATOM      4  N   UNL     1       0.431  12.428  20.999  0.00  0.00    +0.000 N 
ATOM      5  C   UNL     1      -0.351  13.578  21.101  0.00  0.00    +0.000 C 
ATOM      6  O   UNL     1      -0.034  14.608  20.492  0.00  0.00    +0.000 OA
ATOM      7  C   UNL     1       1.534  12.360  20.013  0.00  0.00    +0.000 C 
ATOM      8  C   UNL     1       1.230  11.350  18.871  0.00  0.00    +0.000 C 
ENDROOT
BRANCH   1  12
ATOM      9  C   UNL     1       2.999   6.505  18.796  0.00  0.00    +0.000 A 
ATOM     10  C   UNL     1       2.894   7.466  17.794  0.00  0.00    +0.000 A 
ATOM     11  C   UNL     1       2.180   8.652  18.021  0.00  0.00    +0.000 A 
ATOM     12  C   UNL     1       1.527   8.901  19.235  0.00  0.00    +0.000 A 
ATOM     13  C   UNL     1       1.633   7.906  20.221  0.00  0.00    +0.000 A 
ATOM     14  C   UNL     1       2.355   6.724  20.009  0.00  0.00    +0.000 A 
BRANCH   9  16
ATOM     15  C   UNL     1       4.878   5.155  19.240  0.00  0.00    +0.000 C 
ATOM     16  O   UNL     1       3.699   5.376  18.471  0.00  0.00    +0.000 OA
ENDBRANCH   9  16
ENDBRANCH   1  12
BRANCH   5  17
ATOM     17  C   UNL     1      -1.605  13.626  21.984  0.00  0.00    +0.000 C 
ATOM     18  C   UNL     1      -2.675  12.830  21.796  0.00  0.00    +0.000 C 
BRANCH  18  19
ATOM     19  C   UNL     1      -3.919  12.739  22.591  0.00  0.00    +0.000 A 
ATOM     20  C   UNL     1      -3.780  12.320  23.922  0.00  0.00    +0.000 A 
ATOM     21  C   UNL     1      -4.879  12.280  24.776  0.00  0.00    +0.000 A 
ATOM     22  C   UNL     1      -6.134  12.675  24.320  0.00  0.00    +0.000 A 
ATOM     23  C   UNL     1      -6.289  13.095  22.999  0.00  0.00    +0.000 A 
ATOM     24  C   UNL     1      -5.191  13.117  22.132  0.00  0.00    +0.000 A 
ATOM     25 CL   UNL     1      -5.460  13.668  20.516  0.00  0.00    +0.000 Cl
ENDBRANCH  18  19
BRANCH  17  26
ATOM     26  C   UNL     1      -1.818  14.746  22.956  0.00  0.00    +0.000 A 
ATOM     27  C   UNL     1      -1.299  14.692  24.254  0.00  0.00    +0.000 A 
ATOM     28  C   UNL     1      -1.782  15.558  25.245  0.00  0.00    +0.000 A 
ATOM     29  C   UNL     1      -2.768  16.495  24.947  0.00  0.00    +0.000 A 
ATOM     30  C   UNL     1      -3.245  16.605  23.644  0.00  0.00    +0.000 A 
ATOM     31  C   UNL     1      -2.765  15.743  22.653  0.00  0.00    +0.000 A 
ENDBRANCH  17  26
ENDBRANCH   5  17
TORSDOF 5
ENDMDL
MODEL 9
REMARK VINA RESULT:      -7.3      4.750      7.693
REMARK  Name = 
REMARK  6 active torsions:
REMARK  status: ('A' for Active; 'I' for Inactive)
REMARK    1  A    between atoms: C_1  and  O_2
REMARK    2  A    between atoms: O_2  and  C_3
REMARK    3  A    between atoms: C_6  and  N_7
REMARK    4  A    between atoms: C_11  and  C_13
REMARK    5  A    between atoms: C_13  and  C_22
REMARK    6  A    between atoms: C_14  and  C_15
REMARK                            x       y       z     vdW  Elec       q    Type
REMARK                         _______ _______ _______ _____ _____    ______ ____
ROOT
ATOM      1  N   UNL     1       3.882  15.614  19.238  0.00  0.00    +0.000 N 
ATOM      2  C   UNL     1       3.085  14.463  18.778  0.00  0.00    +0.000 C 
ATOM      3  C   UNL     1       2.840  13.485  19.945  0.00  0.00    +0.000 C 
ATOM      4  N   UNL     1       2.140  14.188  21.025  0.00  0.00    +0.000 N 
ATOM      5  C   UNL     1       0.805  14.087  21.416  0.00  0.00    +0.000 C 
ATOM      6  O   UNL     1       0.363  14.800  22.326  0.00  0.00    +0.000 OA
ATOM      7  C   UNL     1       2.993  15.278  21.554  0.00  0.00    +0.000 C 
ATOM      8  C   UNL     1       3.372  16.304  20.450  0.00  0.00    +0.000 C 
ENDROOT
BRANCH   1  12
ATOM      9  C   UNL     1       7.906  16.118  18.033  0.00  0.00    +0.000 A 
ATOM     10  C   UNL     1       7.227  14.932  17.769  0.00  0.00    +0.000 A 
ATOM     11  C   UNL     1       5.884  14.784  18.145  0.00  0.00    +0.000 A 
ATOM     12  C   UNL     1       5.189  15.797  18.820  0.00  0.00    +0.000 A 
ATOM     13  C   UNL     1       5.904  16.975  19.091  0.00  0.00    +0.000 A 
ATOM     14  C   UNL     1       7.242  17.137  18.707  0.00  0.00    +0.000 A 
BRANCH   9  16
ATOM     15  C   UNL     1       9.932  14.937  17.816  0.00  0.00    +0.000 C 
ATOM     16  O   UNL     1       9.216  16.157  17.646  0.00  0.00    +0.000 OA
ENDBRANCH   9  16
ENDBRANCH   1  12
BRANCH   5  17
ATOM     17  C   UNL     1      -0.154  13.082  20.763  0.00  0.00    +0.000 C 
ATOM     18  C   UNL     1      -1.027  13.413  19.794  0.00  0.00    +0.000 C 
BRANCH  18  19
ATOM     19  C   UNL     1      -1.968  12.545  19.052  0.00  0.00    +0.000 A 
ATOM     20  C   UNL     1      -1.449  11.871  17.938  0.00  0.00    +0.000 A 
ATOM     21  C   UNL     1      -2.231  10.968  17.222  0.00  0.00    +0.000 A 
ATOM     22  C   UNL     1      -3.540  10.710  17.618  0.00  0.00    +0.000 A 
ATOM     23  C   UNL     1      -4.072  11.371  18.726  0.00  0.00    +0.000 A 
ATOM     24  C   UNL     1      -3.296  12.295  19.434  0.00  0.00    +0.000 A 
ATOM     25 CL   UNL     1      -4.019  13.059  20.806  0.00  0.00    +0.000 Cl
ENDBRANCH  18  19
BRANCH  17  26
ATOM     26  C   UNL     1      -0.353  11.719  21.351  0.00  0.00    +0.000 A 
ATOM     27  C   UNL     1      -1.105  11.531  22.516  0.00  0.00    +0.000 A 
ATOM     28  C   UNL     1      -1.002  10.335  23.240  0.00  0.00    +0.000 A 
ATOM     29  C   UNL     1      -0.166   9.312  22.800  0.00  0.00    +0.000 A 
ATOM     30  C   UNL     1       0.537   9.458  21.607  0.00  0.00    +0.000 A 
ATOM     31  C   UNL     1       0.436  10.650  20.883  0.00  0.00    +0.000 A 
ENDBRANCH  17  26
ENDBRANCH   5  17
TORSDOF 5
ENDMDL
