MODEL 1
REMARK VINA RESULT:      -9.6      0.000      0.000
REMARK  Name = 
REMARK  7 active torsions:
REMARK  status: ('A' for Active; 'I' for Inactive)
REMARK    1  A    between atoms: C_1  and  N_2
REMARK    2  A    between atoms: N_2  and  C_3
REMARK    3  A    between atoms: N_2  and  C_4
REMARK    4  A    between atoms: C_4  and  C_5
REMARK    5  A    between atoms: N_7  and  C_8
REMARK    6  A    between atoms: C_12  and  C_13
REMARK    7  A    between atoms: N_22  and  C_23
REMARK                            x       y       z     vdW  Elec       q    Type
REMARK                         _______ _______ _______ _____ _____    ______ ____
ROOT
ATOM      1  C   UNL     1      -0.116  11.919  20.254  0.00  0.00    +0.000 C 
ATOM      2  C   UNL     1      -1.328  12.741  19.749  0.00  0.00    +0.000 C 
ATOM      3  C   UNL     1      -1.967  13.625  20.823  0.00  0.00    +0.000 C 
ATOM      4  N   UNL     1      -2.471  12.728  21.828  0.00  0.00    +0.000 N 
ATOM      5  C   UNL     1      -1.391  12.192  22.641  0.00  0.00    +0.000 C 
ATOM      6  C   UNL     1      -0.448  11.384  21.718  0.00  0.00    +0.000 C 
ENDROOT
BRANCH   4   7
ATOM      7  C   UNL     1      -3.801  12.734  22.204  0.00  0.00    +0.000 A 
ATOM      8  N   UNL     1      -4.085  12.895  23.519  0.00  0.00    +0.000 NA
ATOM      9  C   UNL     1      -5.380  12.917  23.940  0.00  0.00    +0.000 A 
ATOM     10  N   UNL     1      -6.484  12.786  23.200  0.00  0.00    +0.000 NA
ATOM     11  C   UNL     1      -6.191  12.585  21.910  0.00  0.00    +0.000 A 
ATOM     12  N   UNL     1      -7.150  12.386  20.951  0.00  0.00    +0.000 N 
ATOM     13  C   UNL     1      -6.546  12.193  19.743  0.00  0.00    +0.000 A 
ATOM     14  C   UNL     1      -5.179  12.256  19.936  0.00  0.00    +0.000 A 
ATOM     15  C   UNL     1      -4.925  12.545  21.331  0.00  0.00    +0.000 A 
ATOM     16  C   UNL     1      -4.254  12.020  18.795  0.00  0.00    +0.000 C 
ATOM     17  C   UNL     1      -4.904  11.675  17.461  0.00  0.00    +0.000 C 
ATOM     18  C   UNL     1      -6.274  12.330  17.295  0.00  0.00    +0.000 C 
ATOM     19  C   UNL     1      -7.218  11.913  18.441  0.00  0.00    +0.000 C 
ATOM     20  H   UNL     1      -8.138  12.367  21.150  0.00  0.00    +0.000 HD
ENDBRANCH   4   7
BRANCH   1  21
ATOM     21  C   UNL     1       0.086  10.542  19.456  0.00  0.00    +0.000 C 
ATOM     22  O   UNL     1      -0.712  10.123  18.623  0.00  0.00    +0.000 OA
ATOM     23  N   UNL     1       1.270   9.883  19.826  0.00  0.00    +0.000 N 
ATOM     24  H   UNL     1       1.748  10.234  20.647  0.00  0.00    +0.000 HD
BRANCH  23  25
ATOM     25  C   UNL     1       1.795   8.731  19.212  0.00  0.00    +0.000 A 
ATOM     26  C   UNL     1       2.466   8.863  17.999  0.00  0.00    +0.000 A 
ATOM     27  C   UNL     1       3.080   7.750  17.427  0.00  0.00    +0.000 A 
ATOM     28  C   UNL     1       2.957   6.491  18.026  0.00  0.00    +0.000 A 
ATOM     29  C   UNL     1       2.189   6.300  19.190  0.00  0.00    +0.000 A 
ATOM     30  C   UNL     1       1.628   7.458  19.772  0.00  0.00    +0.000 A 
BRANCH  29  31
ATOM     31  C   UNL     1       1.995   4.947  19.788  0.00  0.00    +0.000 A 
ATOM     32  C   UNL     1       1.469   3.879  19.036  0.00  0.00    +0.000 A 
ATOM     33  C   UNL     1       1.266   2.611  19.592  0.00  0.00    +0.000 A 
ATOM     34  C   UNL     1       1.573   2.376  20.927  0.00  0.00    +0.000 A 
ATOM     35  C   UNL     1       2.102   3.404  21.698  0.00  0.00    +0.000 A 
ATOM     36  C   UNL     1       2.320   4.668  21.132  0.00  0.00    +0.000 A 
ENDBRANCH  29  31
ENDBRANCH  23  25
ENDBRANCH   1  21
BRANCH   1  38
ATOM     37  C   UNL     1       1.118  13.378  18.672  0.00  0.00    +0.000 C 
ATOM     38  N   UNL     1       1.173  12.665  19.985  0.00  0.00    +0.000 NA
ATOM     39  C   UNL     1       1.562  13.634  21.001  0.00  0.00    +0.000 C 
ENDBRANCH   1  38
TORSDOF 5
ENDMDL
MODEL 2
REMARK VINA RESULT:      -9.2      1.281      2.509
REMARK  Name = 
REMARK  7 active torsions:
REMARK  status: ('A' for Active; 'I' for Inactive)
REMARK    1  A    between atoms: C_1  and  N_2
REMARK    2  A    between atoms: N_2  and  C_3
REMARK    3  A    between atoms: N_2  and  C_4
REMARK    4  A    between atoms: C_4  and  C_5
REMARK    5  A    between atoms: N_7  and  C_8
REMARK    6  A    between atoms: C_12  and  C_13
REMARK    7  A    between atoms: N_22  and  C_23
REMARK                            x       y       z     vdW  Elec       q    Type
REMARK                         _______ _______ _______ _____ _____    ______ ____
ROOT
ATOM      1  C   UNL     1       0.349  11.530  20.000  0.00  0.00    +0.000 C 
ATOM      2  C   UNL     1      -0.885  12.250  19.402  0.00  0.00    +0.000 C 
ATOM      3  C   UNL     1      -1.492  13.309  20.326  0.00  0.00    +0.000 C 
ATOM      4  N   UNL     1      -1.956  12.601  21.491  0.00  0.00    +0.000 N 
ATOM      5  C   UNL     1      -0.845  12.217  22.346  0.00  0.00    +0.000 C 
ATOM      6  C   UNL     1       0.072  11.260  21.547  0.00  0.00    +0.000 C 
ENDROOT
BRANCH   4   7
ATOM      7  C   UNL     1      -3.271  12.672  21.906  0.00  0.00    +0.000 A 
ATOM      8  N   UNL     1      -3.507  12.886  23.223  0.00  0.00    +0.000 NA
ATOM      9  C   UNL     1      -4.787  12.973  23.682  0.00  0.00    +0.000 A 
ATOM     10  N   UNL     1      -5.918  12.864  22.981  0.00  0.00    +0.000 NA
ATOM     11  C   UNL     1      -5.673  12.611  21.689  0.00  0.00    +0.000 A 
ATOM     12  N   UNL     1      -6.670  12.422  20.766  0.00  0.00    +0.000 N 
ATOM     13  C   UNL     1      -6.111  12.167  19.547  0.00  0.00    +0.000 A 
ATOM     14  C   UNL     1      -4.738  12.181  19.697  0.00  0.00    +0.000 A 
ATOM     15  C   UNL     1      -4.429  12.502  21.074  0.00  0.00    +0.000 A 
ATOM     16  C   UNL     1      -3.859  11.873  18.537  0.00  0.00    +0.000 C 
ATOM     17  C   UNL     1      -4.564  11.514  17.235  0.00  0.00    +0.000 C 
ATOM     18  C   UNL     1      -5.912  12.218  17.089  0.00  0.00    +0.000 C 
ATOM     19  C   UNL     1      -6.834  11.875  18.276  0.00  0.00    +0.000 C 
ATOM     20  H   UNL     1      -7.651  12.449  20.995  0.00  0.00    +0.000 HD
ENDBRANCH   4   7
BRANCH   1  21
ATOM     21  C   UNL     1       0.533  10.035  19.450  0.00  0.00    +0.000 C 
ATOM     22  O   UNL     1       0.136   9.669  18.348  0.00  0.00    +0.000 OA
ATOM     23  N   UNL     1       1.192   9.206  20.373  0.00  0.00    +0.000 N 
ATOM     24  H   UNL     1       1.307   9.571  21.310  0.00  0.00    +0.000 HD
BRANCH  23  25
ATOM     25  C   UNL     1       1.622   7.888  20.133  0.00  0.00    +0.000 A 
ATOM     26  C   UNL     1       1.234   6.885  21.018  0.00  0.00    +0.000 A 
ATOM     27  C   UNL     1       1.564   5.558  20.742  0.00  0.00    +0.000 A 
ATOM     28  C   UNL     1       2.349   5.244  19.627  0.00  0.00    +0.000 A 
ATOM     29  C   UNL     1       2.857   6.244  18.777  0.00  0.00    +0.000 A 
ATOM     30  C   UNL     1       2.456   7.570  19.055  0.00  0.00    +0.000 A 
BRANCH  29  31
ATOM     31  C   UNL     1       3.755   5.918  17.632  0.00  0.00    +0.000 A 
ATOM     32  C   UNL     1       3.999   4.586  17.244  0.00  0.00    +0.000 A 
ATOM     33  C   UNL     1       4.853   4.268  16.183  0.00  0.00    +0.000 A 
ATOM     34  C   UNL     1       5.503   5.278  15.482  0.00  0.00    +0.000 A 
ATOM     35  C   UNL     1       5.281   6.604  15.831  0.00  0.00    +0.000 A 
ATOM     36  C   UNL     1       4.410   6.919  16.884  0.00  0.00    +0.000 A 
ENDBRANCH  29  31
ENDBRANCH  23  25
ENDBRANCH   1  21
BRANCH   1  38
ATOM     37  C   UNL     1       1.422  12.950  18.271  0.00  0.00    +0.000 C 
ATOM     38  N   UNL     1       1.623  12.218  19.560  0.00  0.00    +0.000 NA
ATOM     39  C   UNL     1       2.196  13.154  20.518  0.00  0.00    +0.000 C 
ENDBRANCH   1  38
TORSDOF 5
ENDMDL
MODEL 3
REMARK VINA RESULT:      -9.0      2.300      3.950
REMARK  Name = 
REMARK  7 active torsions:
REMARK  status: ('A' for Active; 'I' for Inactive)
REMARK    1  A    between atoms: C_1  and  N_2
REMARK    2  A    between atoms: N_2  and  C_3
REMARK    3  A    between atoms: N_2  and  C_4
REMARK    4  A    between atoms: C_4  and  C_5
REMARK    5  A    between atoms: N_7  and  C_8
REMARK    6  A    between atoms: C_12  and  C_13
REMARK    7  A    between atoms: N_22  and  C_23
REMARK                            x       y       z     vdW  Elec       q    Type
REMARK                         _______ _______ _______ _____ _____    ______ ____
ROOT
ATOM      1  C   UNL     1       0.445  11.682  20.522  0.00  0.00    +0.000 C 
ATOM      2  C   UNL     1       0.403  11.999  19.006  0.00  0.00    +0.000 C 
ATOM      3  C   UNL     1      -0.800  12.845  18.583  0.00  0.00    +0.000 C 
ATOM      4  N   UNL     1      -1.965  12.049  18.867  0.00  0.00    +0.000 N 
ATOM      5  C   UNL     1      -2.245  12.021  20.294  0.00  0.00    +0.000 C 
ATOM      6  C   UNL     1      -1.040  11.364  21.009  0.00  0.00    +0.000 C 
ENDROOT
BRANCH   4   7
ATOM      7  C   UNL     1      -2.886  11.736  17.886  0.00  0.00    +0.000 A 
ATOM      8  N   UNL     1      -2.424  11.185  16.739  0.00  0.00    +0.000 NA
ATOM      9  C   UNL     1      -3.292  10.850  15.744  0.00  0.00    +0.000 A 
ATOM     10  N   UNL     1      -4.618  11.003  15.728  0.00  0.00    +0.000 NA
ATOM     11  C   UNL     1      -5.059  11.587  16.849  0.00  0.00    +0.000 A 
ATOM     12  N   UNL     1      -6.381  11.886  17.063  0.00  0.00    +0.000 N 
ATOM     13  C   UNL     1      -6.515  12.489  18.279  0.00  0.00    +0.000 A 
ATOM     14  C   UNL     1      -5.258  12.588  18.846  0.00  0.00    +0.000 A 
ATOM     15  C   UNL     1      -4.300  11.977  17.950  0.00  0.00    +0.000 A 
ATOM     16  C   UNL     1      -5.085  13.263  20.160  0.00  0.00    +0.000 C 
ATOM     17  C   UNL     1      -6.344  13.849  20.787  0.00  0.00    +0.000 C 
ATOM     18  C   UNL     1      -7.599  13.059  20.420  0.00  0.00    +0.000 C 
ATOM     19  C   UNL     1      -7.776  13.001  18.890  0.00  0.00    +0.000 C 
ATOM     20  H   UNL     1      -7.108  11.697  16.390  0.00  0.00    +0.000 HD
ENDBRANCH   4   7
BRANCH   1  21
ATOM     21  C   UNL     1       1.186  10.299  20.856  0.00  0.00    +0.000 C 
ATOM     22  O   UNL     1       1.637  10.027  21.965  0.00  0.00    +0.000 OA
ATOM     23  N   UNL     1       1.258   9.451  19.738  0.00  0.00    +0.000 N 
ATOM     24  H   UNL     1       1.016   9.859  18.843  0.00  0.00    +0.000 HD
BRANCH  23  25
ATOM     25  C   UNL     1       1.722   8.124  19.743  0.00  0.00    +0.000 A 
ATOM     26  C   UNL     1       1.382   7.298  20.812  0.00  0.00    +0.000 A 
ATOM     27  C   UNL     1       1.746   5.952  20.785  0.00  0.00    +0.000 A 
ATOM     28  C   UNL     1       2.517   5.451  19.730  0.00  0.00    +0.000 A 
ATOM     29  C   UNL     1       2.977   6.283  18.692  0.00  0.00    +0.000 A 
ATOM     30  C   UNL     1       2.543   7.627  18.723  0.00  0.00    +0.000 A 
BRANCH  29  31
ATOM     31  C   UNL     1       3.860   5.767  17.607  0.00  0.00    +0.000 A 
ATOM     32  C   UNL     1       4.558   6.639  16.749  0.00  0.00    +0.000 A 
ATOM     33  C   UNL     1       5.375   6.166  15.717  0.00  0.00    +0.000 A 
ATOM     34  C   UNL     1       5.509   4.799  15.502  0.00  0.00    +0.000 A 
ATOM     35  C   UNL     1       4.841   3.908  16.333  0.00  0.00    +0.000 A 
ATOM     36  C   UNL     1       4.038   4.386  17.378  0.00  0.00    +0.000 A 
ENDBRANCH  29  31
ENDBRANCH  23  25
ENDBRANCH   1  21
BRANCH   1  38
ATOM     37  C   UNL     1       2.346  13.267  20.356  0.00  0.00    +0.000 C 
ATOM     38  N   UNL     1       1.286  12.708  21.250  0.00  0.00    +0.000 NA
ATOM     39  C   UNL     1       0.553  13.828  21.826  0.00  0.00    +0.000 C 
ENDBRANCH   1  38
TORSDOF 5
ENDMDL
MODEL 4
REMARK VINA RESULT:      -9.0      1.893      3.651
REMARK  Name = 
REMARK  7 active torsions:
REMARK  status: ('A' for Active; 'I' for Inactive)
REMARK    1  A    between atoms: C_1  and  N_2
REMARK    2  A    between atoms: N_2  and  C_3
REMARK    3  A    between atoms: N_2  and  C_4
REMARK    4  A    between atoms: C_4  and  C_5
REMARK    5  A    between atoms: N_7  and  C_8
REMARK    6  A    between atoms: C_12  and  C_13
REMARK    7  A    between atoms: N_22  and  C_23
REMARK                            x       y       z     vdW  Elec       q    Type
REMARK                         _______ _______ _______ _____ _____    ______ ____
ROOT
ATOM      1  C   UNL     1       0.351  11.766  20.621  0.00  0.00    +0.000 C 
ATOM      2  C   UNL     1      -0.110  11.884  19.147  0.00  0.00    +0.000 C 
ATOM      3  C   UNL     1      -1.292  12.835  18.941  0.00  0.00    +0.000 C 
ATOM      4  N   UNL     1      -2.394  12.262  19.670  0.00  0.00    +0.000 N 
ATOM      5  C   UNL     1      -2.235  12.463  21.101  0.00  0.00    +0.000 C 
ATOM      6  C   UNL     1      -0.944  11.737  21.550  0.00  0.00    +0.000 C 
ENDROOT
BRANCH   4   7
ATOM      7  C   UNL     1      -3.593  11.962  19.053  0.00  0.00    +0.000 A 
ATOM      8  N   UNL     1      -3.558  11.588  17.752  0.00  0.00    +0.000 NA
ATOM      9  C   UNL     1      -4.711  11.273  17.100  0.00  0.00    +0.000 A 
ATOM     10  N   UNL     1      -5.955  11.286  17.585  0.00  0.00    +0.000 NA
ATOM     11  C   UNL     1      -5.983  11.697  18.858  0.00  0.00    +0.000 A 
ATOM     12  N   UNL     1      -7.146  11.831  19.572  0.00  0.00    +0.000 N 
ATOM     13  C   UNL     1      -6.854  12.283  20.827  0.00  0.00    +0.000 A 
ATOM     14  C   UNL     1      -5.486  12.452  20.910  0.00  0.00    +0.000 A 
ATOM     15  C   UNL     1      -4.894  12.045  19.654  0.00  0.00    +0.000 A 
ATOM     16  C   UNL     1      -4.877  12.996  22.154  0.00  0.00    +0.000 C 
ATOM     17  C   UNL     1      -5.846  13.377  23.267  0.00  0.00    +0.000 C 
ATOM     18  C   UNL     1      -7.100  12.504  23.271  0.00  0.00    +0.000 C 
ATOM     19  C   UNL     1      -7.827  12.592  21.915  0.00  0.00    +0.000 C 
ATOM     20  H   UNL     1      -8.058  11.641  19.188  0.00  0.00    +0.000 HD
ENDBRANCH   4   7
BRANCH   1  21
ATOM     21  C   UNL     1       1.012  10.346  20.962  0.00  0.00    +0.000 C 
ATOM     22  O   UNL     1       1.313   9.999  22.101  0.00  0.00    +0.000 OA
ATOM     23  N   UNL     1       1.207   9.561  19.814  0.00  0.00    +0.000 N 
ATOM     24  H   UNL     1       1.089  10.025  18.922  0.00  0.00    +0.000 HD
BRANCH  23  25
ATOM     25  C   UNL     1       1.637   8.222  19.798  0.00  0.00    +0.000 A 
ATOM     26  C   UNL     1       1.269   7.386  20.850  0.00  0.00    +0.000 A 
ATOM     27  C   UNL     1       1.599   6.032  20.801  0.00  0.00    +0.000 A 
ATOM     28  C   UNL     1       2.365   5.530  19.742  0.00  0.00    +0.000 A 
ATOM     29  C   UNL     1       2.853   6.369  18.722  0.00  0.00    +0.000 A 
ATOM     30  C   UNL     1       2.452   7.722  18.774  0.00  0.00    +0.000 A 
BRANCH  29  31
ATOM     31  C   UNL     1       3.730   5.850  17.634  0.00  0.00    +0.000 A 
ATOM     32  C   UNL     1       3.863   4.469  17.391  0.00  0.00    +0.000 A 
ATOM     33  C   UNL     1       4.697   3.971  16.384  0.00  0.00    +0.000 A 
ATOM     34  C   UNL     1       5.437   4.843  15.594  0.00  0.00    +0.000 A 
ATOM     35  C   UNL     1       5.326   6.213  15.800  0.00  0.00    +0.000 A 
ATOM     36  C   UNL     1       4.475   6.709  16.798  0.00  0.00    +0.000 A 
ENDBRANCH  29  31
ENDBRANCH  23  25
ENDBRANCH   1  21
BRANCH   1  38
ATOM     37  C   UNL     1       2.221  13.075  19.650  0.00  0.00    +0.000 C 
ATOM     38  N   UNL     1       1.471  12.745  20.900  0.00  0.00    +0.000 NA
ATOM     39  C   UNL     1       1.070  14.000  21.523  0.00  0.00    +0.000 C 
ENDBRANCH   1  38
TORSDOF 5
ENDMDL
MODEL 5
REMARK VINA RESULT:      -8.7      2.937     10.159
REMARK  Name = 
REMARK  7 active torsions:
REMARK  status: ('A' for Active; 'I' for Inactive)
REMARK    1  A    between atoms: C_1  and  N_2
REMARK    2  A    between atoms: N_2  and  C_3
REMARK    3  A    between atoms: N_2  and  C_4
REMARK    4  A    between atoms: C_4  and  C_5
REMARK    5  A    between atoms: N_7  and  C_8
REMARK    6  A    between atoms: C_12  and  C_13
REMARK    7  A    between atoms: N_22  and  C_23
REMARK                            x       y       z     vdW  Elec       q    Type
REMARK                         _______ _______ _______ _____ _____    ______ ____
ROOT
ATOM      1  C   UNL     1       0.890   9.647  19.283  0.00  0.00    +0.000 C 
ATOM      2  C   UNL     1       1.075   8.407  20.194  0.00  0.00    +0.000 C 
ATOM      3  C   UNL     1       2.377   7.643  19.943  0.00  0.00    +0.000 C 
ATOM      4  N   UNL     1       2.294   7.150  18.592  0.00  0.00    +0.000 N 
ATOM      5  C   UNL     1       2.513   8.219  17.632  0.00  0.00    +0.000 C 
ATOM      6  C   UNL     1       1.395   9.272  17.818  0.00  0.00    +0.000 C 
ENDROOT
BRANCH   4   7
ATOM      7  C   UNL     1       2.415   5.805  18.303  0.00  0.00    +0.000 A 
ATOM      8  N   UNL     1       1.355   5.004  18.566  0.00  0.00    +0.000 NA
ATOM      9  C   UNL     1       1.420   3.672  18.291  0.00  0.00    +0.000 A 
ATOM     10  N   UNL     1       2.446   2.992  17.774  0.00  0.00    +0.000 NA
ATOM     11  C   UNL     1       3.503   3.784  17.557  0.00  0.00    +0.000 A 
ATOM     12  N   UNL     1       4.694   3.319  17.063  0.00  0.00    +0.000 N 
ATOM     13  C   UNL     1       5.578   4.354  16.970  0.00  0.00    +0.000 A 
ATOM     14  C   UNL     1       4.946   5.495  17.425  0.00  0.00    +0.000 A 
ATOM     15  C   UNL     1       3.585   5.157  17.780  0.00  0.00    +0.000 A 
ATOM     16  C   UNL     1       5.692   6.780  17.497  0.00  0.00    +0.000 C 
ATOM     17  C   UNL     1       7.159   6.732  17.087  0.00  0.00    +0.000 C 
ATOM     18  C   UNL     1       7.429   5.676  16.018  0.00  0.00    +0.000 C 
ATOM     19  C   UNL     1       6.995   4.281  16.509  0.00  0.00    +0.000 C 
ATOM     20  H   UNL     1       4.861   2.350  16.838  0.00  0.00    +0.000 HD
ENDBRANCH   4   7
BRANCH   1  21
ATOM     21  C   UNL     1      -0.650   9.998  19.003  0.00  0.00    +0.000 C 
ATOM     22  O   UNL     1      -1.461  10.228  19.895  0.00  0.00    +0.000 OA
ATOM     23  N   UNL     1      -0.953  10.005  17.631  0.00  0.00    +0.000 N 
ATOM     24  H   UNL     1      -0.250   9.624  17.009  0.00  0.00    +0.000 HD
BRANCH  23  25
ATOM     25  C   UNL     1      -2.174  10.408  17.061  0.00  0.00    +0.000 A 
ATOM     26  C   UNL     1      -2.376  10.209  15.698  0.00  0.00    +0.000 A 
ATOM     27  C   UNL     1      -3.616  10.508  15.135  0.00  0.00    +0.000 A 
ATOM     28  C   UNL     1      -4.626  11.081  15.917  0.00  0.00    +0.000 A 
ATOM     29  C   UNL     1      -4.417  11.404  17.270  0.00  0.00    +0.000 A 
ATOM     30  C   UNL     1      -3.169  11.036  17.821  0.00  0.00    +0.000 A 
BRANCH  29  31
ATOM     31  C   UNL     1      -5.466  12.082  18.085  0.00  0.00    +0.000 A 
ATOM     32  C   UNL     1      -6.667  12.536  17.508  0.00  0.00    +0.000 A 
ATOM     33  C   UNL     1      -7.651  13.188  18.259  0.00  0.00    +0.000 A 
ATOM     34  C   UNL     1      -7.454  13.420  19.616  0.00  0.00    +0.000 A 
ATOM     35  C   UNL     1      -6.284  12.980  20.222  0.00  0.00    +0.000 A 
ATOM     36  C   UNL     1      -5.309  12.310  19.469  0.00  0.00    +0.000 A 
ENDBRANCH  29  31
ENDBRANCH  23  25
ENDBRANCH   1  21
BRANCH   1  38
ATOM     37  C   UNL     1       1.281  12.089  19.094  0.00  0.00    +0.000 C 
ATOM     38  N   UNL     1       1.406  10.889  19.976  0.00  0.00    +0.000 NA
ATOM     39  C   UNL     1       0.775  11.206  21.251  0.00  0.00    +0.000 C 
ENDBRANCH   1  38
TORSDOF 5
ENDMDL
MODEL 6
REMARK VINA RESULT:      -8.7      2.022      3.846
REMARK  Name = 
REMARK  7 active torsions:
REMARK  status: ('A' for Active; 'I' for Inactive)
REMARK    1  A    between atoms: C_1  and  N_2
REMARK    2  A    between atoms: N_2  and  C_3
REMARK    3  A    between atoms: N_2  and  C_4
REMARK    4  A    between atoms: C_4  and  C_5
REMARK    5  A    between atoms: N_7  and  C_8
REMARK    6  A    between atoms: C_12  and  C_13
REMARK    7  A    between atoms: N_22  and  C_23
REMARK                            x       y       z     vdW  Elec       q    Type
REMARK                         _______ _______ _______ _____ _____    ______ ____
ROOT
ATOM      1  C   UNL     1       0.518  11.405  19.519  0.00  0.00    +0.000 C 
ATOM      2  C   UNL     1      -0.420  12.198  18.575  0.00  0.00    +0.000 C 
ATOM      3  C   UNL     1      -1.258  13.264  19.286  0.00  0.00    +0.000 C 
ATOM      4  N   UNL     1      -2.107  12.553  20.206  0.00  0.00    +0.000 N 
ATOM      5  C   UNL     1      -1.357  12.097  21.365  0.00  0.00    +0.000 C 
ATOM      6  C   UNL     1      -0.265  11.115  20.877  0.00  0.00    +0.000 C 
ENDROOT
BRANCH   4   7
ATOM      7  C   UNL     1      -3.482  12.679  20.168  0.00  0.00    +0.000 A 
ATOM      8  N   UNL     1      -4.155  11.978  19.224  0.00  0.00    +0.000 NA
ATOM      9  C   UNL     1      -5.512  12.060  19.149  0.00  0.00    +0.000 A 
ATOM     10  N   UNL     1      -6.332  12.784  19.915  0.00  0.00    +0.000 NA
ATOM     11  C   UNL     1      -5.654  13.505  20.817  0.00  0.00    +0.000 A 
ATOM     12  N   UNL     1      -6.266  14.358  21.700  0.00  0.00    +0.000 N 
ATOM     13  C   UNL     1      -5.317  14.959  22.474  0.00  0.00    +0.000 A 
ATOM     14  C   UNL     1      -4.080  14.494  22.071  0.00  0.00    +0.000 A 
ATOM     15  C   UNL     1      -4.276  13.520  21.018  0.00  0.00    +0.000 A 
ATOM     16  C   UNL     1      -2.842  15.024  22.703  0.00  0.00    +0.000 C 
ATOM     17  C   UNL     1      -3.035  16.108  23.756  0.00  0.00    +0.000 C 
ATOM     18  C   UNL     1      -4.352  15.954  24.515  0.00  0.00    +0.000 C 
ATOM     19  C   UNL     1      -5.546  15.978  23.540  0.00  0.00    +0.000 C 
ATOM     20  H   UNL     1      -7.262  14.510  21.725  0.00  0.00    +0.000 HD
ENDBRANCH   4   7
BRANCH   1  21
ATOM     21  C   UNL     1       0.816   9.916  19.006  0.00  0.00    +0.000 C 
ATOM     22  O   UNL     1       0.641   9.556  17.845  0.00  0.00    +0.000 OA
ATOM     23  N   UNL     1       1.292   9.084  20.032  0.00  0.00    +0.000 N 
ATOM     24  H   UNL     1       1.221   9.443  20.977  0.00  0.00    +0.000 HD
BRANCH  23  25
ATOM     25  C   UNL     1       1.770   7.771  19.872  0.00  0.00    +0.000 A 
ATOM     26  C   UNL     1       1.439   6.815  20.828  0.00  0.00    +0.000 A 
ATOM     27  C   UNL     1       1.817   5.487  20.634  0.00  0.00    +0.000 A 
ATOM     28  C   UNL     1       2.595   5.130  19.526  0.00  0.00    +0.000 A 
ATOM     29  C   UNL     1       3.046   6.090  18.602  0.00  0.00    +0.000 A 
ATOM     30  C   UNL     1       2.597   7.415  18.799  0.00  0.00    +0.000 A 
BRANCH  29  31
ATOM     31  C   UNL     1       3.936   5.724  17.463  0.00  0.00    +0.000 A 
ATOM     32  C   UNL     1       4.156   4.380  17.103  0.00  0.00    +0.000 A 
ATOM     33  C   UNL     1       5.002   4.024  16.048  0.00  0.00    +0.000 A 
ATOM     34  C   UNL     1       5.668   5.006  15.324  0.00  0.00    +0.000 A 
ATOM     35  C   UNL     1       5.470   6.344  15.645  0.00  0.00    +0.000 A 
ATOM     36  C   UNL     1       4.607   6.697  16.692  0.00  0.00    +0.000 A 
ENDBRANCH  29  31
ENDBRANCH  23  25
ENDBRANCH   1  21
BRANCH   1  38
ATOM     37  C   UNL     1       2.231  12.649  18.226  0.00  0.00    +0.000 C 
ATOM     38  N   UNL     1       1.891  12.041  19.549  0.00  0.00    +0.000 NA
ATOM     39  C   UNL     1       2.091  13.060  20.571  0.00  0.00    +0.000 C 
ENDBRANCH   1  38
TORSDOF 5
ENDMDL
MODEL 7
REMARK VINA RESULT:      -8.7      1.864      3.796
REMARK  Name = 
REMARK  7 active torsions:
REMARK  status: ('A' for Active; 'I' for Inactive)
REMARK    1  A    between atoms: C_1  and  N_2
REMARK    2  A    between atoms: N_2  and  C_3
REMARK    3  A    between atoms: N_2  and  C_4
REMARK    4  A    between atoms: C_4  and  C_5
REMARK    5  A    between atoms: N_7  and  C_8
REMARK    6  A    between atoms: C_12  and  C_13
REMARK    7  A    between atoms: N_22  and  C_23
REMARK                            x       y       z     vdW  Elec       q    Type
REMARK                         _______ _______ _______ _____ _____    ______ ____
ROOT
ATOM      1  C   UNL     1       0.718  11.459  19.201  0.00  0.00    +0.000 C 
ATOM      2  C   UNL     1      -0.132  12.137  18.097  0.00  0.00    +0.000 C 
ATOM      3  C   UNL     1      -1.270  13.005  18.638  0.00  0.00    +0.000 C 
ATOM      4  N   UNL     1      -2.152  12.111  19.342  0.00  0.00    +0.000 N 
ATOM      5  C   UNL     1      -1.586  11.720  20.623  0.00  0.00    +0.000 C 
ATOM      6  C   UNL     1      -0.263  10.964  20.356  0.00  0.00    +0.000 C 
ENDROOT
BRANCH   4   7
ATOM      7  C   UNL     1      -3.490  12.007  19.017  0.00  0.00    +0.000 A 
ATOM      8  N   UNL     1      -3.807  11.655  17.748  0.00  0.00    +0.000 NA
ATOM      9  C   UNL     1      -5.112  11.530  17.379  0.00  0.00    +0.000 A 
ATOM     10  N   UNL     1      -6.198  11.725  18.131  0.00  0.00    +0.000 NA
ATOM     11  C   UNL     1      -5.875  12.114  19.370  0.00  0.00    +0.000 A 
ATOM     12  N   UNL     1      -6.812  12.412  20.326  0.00  0.00    +0.000 N 
ATOM     13  C   UNL     1      -6.180  12.792  21.474  0.00  0.00    +0.000 A 
ATOM     14  C   UNL     1      -4.819  12.749  21.244  0.00  0.00    +0.000 A 
ATOM     15  C   UNL     1      -4.595  12.278  19.894  0.00  0.00    +0.000 A 
ATOM     16  C   UNL     1      -3.870  13.173  22.308  0.00  0.00    +0.000 C 
ATOM     17  C   UNL     1      -4.494  13.678  23.604  0.00  0.00    +0.000 C 
ATOM     18  C   UNL     1      -5.832  13.006  23.906  0.00  0.00    +0.000 C 
ATOM     19  C   UNL     1      -6.824  13.227  22.747  0.00  0.00    +0.000 C 
ATOM     20  H   UNL     1      -7.806  12.369  20.160  0.00  0.00    +0.000 HD
ENDBRANCH   4   7
BRANCH   1  21
ATOM     21  C   UNL     1       1.371  10.072  18.730  0.00  0.00    +0.000 C 
ATOM     22  O   UNL     1       1.927   9.923  17.645  0.00  0.00    +0.000 OA
ATOM     23  N   UNL     1       1.228   9.061  19.695  0.00  0.00    +0.000 N 
ATOM     24  H   UNL     1       0.597   9.254  20.464  0.00  0.00    +0.000 HD
BRANCH  23  25
ATOM     25  C   UNL     1       1.810   7.782  19.638  0.00  0.00    +0.000 A 
ATOM     26  C   UNL     1       1.599   6.902  20.697  0.00  0.00    +0.000 A 
ATOM     27  C   UNL     1       2.081   5.596  20.613  0.00  0.00    +0.000 A 
ATOM     28  C   UNL     1       2.842   5.195  19.508  0.00  0.00    +0.000 A 
ATOM     29  C   UNL     1       3.174   6.092  18.476  0.00  0.00    +0.000 A 
ATOM     30  C   UNL     1       2.621   7.389  18.567  0.00  0.00    +0.000 A 
BRANCH  29  31
ATOM     31  C   UNL     1       4.046   5.688  17.336  0.00  0.00    +0.000 A 
ATOM     32  C   UNL     1       4.701   6.643  16.535  0.00  0.00    +0.000 A 
ATOM     33  C   UNL     1       5.507   6.275  15.452  0.00  0.00    +0.000 A 
ATOM     34  C   UNL     1       5.672   4.934  15.128  0.00  0.00    +0.000 A 
ATOM     35  C   UNL     1       5.046   3.962  15.900  0.00  0.00    +0.000 A 
ATOM     36  C   UNL     1       4.254   4.335  16.995  0.00  0.00    +0.000 A 
ENDBRANCH  29  31
ENDBRANCH  23  25
ENDBRANCH   1  21
BRANCH   1  38
ATOM     37  C   UNL     1       2.294  13.191  18.383  0.00  0.00    +0.000 C 
ATOM     38  N   UNL     1       1.923  12.312  19.534  0.00  0.00    +0.000 NA
ATOM     39  C   UNL     1       1.790  13.156  20.714  0.00  0.00    +0.000 C 
ENDBRANCH   1  38
TORSDOF 5
ENDMDL
MODEL 8
REMARK VINA RESULT:      -8.7      1.097      1.275
REMARK  Name = 
REMARK  7 active torsions:
REMARK  status: ('A' for Active; 'I' for Inactive)
REMARK    1  A    between atoms: C_1  and  N_2
REMARK    2  A    between atoms: N_2  and  C_3
REMARK    3  A    between atoms: N_2  and  C_4
REMARK    4  A    between atoms: C_4  and  C_5
REMARK    5  A    between atoms: N_7  and  C_8
REMARK    6  A    between atoms: C_12  and  C_13
REMARK    7  A    between atoms: N_22  and  C_23
REMARK                            x       y       z     vdW  Elec       q    Type
REMARK                         _______ _______ _______ _____ _____    ______ ____
ROOT
ATOM      1  C   UNL     1      -0.420  12.628  21.298  0.00  0.00    +0.000 C 
ATOM      2  C   UNL     1      -1.537  13.633  20.920  0.00  0.00    +0.000 C 
ATOM      3  C   UNL     1      -2.450  14.012  22.089  0.00  0.00    +0.000 C 
ATOM      4  N   UNL     1      -3.110  12.797  22.488  0.00  0.00    +0.000 N 
ATOM      5  C   UNL     1      -2.207  11.929  23.226  0.00  0.00    +0.000 C 
ATOM      6  C   UNL     1      -1.035  11.543  22.291  0.00  0.00    +0.000 C 
ENDROOT
BRANCH   4   7
ATOM      7  C   UNL     1      -4.487  12.697  22.521  0.00  0.00    +0.000 A 
ATOM      8  N   UNL     1      -5.100  12.797  23.726  0.00  0.00    +0.000 NA
ATOM      9  C   UNL     1      -6.456  12.714  23.811  0.00  0.00    +0.000 A 
ATOM     10  N   UNL     1      -7.330  12.530  22.818  0.00  0.00    +0.000 NA
ATOM     11  C   UNL     1      -6.712  12.390  21.639  0.00  0.00    +0.000 A 
ATOM     12  N   UNL     1      -7.386  12.155  20.468  0.00  0.00    +0.000 N 
ATOM     13  C   UNL     1      -6.489  12.043  19.447  0.00  0.00    +0.000 A 
ATOM     14  C   UNL     1      -5.222  12.196  19.975  0.00  0.00    +0.000 A 
ATOM     15  C   UNL     1      -5.343  12.458  21.393  0.00  0.00    +0.000 A 
ATOM     16  C   UNL     1      -4.028  12.062  19.098  0.00  0.00    +0.000 C 
ATOM     17  C   UNL     1      -4.300  11.715  17.639  0.00  0.00    +0.000 C 
ATOM     18  C   UNL     1      -5.632  12.277  17.146  0.00  0.00    +0.000 C 
ATOM     19  C   UNL     1      -6.795  11.759  18.015  0.00  0.00    +0.000 C 
ATOM     20  H   UNL     1      -8.389  12.061  20.415  0.00  0.00    +0.000 HD
ENDBRANCH   4   7
BRANCH   1  21
ATOM     21  C   UNL     1       0.036  11.703  20.070  0.00  0.00    +0.000 C 
ATOM     22  O   UNL     1      -0.118  12.021  18.894  0.00  0.00    +0.000 OA
ATOM     23  N   UNL     1       0.621  10.500  20.498  0.00  0.00    +0.000 N 
ATOM     24  H   UNL     1       0.527  10.274  21.481  0.00  0.00    +0.000 HD
BRANCH  23  25
ATOM     25  C   UNL     1       1.243   9.548  19.670  0.00  0.00    +0.000 A 
ATOM     26  C   UNL     1       1.600   9.916  18.375  0.00  0.00    +0.000 A 
ATOM     27  C   UNL     1       2.307   9.019  17.575  0.00  0.00    +0.000 A 
ATOM     28  C   UNL     1       2.586   7.728  18.039  0.00  0.00    +0.000 A 
ATOM     29  C   UNL     1       2.138   7.284  19.297  0.00  0.00    +0.000 A 
ATOM     30  C   UNL     1       1.475   8.236  20.102  0.00  0.00    +0.000 A 
BRANCH  29  31
ATOM     31  C   UNL     1       2.371   5.887  19.763  0.00  0.00    +0.000 A 
ATOM     32  C   UNL     1       3.490   5.145  19.337  0.00  0.00    +0.000 A 
ATOM     33  C   UNL     1       3.708   3.828  19.753  0.00  0.00    +0.000 A 
ATOM     34  C   UNL     1       2.801   3.204  20.602  0.00  0.00    +0.000 A 
ATOM     35  C   UNL     1       1.689   3.906  21.049  0.00  0.00    +0.000 A 
ATOM     36  C   UNL     1       1.484   5.233  20.643  0.00  0.00    +0.000 A 
ENDBRANCH  29  31
ENDBRANCH  23  25
ENDBRANCH   1  21
BRANCH   1  38
ATOM     37  C   UNL     1       1.950  13.052  20.702  0.00  0.00    +0.000 C 
ATOM     38  N   UNL     1       0.849  13.367  21.662  0.00  0.00    +0.000 NA
ATOM     39  C   UNL     1       0.731  14.817  21.745  0.00  0.00    +0.000 C 
ENDBRANCH   1  38
TORSDOF 5
ENDMDL
MODEL 9
REMARK VINA RESULT:      -8.6      2.848      9.646
REMARK  Name = 
REMARK  7 active torsions:
REMARK  status: ('A' for Active; 'I' for Inactive)
REMARK    1  A    between atoms: C_1  and  N_2
REMARK    2  A    between atoms: N_2  and  C_3
REMARK    3  A    between atoms: N_2  and  C_4
REMARK    4  A    between atoms: C_4  and  C_5
REMARK    5  A    between atoms: N_7  and  C_8
REMARK    6  A    between atoms: C_12  and  C_13
REMARK    7  A    between atoms: N_22  and  C_23
REMARK                            x       y       z     vdW  Elec       q    Type
REMARK                         _______ _______ _______ _____ _____    ______ ____
ROOT
ATOM      1  C   UNL     1       0.679  10.024  19.737  0.00  0.00    +0.000 C 
ATOM      2  C   UNL     1       0.703   8.976  20.878  0.00  0.00    +0.000 C 
ATOM      3  C   UNL     1       1.969   8.115  20.901  0.00  0.00    +0.000 C 
ATOM      4  N   UNL     1       1.969   7.376  19.666  0.00  0.00    +0.000 N 
ATOM      5  C   UNL     1       2.339   8.227  18.547  0.00  0.00    +0.000 C 
ATOM      6  C   UNL     1       1.281   9.350  18.423  0.00  0.00    +0.000 C 
ENDROOT
BRANCH   4   7
ATOM      7  C   UNL     1       2.025   5.995  19.647  0.00  0.00    +0.000 A 
ATOM      8  N   UNL     1       1.270   5.320  20.546  0.00  0.00    +0.000 NA
ATOM      9  C   UNL     1       1.283   3.959  20.564  0.00  0.00    +0.000 A 
ATOM     10  N   UNL     1       1.982   3.136  19.778  0.00  0.00    +0.000 NA
ATOM     11  C   UNL     1       2.756   3.814  18.922  0.00  0.00    +0.000 A 
ATOM     12  N   UNL     1       3.598   3.198  18.031  0.00  0.00    +0.000 N 
ATOM     13  C   UNL     1       4.264   4.146  17.311  0.00  0.00    +0.000 A 
ATOM     14  C   UNL     1       3.851   5.387  17.758  0.00  0.00    +0.000 A 
ATOM     15  C   UNL     1       2.845   5.196  18.781  0.00  0.00    +0.000 A 
ATOM     16  C   UNL     1       4.457   6.622  17.191  0.00  0.00    +0.000 C 
ATOM     17  C   UNL     1       5.554   6.419  16.153  0.00  0.00    +0.000 C 
ATOM     18  C   UNL     1       5.352   5.144  15.336  0.00  0.00    +0.000 C 
ATOM     19  C   UNL     1       5.294   3.911  16.258  0.00  0.00    +0.000 C 
ATOM     20  H   UNL     1       3.700   2.197  17.966  0.00  0.00    +0.000 HD
ENDBRANCH   4   7
BRANCH   1  21
ATOM     21  C   UNL     1      -0.804  10.388  19.249  0.00  0.00    +0.000 C 
ATOM     22  O   UNL     1      -1.639  10.923  19.973  0.00  0.00    +0.000 OA
ATOM     23  N   UNL     1      -1.030  10.023  17.912  0.00  0.00    +0.000 N 
ATOM     24  H   UNL     1      -0.332   9.429  17.480  0.00  0.00    +0.000 HD
BRANCH  23  25
ATOM     25  C   UNL     1      -2.176  10.331  17.157  0.00  0.00    +0.000 A 
ATOM     26  C   UNL     1      -2.186  10.027  15.798  0.00  0.00    +0.000 A 
ATOM     27  C   UNL     1      -3.348  10.231  15.055  0.00  0.00    +0.000 A 
ATOM     28  C   UNL     1      -4.473  10.814  15.652  0.00  0.00    +0.000 A 
ATOM     29  C   UNL     1      -4.459  11.241  16.992  0.00  0.00    +0.000 A 
ATOM     30  C   UNL     1      -3.285  10.967  17.728  0.00  0.00    +0.000 A 
BRANCH  29  31
ATOM     31  C   UNL     1      -5.630  11.929  17.608  0.00  0.00    +0.000 A 
ATOM     32  C   UNL     1      -6.276  13.002  16.964  0.00  0.00    +0.000 A 
ATOM     33  C   UNL     1      -7.364  13.665  17.541  0.00  0.00    +0.000 A 
ATOM     34  C   UNL     1      -7.833  13.283  18.792  0.00  0.00    +0.000 A 
ATOM     35  C   UNL     1      -7.225  12.223  19.455  0.00  0.00    +0.000 A 
ATOM     36  C   UNL     1      -6.147  11.549  18.865  0.00  0.00    +0.000 A 
ENDBRANCH  29  31
ENDBRANCH  23  25
ENDBRANCH   1  21
BRANCH   1  38
ATOM     37  C   UNL     1       1.356  12.326  19.107  0.00  0.00    +0.000 C 
ATOM     38  N   UNL     1       1.215  11.350  20.231  0.00  0.00    +0.000 NA
ATOM     39  C   UNL     1       0.437  11.991  21.283  0.00  0.00    +0.000 C 
ENDBRANCH   1  38
TORSDOF 5
ENDMDL
