MODEL 1
REMARK VINA RESULT:      -8.0      0.000      0.000
REMARK  Name = 
REMARK  8 active torsions:
REMARK  status: ('A' for Active; 'I' for Inactive)
REMARK    1  A    between atoms: C_1  and  C_2
REMARK    2  A    between atoms: C_5  and  C_6
REMARK    3  A    between atoms: C_9  and  C_10
REMARK    4  A    between atoms: N_12  and  C_13
REMARK    5  A    between atoms: C_13  and  C_14
REMARK    6  A    between atoms: C_14  and  N_15
REMARK    7  A    between atoms: N_15  and  C_16
REMARK    8  A    between atoms: N_15  and  C_17
REMARK                            x       y       z     vdW  Elec       q    Type
REMARK                         _______ _______ _______ _____ _____    ______ ____
ROOT
ATOM      1  C   UNL     1       3.172   6.994  17.826  0.00  0.00    +0.000 A 
ATOM      2  N   UNL     1       2.895   5.721  17.694  0.00  0.00    +0.000 NA
ATOM      3  C   UNL     1       4.000   5.162  17.116  0.00  0.00    +0.000 A 
ATOM      4  C   UNL     1       4.440   3.840  17.165  0.00  0.00    +0.000 A 
ATOM      5  C   UNL     1       5.575   3.505  16.415  0.00  0.00    +0.000 A 
ATOM      6  C   UNL     1       6.248   4.481  15.661  0.00  0.00    +0.000 A 
ATOM      7  C   UNL     1       5.917   5.842  15.766  0.00  0.00    +0.000 A 
ATOM      8  C   UNL     1       4.823   6.135  16.579  0.00  0.00    +0.000 A 
ATOM      9  N   UNL     1       4.392   7.263  17.238  0.00  0.00    +0.000 N 
ATOM     10  H   UNL     1       4.984   8.041  17.479  0.00  0.00    +0.000 HD
ENDROOT
BRANCH   1  15
ATOM     11  C   UNL     1      -0.406  10.447  20.714  0.00  0.00    +0.000 C 
ATOM     12  C   UNL     1       0.579   9.585  20.001  0.00  0.00    +0.000 A 
ATOM     13  C   UNL     1       1.187   8.491  20.637  0.00  0.00    +0.000 A 
ATOM     14  C   UNL     1       2.058   7.672  19.925  0.00  0.00    +0.000 A 
ATOM     15  C   UNL     1       2.334   7.921  18.567  0.00  0.00    +0.000 A 
ATOM     16  C   UNL     1       1.763   9.041  17.955  0.00  0.00    +0.000 A 
ATOM     17  C   UNL     1       0.902   9.861  18.668  0.00  0.00    +0.000 A 
ENDBRANCH   1  15
BRANCH   4  18
ATOM     18  C   UNL     1       3.868   2.981  18.234  0.00  0.00    +0.000 C 
ATOM     19  O   UNL     1       4.479   2.846  19.297  0.00  0.00    +0.000 OA
ATOM     20  N   UNL     1       2.598   2.493  18.015  0.00  0.00    +0.000 N 
ATOM     21  H   UNL     1       2.149   2.750  17.132  0.00  0.00    +0.000 HD
BRANCH  20  22
ATOM     22  C   UNL     1       1.712   2.024  19.057  0.00  0.00    +0.000 C 
BRANCH  22  23
ATOM     23  C   UNL     1       0.864   3.148  19.693  0.00  0.00    +0.000 C 
BRANCH  23  24
ATOM     24  N   UNL     1       1.250   3.470  21.085  0.00  0.00    +0.000 NA
ATOM     25  C   UNL     1       1.929   2.336  21.721  0.00  0.00    +0.000 C 
ATOM     26  C   UNL     1       2.141   4.633  21.097  0.00  0.00    +0.000 C 
ENDBRANCH  23  24
ENDBRANCH  22  23
ENDBRANCH  20  22
ENDBRANCH   4  18
TORSDOF 5
ENDMDL
MODEL 2
REMARK VINA RESULT:      -7.7      1.846      4.621
REMARK  Name = 
REMARK  8 active torsions:
REMARK  status: ('A' for Active; 'I' for Inactive)
REMARK    1  A    between atoms: C_1  and  C_2
REMARK    2  A    between atoms: C_5  and  C_6
REMARK    3  A    between atoms: C_9  and  C_10
REMARK    4  A    between atoms: N_12  and  C_13
REMARK    5  A    between atoms: C_13  and  C_14
REMARK    6  A    between atoms: C_14  and  N_15
REMARK    7  A    between atoms: N_15  and  C_16
REMARK    8  A    between atoms: N_15  and  C_17
REMARK                            x       y       z     vdW  Elec       q    Type
REMARK                         _______ _______ _______ _____ _____    ______ ____
ROOT
ATOM      1  C   UNL     1       2.232   6.556  20.035  0.00  0.00    +0.000 A 
ATOM      2  N   UNL     1       3.399   6.033  19.755  0.00  0.00    +0.000 NA
ATOM      3  C   UNL     1       3.299   4.711  20.086  0.00  0.00    +0.000 A 
ATOM      4  C   UNL     1       4.027   3.628  19.598  0.00  0.00    +0.000 A 
ATOM      5  C   UNL     1       3.781   2.370  20.164  0.00  0.00    +0.000 A 
ATOM      6  C   UNL     1       2.816   2.217  21.174  0.00  0.00    +0.000 A 
ATOM      7  C   UNL     1       1.955   3.269  21.526  0.00  0.00    +0.000 A 
ATOM      8  C   UNL     1       2.194   4.484  20.886  0.00  0.00    +0.000 A 
ATOM      9  N   UNL     1       1.435   5.605  20.641  0.00  0.00    +0.000 N 
ATOM     10  H   UNL     1       0.428   5.623  20.649  0.00  0.00    +0.000 HD
ENDROOT
BRANCH   1  15
ATOM     11  C   UNL     1       0.407  11.790  18.504  0.00  0.00    +0.000 C 
ATOM     12  C   UNL     1       0.938  10.466  18.938  0.00  0.00    +0.000 A 
ATOM     13  C   UNL     1       0.743   9.994  20.246  0.00  0.00    +0.000 A 
ATOM     14  C   UNL     1       1.200   8.729  20.600  0.00  0.00    +0.000 A 
ATOM     15  C   UNL     1       1.852   7.907  19.661  0.00  0.00    +0.000 A 
ATOM     16  C   UNL     1       2.086   8.405  18.376  0.00  0.00    +0.000 A 
ATOM     17  C   UNL     1       1.637   9.669  18.026  0.00  0.00    +0.000 A 
ENDBRANCH   1  15
BRANCH   4  18
ATOM     18  C   UNL     1       4.767   3.835  18.326  0.00  0.00    +0.000 C 
ATOM     19  O   UNL     1       4.137   4.014  17.280  0.00  0.00    +0.000 OA
ATOM     20  N   UNL     1       6.136   3.954  18.423  0.00  0.00    +0.000 N 
ATOM     21  H   UNL     1       6.541   3.882  19.360  0.00  0.00    +0.000 HD
BRANCH  20  22
ATOM     22  C   UNL     1       6.976   4.570  17.421  0.00  0.00    +0.000 C 
BRANCH  22  23
ATOM     23  C   UNL     1       7.587   5.915  17.876  0.00  0.00    +0.000 C 
BRANCH  23  24
ATOM     24  N   UNL     1       7.170   7.068  17.047  0.00  0.00    +0.000 NA
ATOM     25  C   UNL     1       5.709   7.182  16.996  0.00  0.00    +0.000 C 
ATOM     26  C   UNL     1       7.730   8.305  17.599  0.00  0.00    +0.000 C 
ENDBRANCH  23  24
ENDBRANCH  22  23
ENDBRANCH  20  22
ENDBRANCH   4  18
TORSDOF 5
ENDMDL
MODEL 3
REMARK VINA RESULT:      -7.7      1.565      4.498
REMARK  Name = 
REMARK  8 active torsions:
REMARK  status: ('A' for Active; 'I' for Inactive)
REMARK    1  A    between atoms: C_1  and  C_2
REMARK    2  A    between atoms: C_5  and  C_6
REMARK    3  A    between atoms: C_9  and  C_10
REMARK    4  A    between atoms: N_12  and  C_13
REMARK    5  A    between atoms: C_13  and  C_14
REMARK    6  A    between atoms: C_14  and  N_15
REMARK    7  A    between atoms: N_15  and  C_16
REMARK    8  A    between atoms: N_15  and  C_17
REMARK                            x       y       z     vdW  Elec       q    Type
REMARK                         _______ _______ _______ _____ _____    ______ ____
ROOT
ATOM      1  C   UNL     1       2.242   6.641  19.892  0.00  0.00    +0.000 A 
ATOM      2  N   UNL     1       3.191   5.972  19.290  0.00  0.00    +0.000 NA
ATOM      3  C   UNL     1       3.118   4.701  19.786  0.00  0.00    +0.000 A 
ATOM      4  C   UNL     1       3.545   3.508  19.205  0.00  0.00    +0.000 A 
ATOM      5  C   UNL     1       3.423   2.336  19.963  0.00  0.00    +0.000 A 
ATOM      6  C   UNL     1       2.869   2.374  21.254  0.00  0.00    +0.000 A 
ATOM      7  C   UNL     1       2.269   3.539  21.757  0.00  0.00    +0.000 A 
ATOM      8  C   UNL     1       2.354   4.663  20.938  0.00  0.00    +0.000 A 
ATOM      9  N   UNL     1       1.643   5.837  20.842  0.00  0.00    +0.000 N 
ATOM     10  H   UNL     1       0.708   5.965  21.193  0.00  0.00    +0.000 HD
ENDROOT
BRANCH   1  15
ATOM     11  C   UNL     1       1.025  12.085  18.493  0.00  0.00    +0.000 C 
ATOM     12  C   UNL     1       1.284  10.651  18.812  0.00  0.00    +0.000 A 
ATOM     13  C   UNL     1       1.941   9.809  17.902  0.00  0.00    +0.000 A 
ATOM     14  C   UNL     1       2.218   8.492  18.254  0.00  0.00    +0.000 A 
ATOM     15  C   UNL     1       1.854   7.991  19.519  0.00  0.00    +0.000 A 
ATOM     16  C   UNL     1       1.156   8.823  20.399  0.00  0.00    +0.000 A 
ATOM     17  C   UNL     1       0.873  10.132  20.044  0.00  0.00    +0.000 A 
ENDBRANCH   1  15
BRANCH   4  18
ATOM     18  C   UNL     1       3.800   3.528  17.741  0.00  0.00    +0.000 C 
ATOM     19  O   UNL     1       2.854   3.671  16.962  0.00  0.00    +0.000 OA
ATOM     20  N   UNL     1       5.120   3.524  17.347  0.00  0.00    +0.000 N 
ATOM     21  H   UNL     1       5.824   3.499  18.089  0.00  0.00    +0.000 HD
BRANCH  20  22
ATOM     22  C   UNL     1       5.587   3.964  16.052  0.00  0.00    +0.000 C 
BRANCH  22  23
ATOM     23  C   UNL     1       6.875   4.816  16.122  0.00  0.00    +0.000 C 
BRANCH  23  24
ATOM     24  N   UNL     1       6.622   6.269  16.234  0.00  0.00    +0.000 NA
ATOM     25  C   UNL     1       5.207   6.579  16.002  0.00  0.00    +0.000 C 
ATOM     26  C   UNL     1       7.006   6.740  17.568  0.00  0.00    +0.000 C 
ENDBRANCH  23  24
ENDBRANCH  22  23
ENDBRANCH  20  22
ENDBRANCH   4  18
TORSDOF 5
ENDMDL
MODEL 4
REMARK VINA RESULT:      -7.6      1.848      4.542
REMARK  Name = 
REMARK  8 active torsions:
REMARK  status: ('A' for Active; 'I' for Inactive)
REMARK    1  A    between atoms: C_1  and  C_2
REMARK    2  A    between atoms: C_5  and  C_6
REMARK    3  A    between atoms: C_9  and  C_10
REMARK    4  A    between atoms: N_12  and  C_13
REMARK    5  A    between atoms: C_13  and  C_14
REMARK    6  A    between atoms: C_14  and  N_15
REMARK    7  A    between atoms: N_15  and  C_16
REMARK    8  A    between atoms: N_15  and  C_17
REMARK                            x       y       z     vdW  Elec       q    Type
REMARK                         _______ _______ _______ _____ _____    ______ ____
ROOT
ATOM      1  C   UNL     1       2.199   6.661  19.953  0.00  0.00    +0.000 A 
ATOM      2  N   UNL     1       3.252   6.055  19.468  0.00  0.00    +0.000 NA
ATOM      3  C   UNL     1       3.166   4.762  19.901  0.00  0.00    +0.000 A 
ATOM      4  C   UNL     1       3.723   3.612  19.343  0.00  0.00    +0.000 A 
ATOM      5  C   UNL     1       3.547   2.404  20.031  0.00  0.00    +0.000 A 
ATOM      6  C   UNL     1       2.816   2.366  21.230  0.00  0.00    +0.000 A 
ATOM      7  C   UNL     1       2.100   3.484  21.686  0.00  0.00    +0.000 A 
ATOM      8  C   UNL     1       2.250   4.645  20.929  0.00  0.00    +0.000 A 
ATOM      9  N   UNL     1       1.508   5.794  20.777  0.00  0.00    +0.000 N 
ATOM     10  H   UNL     1       0.528   5.871  20.996  0.00  0.00    +0.000 HD
ENDROOT
BRANCH   1  15
ATOM     11  C   UNL     1       0.974  12.099  18.543  0.00  0.00    +0.000 C 
ATOM     12  C   UNL     1       1.234  10.667  18.865  0.00  0.00    +0.000 A 
ATOM     13  C   UNL     1       1.868   9.816  17.947  0.00  0.00    +0.000 A 
ATOM     14  C   UNL     1       2.148   8.500  18.303  0.00  0.00    +0.000 A 
ATOM     15  C   UNL     1       1.808   8.009  19.578  0.00  0.00    +0.000 A 
ATOM     16  C   UNL     1       1.132   8.850  20.467  0.00  0.00    +0.000 A 
ATOM     17  C   UNL     1       0.847  10.157  20.109  0.00  0.00    +0.000 A 
ENDBRANCH   1  15
BRANCH   4  18
ATOM     18  C   UNL     1       4.180   3.704  17.932  0.00  0.00    +0.000 C 
ATOM     19  O   UNL     1       3.350   3.657  17.020  0.00  0.00    +0.000 OA
ATOM     20  N   UNL     1       5.515   3.983  17.735  0.00  0.00    +0.000 N 
ATOM     21  H   UNL     1       6.092   4.096  18.573  0.00  0.00    +0.000 HD
BRANCH  20  22
ATOM     22  C   UNL     1       6.065   4.528  16.515  0.00  0.00    +0.000 C 
BRANCH  22  23
ATOM     23  C   UNL     1       7.280   5.454  16.750  0.00  0.00    +0.000 C 
BRANCH  23  24
ATOM     24  N   UNL     1       7.110   6.380  17.891  0.00  0.00    +0.000 NA
ATOM     25  C   UNL     1       7.864   5.921  19.062  0.00  0.00    +0.000 C 
ATOM     26  C   UNL     1       7.572   7.720  17.516  0.00  0.00    +0.000 C 
ENDBRANCH  23  24
ENDBRANCH  22  23
ENDBRANCH  20  22
ENDBRANCH   4  18
TORSDOF 5
ENDMDL
MODEL 5
REMARK VINA RESULT:      -7.6      0.710      1.406
REMARK  Name = 
REMARK  8 active torsions:
REMARK  status: ('A' for Active; 'I' for Inactive)
REMARK    1  A    between atoms: C_1  and  C_2
REMARK    2  A    between atoms: C_5  and  C_6
REMARK    3  A    between atoms: C_9  and  C_10
REMARK    4  A    between atoms: N_12  and  C_13
REMARK    5  A    between atoms: C_13  and  C_14
REMARK    6  A    between atoms: C_14  and  N_15
REMARK    7  A    between atoms: N_15  and  C_16
REMARK    8  A    between atoms: N_15  and  C_17
REMARK                            x       y       z     vdW  Elec       q    Type
REMARK                         _______ _______ _______ _____ _____    ______ ____
ROOT
ATOM      1  C   UNL     1       3.205   7.020  17.880  0.00  0.00    +0.000 A 
ATOM      2  N   UNL     1       3.170   5.715  17.796  0.00  0.00    +0.000 NA
ATOM      3  C   UNL     1       4.270   5.362  17.066  0.00  0.00    +0.000 A 
ATOM      4  C   UNL     1       4.965   4.154  17.057  0.00  0.00    +0.000 A 
ATOM      5  C   UNL     1       6.027   4.021  16.152  0.00  0.00    +0.000 A 
ATOM      6  C   UNL     1       6.380   5.084  15.303  0.00  0.00    +0.000 A 
ATOM      7  C   UNL     1       5.804   6.356  15.448  0.00  0.00    +0.000 A 
ATOM      8  C   UNL     1       4.801   6.458  16.410  0.00  0.00    +0.000 A 
ATOM      9  N   UNL     1       4.253   7.502  17.119  0.00  0.00    +0.000 N 
ATOM     10  H   UNL     1       4.707   8.388  17.268  0.00  0.00    +0.000 HD
ENDROOT
BRANCH   1  15
ATOM     11  C   UNL     1      -0.066  10.292  21.295  0.00  0.00    +0.000 C 
ATOM     12  C   UNL     1       0.719   9.416  20.378  0.00  0.00    +0.000 A 
ATOM     13  C   UNL     1       0.902   9.751  19.027  0.00  0.00    +0.000 A 
ATOM     14  C   UNL     1       1.689   8.943  18.214  0.00  0.00    +0.000 A 
ATOM     15  C   UNL     1       2.314   7.791  18.729  0.00  0.00    +0.000 A 
ATOM     16  C   UNL     1       2.086   7.438  20.063  0.00  0.00    +0.000 A 
ATOM     17  C   UNL     1       1.295   8.240  20.870  0.00  0.00    +0.000 A 
ENDBRANCH   1  15
BRANCH   4  18
ATOM     18  C   UNL     1       4.731   3.236  18.202  0.00  0.00    +0.000 C 
ATOM     19  O   UNL     1       5.181   3.525  19.314  0.00  0.00    +0.000 OA
ATOM     20  N   UNL     1       3.890   2.169  17.972  0.00  0.00    +0.000 N 
ATOM     21  H   UNL     1       3.498   2.084  17.031  0.00  0.00    +0.000 HD
BRANCH  20  22
ATOM     22  C   UNL     1       3.202   1.433  19.009  0.00  0.00    +0.000 C 
BRANCH  22  23
ATOM     23  C   UNL     1       1.832   2.041  19.386  0.00  0.00    +0.000 C 
BRANCH  23  24
ATOM     24  N   UNL     1       1.919   3.128  20.387  0.00  0.00    +0.000 NA
ATOM     25  C   UNL     1       0.842   4.105  20.200  0.00  0.00    +0.000 C 
ATOM     26  C   UNL     1       1.833   2.568  21.738  0.00  0.00    +0.000 C 
ENDBRANCH  23  24
ENDBRANCH  22  23
ENDBRANCH  20  22
ENDBRANCH   4  18
TORSDOF 5
ENDMDL
MODEL 6
REMARK VINA RESULT:      -7.6      1.713      4.648
REMARK  Name = 
REMARK  8 active torsions:
REMARK  status: ('A' for Active; 'I' for Inactive)
REMARK    1  A    between atoms: C_1  and  C_2
REMARK    2  A    between atoms: C_5  and  C_6
REMARK    3  A    between atoms: C_9  and  C_10
REMARK    4  A    between atoms: N_12  and  C_13
REMARK    5  A    between atoms: C_13  and  C_14
REMARK    6  A    between atoms: C_14  and  N_15
REMARK    7  A    between atoms: N_15  and  C_16
REMARK    8  A    between atoms: N_15  and  C_17
REMARK                            x       y       z     vdW  Elec       q    Type
REMARK                         _______ _______ _______ _____ _____    ______ ____
ROOT
ATOM      1  C   UNL     1       2.268   6.491  20.014  0.00  0.00    +0.000 A 
ATOM      2  N   UNL     1       3.446   5.966  19.790  0.00  0.00    +0.000 NA
ATOM      3  C   UNL     1       3.340   4.655  20.158  0.00  0.00    +0.000 A 
ATOM      4  C   UNL     1       4.090   3.561  19.728  0.00  0.00    +0.000 A 
ATOM      5  C   UNL     1       3.830   2.319  20.323  0.00  0.00    +0.000 A 
ATOM      6  C   UNL     1       2.832   2.192  21.304  0.00  0.00    +0.000 A 
ATOM      7  C   UNL     1       1.955   3.249  21.595  0.00  0.00    +0.000 A 
ATOM      8  C   UNL     1       2.210   4.445  20.926  0.00  0.00    +0.000 A 
ATOM      9  N   UNL     1       1.455   5.555  20.622  0.00  0.00    +0.000 N 
ATOM     10  H   UNL     1       0.448   5.567  20.594  0.00  0.00    +0.000 HD
ENDROOT
BRANCH   1  15
ATOM     11  C   UNL     1       1.111  11.885  18.391  0.00  0.00    +0.000 C 
ATOM     12  C   UNL     1       1.353  10.464  18.770  0.00  0.00    +0.000 A 
ATOM     13  C   UNL     1       1.980   9.570  17.888  0.00  0.00    +0.000 A 
ATOM     14  C   UNL     1       2.244   8.266  18.294  0.00  0.00    +0.000 A 
ATOM     15  C   UNL     1       1.895   7.829  19.587  0.00  0.00    +0.000 A 
ATOM     16  C   UNL     1       1.225   8.710  20.440  0.00  0.00    +0.000 A 
ATOM     17  C   UNL     1       0.956  10.007  20.031  0.00  0.00    +0.000 A 
ENDBRANCH   1  15
BRANCH   4  18
ATOM     18  C   UNL     1       4.872   3.734  18.476  0.00  0.00    +0.000 C 
ATOM     19  O   UNL     1       4.286   3.738  17.390  0.00  0.00    +0.000 OA
ATOM     20  N   UNL     1       6.211   4.024  18.623  0.00  0.00    +0.000 N 
ATOM     21  H   UNL     1       6.568   4.090  19.579  0.00  0.00    +0.000 HD
BRANCH  20  22
ATOM     22  C   UNL     1       7.030   4.639  17.603  0.00  0.00    +0.000 C 
BRANCH  22  23
ATOM     23  C   UNL     1       6.676   6.120  17.342  0.00  0.00    +0.000 C 
BRANCH  23  24
ATOM     24  N   UNL     1       6.289   6.402  15.942  0.00  0.00    +0.000 NA
ATOM     25  C   UNL     1       6.463   5.217  15.096  0.00  0.00    +0.000 C 
ATOM     26  C   UNL     1       4.888   6.830  15.889  0.00  0.00    +0.000 C 
ENDBRANCH  23  24
ENDBRANCH  22  23
ENDBRANCH  20  22
ENDBRANCH   4  18
TORSDOF 5
ENDMDL
MODEL 7
REMARK VINA RESULT:      -7.5      1.583      4.535
REMARK  Name = 
REMARK  8 active torsions:
REMARK  status: ('A' for Active; 'I' for Inactive)
REMARK    1  A    between atoms: C_1  and  C_2
REMARK    2  A    between atoms: C_5  and  C_6
REMARK    3  A    between atoms: C_9  and  C_10
REMARK    4  A    between atoms: N_12  and  C_13
REMARK    5  A    between atoms: C_13  and  C_14
REMARK    6  A    between atoms: C_14  and  N_15
REMARK    7  A    between atoms: N_15  and  C_16
REMARK    8  A    between atoms: N_15  and  C_17
REMARK                            x       y       z     vdW  Elec       q    Type
REMARK                         _______ _______ _______ _____ _____    ______ ____
ROOT
ATOM      1  C   UNL     1       2.175   6.668  19.931  0.00  0.00    +0.000 A 
ATOM      2  N   UNL     1       3.035   5.948  19.257  0.00  0.00    +0.000 NA
ATOM      3  C   UNL     1       2.915   4.677  19.744  0.00  0.00    +0.000 A 
ATOM      4  C   UNL     1       3.222   3.468  19.123  0.00  0.00    +0.000 A 
ATOM      5  C   UNL     1       3.078   2.295  19.876  0.00  0.00    +0.000 A 
ATOM      6  C   UNL     1       2.620   2.349  21.203  0.00  0.00    +0.000 A 
ATOM      7  C   UNL     1       2.132   3.543  21.759  0.00  0.00    +0.000 A 
ATOM      8  C   UNL     1       2.232   4.671  20.947  0.00  0.00    +0.000 A 
ATOM      9  N   UNL     1       1.593   5.889  20.913  0.00  0.00    +0.000 N 
ATOM     10  H   UNL     1       0.696   6.072  21.331  0.00  0.00    +0.000 HD
ENDROOT
BRANCH   1  15
ATOM     11  C   UNL     1       0.567  12.015  18.556  0.00  0.00    +0.000 C 
ATOM     12  C   UNL     1       1.041  10.658  18.952  0.00  0.00    +0.000 A 
ATOM     13  C   UNL     1       0.796  10.145  20.236  0.00  0.00    +0.000 A 
ATOM     14  C   UNL     1       1.201   8.853  20.553  0.00  0.00    +0.000 A 
ATOM     15  C   UNL     1       1.850   8.044  19.600  0.00  0.00    +0.000 A 
ATOM     16  C   UNL     1       2.133   8.581  18.340  0.00  0.00    +0.000 A 
ATOM     17  C   UNL     1       1.737   9.871  18.028  0.00  0.00    +0.000 A 
ENDBRANCH   1  15
BRANCH   4  18
ATOM     18  C   UNL     1       3.374   3.492  17.645  0.00  0.00    +0.000 C 
ATOM     19  O   UNL     1       2.398   3.252  16.930  0.00  0.00    +0.000 OA
ATOM     20  N   UNL     1       4.588   3.927  17.159  0.00  0.00    +0.000 N 
ATOM     21  H   UNL     1       5.295   4.191  17.850  0.00  0.00    +0.000 HD
BRANCH  20  22
ATOM     22  C   UNL     1       4.800   4.428  15.820  0.00  0.00    +0.000 C 
BRANCH  22  23
ATOM     23  C   UNL     1       5.237   5.910  15.782  0.00  0.00    +0.000 C 
BRANCH  23  24
ATOM     24  N   UNL     1       6.705   6.097  15.757  0.00  0.00    +0.000 NA
ATOM     25  C   UNL     1       7.225   6.380  17.099  0.00  0.00    +0.000 C 
ATOM     26  C   UNL     1       7.351   4.890  15.234  0.00  0.00    +0.000 C 
ENDBRANCH  23  24
ENDBRANCH  22  23
ENDBRANCH  20  22
ENDBRANCH   4  18
TORSDOF 5
ENDMDL
MODEL 8
REMARK VINA RESULT:      -7.5      1.176      1.736
REMARK  Name = 
REMARK  8 active torsions:
REMARK  status: ('A' for Active; 'I' for Inactive)
REMARK    1  A    between atoms: C_1  and  C_2
REMARK    2  A    between atoms: C_5  and  C_6
REMARK    3  A    between atoms: C_9  and  C_10
REMARK    4  A    between atoms: N_12  and  C_13
REMARK    5  A    between atoms: C_13  and  C_14
REMARK    6  A    between atoms: C_14  and  N_15
REMARK    7  A    between atoms: N_15  and  C_16
REMARK    8  A    between atoms: N_15  and  C_17
REMARK                            x       y       z     vdW  Elec       q    Type
REMARK                         _______ _______ _______ _____ _____    ______ ____
ROOT
ATOM      1  C   UNL     1       3.020   7.195  18.166  0.00  0.00    +0.000 A 
ATOM      2  N   UNL     1       3.261   5.920  18.339  0.00  0.00    +0.000 NA
ATOM      3  C   UNL     1       4.293   5.622  17.495  0.00  0.00    +0.000 A 
ATOM      4  C   UNL     1       5.227   4.592  17.584  0.00  0.00    +0.000 A 
ATOM      5  C   UNL     1       6.148   4.457  16.536  0.00  0.00    +0.000 A 
ATOM      6  C   UNL     1       6.130   5.349  15.450  0.00  0.00    +0.000 A 
ATOM      7  C   UNL     1       5.317   6.493  15.457  0.00  0.00    +0.000 A 
ATOM      8  C   UNL     1       4.467   6.621  16.555  0.00  0.00    +0.000 A 
ATOM      9  N   UNL     1       3.813   7.678  17.144  0.00  0.00    +0.000 N 
ATOM     10  H   UNL     1       4.078   8.643  17.033  0.00  0.00    +0.000 HD
ENDROOT
BRANCH   1  15
ATOM     11  C   UNL     1      -0.304  10.438  21.557  0.00  0.00    +0.000 C 
ATOM     12  C   UNL     1       0.495   9.571  20.645  0.00  0.00    +0.000 A 
ATOM     13  C   UNL     1       0.707   9.923  19.303  0.00  0.00    +0.000 A 
ATOM     14  C   UNL     1       1.506   9.121  18.495  0.00  0.00    +0.000 A 
ATOM     15  C   UNL     1       2.115   7.959  19.007  0.00  0.00    +0.000 A 
ATOM     16  C   UNL     1       1.858   7.590  20.331  0.00  0.00    +0.000 A 
ATOM     17  C   UNL     1       1.055   8.385  21.132  0.00  0.00    +0.000 A 
ENDBRANCH   1  15
BRANCH   4  18
ATOM     18  C   UNL     1       5.371   3.927  18.905  0.00  0.00    +0.000 C 
ATOM     19  O   UNL     1       6.046   4.466  19.786  0.00  0.00    +0.000 OA
ATOM     20  N   UNL     1       4.610   2.797  19.110  0.00  0.00    +0.000 N 
ATOM     21  H   UNL     1       4.012   2.495  18.336  0.00  0.00    +0.000 HD
BRANCH  20  22
ATOM     22  C   UNL     1       4.271   2.265  20.410  0.00  0.00    +0.000 C 
BRANCH  22  23
ATOM     23  C   UNL     1       2.867   2.687  20.898  0.00  0.00    +0.000 C 
BRANCH  23  24
ATOM     24  N   UNL     1       1.975   3.153  19.813  0.00  0.00    +0.000 NA
ATOM     25  C   UNL     1       1.319   2.023  19.146  0.00  0.00    +0.000 C 
ATOM     26  C   UNL     1       0.953   4.049  20.360  0.00  0.00    +0.000 C 
ENDBRANCH  23  24
ENDBRANCH  22  23
ENDBRANCH  20  22
ENDBRANCH   4  18
TORSDOF 5
ENDMDL
MODEL 9
REMARK VINA RESULT:      -7.4      1.108      1.336
REMARK  Name = 
REMARK  8 active torsions:
REMARK  status: ('A' for Active; 'I' for Inactive)
REMARK    1  A    between atoms: C_1  and  C_2
REMARK    2  A    between atoms: C_5  and  C_6
REMARK    3  A    between atoms: C_9  and  C_10
REMARK    4  A    between atoms: N_12  and  C_13
REMARK    5  A    between atoms: C_13  and  C_14
REMARK    6  A    between atoms: C_14  and  N_15
REMARK    7  A    between atoms: N_15  and  C_16
REMARK    8  A    between atoms: N_15  and  C_17
REMARK                            x       y       z     vdW  Elec       q    Type
REMARK                         _______ _______ _______ _____ _____    ______ ____
ROOT
ATOM      1  C   UNL     1       3.214   7.213  17.806  0.00  0.00    +0.000 A 
ATOM      2  N   UNL     1       3.363   5.944  18.088  0.00  0.00    +0.000 NA
ATOM      3  C   UNL     1       4.404   5.514  17.315  0.00  0.00    +0.000 A 
ATOM      4  C   UNL     1       5.263   4.437  17.524  0.00  0.00    +0.000 A 
ATOM      5  C   UNL     1       6.212   4.159  16.531  0.00  0.00    +0.000 A 
ATOM      6  C   UNL     1       6.296   4.960  15.379  0.00  0.00    +0.000 A 
ATOM      7  C   UNL     1       5.561   6.151  15.262  0.00  0.00    +0.000 A 
ATOM      8  C   UNL     1       4.680   6.420  16.308  0.00  0.00    +0.000 A 
ATOM      9  N   UNL     1       4.077   7.562  16.785  0.00  0.00    +0.000 N 
ATOM     10  H   UNL     1       4.410   8.496  16.611  0.00  0.00    +0.000 HD
ENDROOT
BRANCH   1  15
ATOM     11  C   UNL     1      -0.535  10.494  20.678  0.00  0.00    +0.000 C 
ATOM     12  C   UNL     1       0.493   9.677  19.971  0.00  0.00    +0.000 A 
ATOM     13  C   UNL     1       1.118   8.589  20.599  0.00  0.00    +0.000 A 
ATOM     14  C   UNL     1       2.030   7.812  19.891  0.00  0.00    +0.000 A 
ATOM     15  C   UNL     1       2.331   8.099  18.545  0.00  0.00    +0.000 A 
ATOM     16  C   UNL     1       1.741   9.214  17.944  0.00  0.00    +0.000 A 
ATOM     17  C   UNL     1       0.840   9.992  18.653  0.00  0.00    +0.000 A 
ENDBRANCH   1  15
BRANCH   4  18
ATOM     18  C   UNL     1       5.312   3.873  18.898  0.00  0.00    +0.000 C 
ATOM     19  O   UNL     1       5.996   4.430  19.760  0.00  0.00    +0.000 OA
ATOM     20  N   UNL     1       4.460   2.822  19.161  0.00  0.00    +0.000 N 
ATOM     21  H   UNL     1       3.867   2.504  18.391  0.00  0.00    +0.000 HD
BRANCH  20  22
ATOM     22  C   UNL     1       4.038   2.424  20.485  0.00  0.00    +0.000 C 
BRANCH  22  23
ATOM     23  C   UNL     1       2.503   2.406  20.661  0.00  0.00    +0.000 C 
BRANCH  23  24
ATOM     24  N   UNL     1       1.783   3.259  19.688  0.00  0.00    +0.000 NA
ATOM     25  C   UNL     1       0.876   2.461  18.856  0.00  0.00    +0.000 C 
ATOM     26  C   UNL     1       1.011   4.281  20.399  0.00  0.00    +0.000 C 
ENDBRANCH  23  24
ENDBRANCH  22  23
ENDBRANCH  20  22
ENDBRANCH   4  18
TORSDOF 5
ENDMDL
