MODEL 1
REMARK VINA RESULT:      -7.7      0.000      0.000
REMARK  Name = 
REMARK  7 active torsions:
REMARK  status: ('A' for Active; 'I' for Inactive)
REMARK    1  A    between atoms: C_1  and  C_2
REMARK    2  A    between atoms: C_2  and  C_3
REMARK    3  A    between atoms: C_2  and  S_4
REMARK    4  A    between atoms: S_4  and  N_7
REMARK    5  A    between atoms: N_7  and  C_8
REMARK    6  A    between atoms: C_13  and  C_14
REMARK    7  A    between atoms: C_18  and  C_19
REMARK                            x       y       z     vdW  Elec       q    Type
REMARK                         _______ _______ _______ _____ _____    ______ ____
ROOT
ATOM      1  C   UNL     1       0.028  10.701  21.069  0.00  0.00    +0.000 C 
ATOM      2  C   UNL     1       0.578  11.146  19.700  0.00  0.00    +0.000 C 
ATOM      3  C   UNL     1       1.180   9.886  19.171  0.00  0.00    +0.000 A 
ATOM      4  C   UNL     1       1.625   9.648  17.887  0.00  0.00    +0.000 A 
ATOM      5  C   UNL     1       2.211   8.411  17.606  0.00  0.00    +0.000 A 
ATOM      6  C   UNL     1       2.374   7.415  18.599  0.00  0.00    +0.000 A 
ATOM      7  C   UNL     1       1.923   7.707  19.905  0.00  0.00    +0.000 A 
ATOM      8  C   UNL     1       1.327   8.930  20.173  0.00  0.00    +0.000 A 
ATOM      9  C   UNL     1       0.836   9.449  21.489  0.00  0.00    +0.000 C 
ENDROOT
BRANCH   6  10
ATOM     10  C   UNL     1       3.000   6.113  18.275  0.00  0.00    +0.000 A 
ATOM     11  C   UNL     1       2.226   4.983  17.945  0.00  0.00    +0.000 A 
ATOM     12  C   UNL     1       2.816   3.750  17.652  0.00  0.00    +0.000 A 
ATOM     13  C   UNL     1       4.200   3.620  17.672  0.00  0.00    +0.000 A 
ATOM     14  C   UNL     1       4.991   4.721  17.992  0.00  0.00    +0.000 A 
ATOM     15  C   UNL     1       4.397   5.951  18.295  0.00  0.00    +0.000 A 
BRANCH  14  16
ATOM     16  C   UNL     1       6.425   4.599  18.013  0.00  0.00    +0.000 C 
ATOM     17  N   UNL     1       7.583   4.499  18.031  0.00  0.00    +0.000 NA
ENDBRANCH  14  16
ENDBRANCH   6  10
BRANCH   1  18
ATOM     18  N   UNL     1       0.116  11.777  22.119  0.00  0.00    +0.000 NA
ATOM     19  H   UNL     1       0.711  11.443  22.878  0.00  0.00    +0.000 HD
BRANCH  18  20
ATOM     20  S   UNL     1      -1.394  12.238  22.752  0.00  0.00    +0.000 S 
ATOM     21  O   UNL     1      -1.148  13.464  23.481  0.00  0.00    +0.000 OA
ATOM     22  O   UNL     1      -1.970  11.082  23.400  0.00  0.00    +0.000 OA
BRANCH  20  24
ATOM     23  C   UNL     1      -3.853  12.748  21.709  0.00  0.00    +0.000 C 
ATOM     24  C   UNL     1      -2.387  12.620  21.286  0.00  0.00    +0.000 C 
ATOM     25  C   UNL     1      -1.926  13.896  20.595  0.00  0.00    +0.000 C 
ENDBRANCH  20  24
ENDBRANCH  18  20
ENDBRANCH   1  18
TORSDOF 5
ENDMDL
MODEL 2
REMARK VINA RESULT:      -7.5      1.636      2.213
REMARK  Name = 
REMARK  7 active torsions:
REMARK  status: ('A' for Active; 'I' for Inactive)
REMARK    1  A    between atoms: C_1  and  C_2
REMARK    2  A    between atoms: C_2  and  C_3
REMARK    3  A    between atoms: C_2  and  S_4
REMARK    4  A    between atoms: S_4  and  N_7
REMARK    5  A    between atoms: N_7  and  C_8
REMARK    6  A    between atoms: C_13  and  C_14
REMARK    7  A    between atoms: C_18  and  C_19
REMARK                            x       y       z     vdW  Elec       q    Type
REMARK                         _______ _______ _______ _____ _____    ______ ____
ROOT
ATOM      1  C   UNL     1       0.817  11.243  19.866  0.00  0.00    +0.000 C 
ATOM      2  C   UNL     1       0.465  10.105  20.844  0.00  0.00    +0.000 C 
ATOM      3  C   UNL     1       1.191   8.941  20.255  0.00  0.00    +0.000 A 
ATOM      4  C   UNL     1       1.405   7.709  20.839  0.00  0.00    +0.000 A 
ATOM      5  C   UNL     1       2.064   6.728  20.094  0.00  0.00    +0.000 A 
ATOM      6  C   UNL     1       2.497   6.958  18.766  0.00  0.00    +0.000 A 
ATOM      7  C   UNL     1       2.240   8.226  18.200  0.00  0.00    +0.000 A 
ATOM      8  C   UNL     1       1.600   9.201  18.951  0.00  0.00    +0.000 A 
ATOM      9  C   UNL     1       1.192  10.576  18.520  0.00  0.00    +0.000 C 
ENDROOT
BRANCH   6  10
ATOM     10  C   UNL     1       3.192   5.900  17.998  0.00  0.00    +0.000 A 
ATOM     11  C   UNL     1       2.639   4.615  17.844  0.00  0.00    +0.000 A 
ATOM     12  C   UNL     1       3.301   3.612  17.130  0.00  0.00    +0.000 A 
ATOM     13  C   UNL     1       4.533   3.875  16.540  0.00  0.00    +0.000 A 
ATOM     14  C   UNL     1       5.104   5.139  16.674  0.00  0.00    +0.000 A 
ATOM     15  C   UNL     1       4.443   6.138  17.399  0.00  0.00    +0.000 A 
BRANCH  14  16
ATOM     16  C   UNL     1       6.377   5.425  16.067  0.00  0.00    +0.000 C 
ATOM     17  N   UNL     1       7.405   5.656  15.575  0.00  0.00    +0.000 NA
ENDBRANCH  14  16
ENDBRANCH   6  10
BRANCH   1  18
ATOM     18  N   UNL     1      -0.303  12.233  19.684  0.00  0.00    +0.000 NA
ATOM     19  H   UNL     1      -0.282  12.575  18.722  0.00  0.00    +0.000 HD
BRANCH  18  20
ATOM     20  S   UNL     1      -0.227  13.556  20.751  0.00  0.00    +0.000 S 
ATOM     21  O   UNL     1      -0.421  14.729  19.925  0.00  0.00    +0.000 OA
ATOM     22  O   UNL     1       0.956  13.397  21.564  0.00  0.00    +0.000 OA
BRANCH  20  24
ATOM     23  C   UNL     1      -2.784  12.667  21.004  0.00  0.00    +0.000 C 
ATOM     24  C   UNL     1      -1.679  13.346  21.815  0.00  0.00    +0.000 C 
ATOM     25  C   UNL     1      -1.365  12.531  23.063  0.00  0.00    +0.000 C 
ENDBRANCH  20  24
ENDBRANCH  18  20
ENDBRANCH   1  18
TORSDOF 5
ENDMDL
MODEL 3
REMARK VINA RESULT:      -7.5      1.513      1.762
REMARK  Name = 
REMARK  7 active torsions:
REMARK  status: ('A' for Active; 'I' for Inactive)
REMARK    1  A    between atoms: C_1  and  C_2
REMARK    2  A    between atoms: C_2  and  C_3
REMARK    3  A    between atoms: C_2  and  S_4
REMARK    4  A    between atoms: S_4  and  N_7
REMARK    5  A    between atoms: N_7  and  C_8
REMARK    6  A    between atoms: C_13  and  C_14
REMARK    7  A    between atoms: C_18  and  C_19
REMARK                            x       y       z     vdW  Elec       q    Type
REMARK                         _______ _______ _______ _____ _____    ______ ____
ROOT
ATOM      1  C   UNL     1       0.022   9.989  21.142  0.00  0.00    +0.000 C 
ATOM      2  C   UNL     1       0.616  10.674  19.896  0.00  0.00    +0.000 C 
ATOM      3  C   UNL     1       1.313   9.545  19.212  0.00  0.00    +0.000 A 
ATOM      4  C   UNL     1       1.837   9.539  17.935  0.00  0.00    +0.000 A 
ATOM      5  C   UNL     1       2.503   8.392  17.497  0.00  0.00    +0.000 A 
ATOM      6  C   UNL     1       2.669   7.258  18.327  0.00  0.00    +0.000 A 
ATOM      7  C   UNL     1       2.136   7.314  19.634  0.00  0.00    +0.000 A 
ATOM      8  C   UNL     1       1.461   8.448  20.056  0.00  0.00    +0.000 A 
ATOM      9  C   UNL     1       0.875   8.724  21.406  0.00  0.00    +0.000 C 
ENDROOT
BRANCH   6  10
ATOM     10  C   UNL     1       3.382   6.055  17.839  0.00  0.00    +0.000 A 
ATOM     11  C   UNL     1       2.914   4.756  18.115  0.00  0.00    +0.000 A 
ATOM     12  C   UNL     1       3.593   3.620  17.666  0.00  0.00    +0.000 A 
ATOM     13  C   UNL     1       4.757   3.757  16.916  0.00  0.00    +0.000 A 
ATOM     14  C   UNL     1       5.242   5.030  16.625  0.00  0.00    +0.000 A 
ATOM     15  C   UNL     1       4.565   6.165  17.085  0.00  0.00    +0.000 A 
BRANCH  14  16
ATOM     16  C   UNL     1       6.444   5.184  15.847  0.00  0.00    +0.000 C 
ATOM     17  N   UNL     1       7.415   5.308  15.220  0.00  0.00    +0.000 NA
ENDBRANCH  14  16
ENDBRANCH   6  10
BRANCH   1  18
ATOM     18  N   UNL     1      -0.004  10.884  22.353  0.00  0.00    +0.000 NA
ATOM     19  H   UNL     1      -0.529  10.416  23.093  0.00  0.00    +0.000 HD
BRANCH  18  20
ATOM     20  S   UNL     1      -0.692  12.412  22.060  0.00  0.00    +0.000 S 
ATOM     21  O   UNL     1      -1.619  12.214  20.966  0.00  0.00    +0.000 OA
ATOM     22  O   UNL     1       0.386  13.369  21.967  0.00  0.00    +0.000 OA
BRANCH  20  24
ATOM     23  C   UNL     1      -1.639  14.279  23.795  0.00  0.00    +0.000 C 
ATOM     24  C   UNL     1      -1.635  12.766  23.565  0.00  0.00    +0.000 C 
ATOM     25  C   UNL     1      -3.063  12.242  23.486  0.00  0.00    +0.000 C 
ENDBRANCH  20  24
ENDBRANCH  18  20
ENDBRANCH   1  18
TORSDOF 5
ENDMDL
MODEL 4
REMARK VINA RESULT:      -7.4      1.060      1.323
REMARK  Name = 
REMARK  7 active torsions:
REMARK  status: ('A' for Active; 'I' for Inactive)
REMARK    1  A    between atoms: C_1  and  C_2
REMARK    2  A    between atoms: C_2  and  C_3
REMARK    3  A    between atoms: C_2  and  S_4
REMARK    4  A    between atoms: S_4  and  N_7
REMARK    5  A    between atoms: N_7  and  C_8
REMARK    6  A    between atoms: C_13  and  C_14
REMARK    7  A    between atoms: C_18  and  C_19
REMARK                            x       y       z     vdW  Elec       q    Type
REMARK                         _______ _______ _______ _____ _____    ______ ____
ROOT
ATOM      1  C   UNL     1       0.055  10.556  20.989  0.00  0.00    +0.000 C 
ATOM      2  C   UNL     1       0.686  11.050  19.673  0.00  0.00    +0.000 C 
ATOM      3  C   UNL     1       1.293   9.803  19.121  0.00  0.00    +0.000 A 
ATOM      4  C   UNL     1       1.804   9.614  17.853  0.00  0.00    +0.000 A 
ATOM      5  C   UNL     1       2.382   8.380  17.548  0.00  0.00    +0.000 A 
ATOM      6  C   UNL     1       2.472   7.337  18.501  0.00  0.00    +0.000 A 
ATOM      7  C   UNL     1       1.956   7.579  19.793  0.00  0.00    +0.000 A 
ATOM      8  C   UNL     1       1.368   8.801  20.084  0.00  0.00    +0.000 A 
ATOM      9  C   UNL     1       0.815   9.269  21.395  0.00  0.00    +0.000 C 
ENDROOT
BRANCH   6  10
ATOM     10  C   UNL     1       3.092   6.038  18.152  0.00  0.00    +0.000 A 
ATOM     11  C   UNL     1       2.326   4.863  18.033  0.00  0.00    +0.000 A 
ATOM     12  C   UNL     1       2.911   3.633  17.717  0.00  0.00    +0.000 A 
ATOM     13  C   UNL     1       4.283   3.552  17.500  0.00  0.00    +0.000 A 
ATOM     14  C   UNL     1       5.066   4.700  17.608  0.00  0.00    +0.000 A 
ATOM     15  C   UNL     1       4.477   5.926  17.935  0.00  0.00    +0.000 A 
BRANCH  14  16
ATOM     16  C   UNL     1       6.486   4.628  17.383  0.00  0.00    +0.000 C 
ATOM     17  N   UNL     1       7.632   4.570  17.200  0.00  0.00    +0.000 NA
ENDBRANCH  14  16
ENDBRANCH   6  10
BRANCH   1  18
ATOM     18  N   UNL     1       0.104  11.581  22.091  0.00  0.00    +0.000 NA
ATOM     19  H   UNL     1       0.143  11.094  22.987  0.00  0.00    +0.000 HD
BRANCH  18  20
ATOM     20  S   UNL     1      -1.221  12.648  22.091  0.00  0.00    +0.000 S 
ATOM     21  O   UNL     1      -1.547  12.859  23.485  0.00  0.00    +0.000 OA
ATOM     22  O   UNL     1      -2.199  12.134  21.160  0.00  0.00    +0.000 OA
BRANCH  20  24
ATOM     23  C   UNL     1       0.974  14.170  21.582  0.00  0.00    +0.000 C 
ATOM     24  C   UNL     1      -0.547  14.186  21.411  0.00  0.00    +0.000 C 
ATOM     25  C   UNL     1      -0.909  14.375  19.943  0.00  0.00    +0.000 C 
ENDBRANCH  20  24
ENDBRANCH  18  20
ENDBRANCH   1  18
TORSDOF 5
ENDMDL
MODEL 5
REMARK VINA RESULT:      -7.3      1.929      2.344
REMARK  Name = 
REMARK  7 active torsions:
REMARK  status: ('A' for Active; 'I' for Inactive)
REMARK    1  A    between atoms: C_1  and  C_2
REMARK    2  A    between atoms: C_2  and  C_3
REMARK    3  A    between atoms: C_2  and  S_4
REMARK    4  A    between atoms: S_4  and  N_7
REMARK    5  A    between atoms: N_7  and  C_8
REMARK    6  A    between atoms: C_13  and  C_14
REMARK    7  A    between atoms: C_18  and  C_19
REMARK                            x       y       z     vdW  Elec       q    Type
REMARK                         _______ _______ _______ _____ _____    ______ ____
ROOT
ATOM      1  C   UNL     1       0.475   9.841  20.927  0.00  0.00    +0.000 C 
ATOM      2  C   UNL     1       1.228  10.062  19.601  0.00  0.00    +0.000 C 
ATOM      3  C   UNL     1       1.613   8.672  19.215  0.00  0.00    +0.000 A 
ATOM      4  C   UNL     1       2.120   8.252  18.002  0.00  0.00    +0.000 A 
ATOM      5  C   UNL     1       2.470   6.908  17.859  0.00  0.00    +0.000 A 
ATOM      6  C   UNL     1       2.337   5.981  18.920  0.00  0.00    +0.000 A 
ATOM      7  C   UNL     1       1.833   6.456  20.151  0.00  0.00    +0.000 A 
ATOM      8  C   UNL     1       1.471   7.788  20.281  0.00  0.00    +0.000 A 
ATOM      9  C   UNL     1       0.973   8.494  21.505  0.00  0.00    +0.000 C 
ENDROOT
BRANCH   6  10
ATOM     10  C   UNL     1       2.718   4.561  18.743  0.00  0.00    +0.000 A 
ATOM     11  C   UNL     1       2.279   3.811  17.634  0.00  0.00    +0.000 A 
ATOM     12  C   UNL     1       2.627   2.467  17.473  0.00  0.00    +0.000 A 
ATOM     13  C   UNL     1       3.436   1.840  18.415  0.00  0.00    +0.000 A 
ATOM     14  C   UNL     1       3.887   2.558  19.521  0.00  0.00    +0.000 A 
ATOM     15  C   UNL     1       3.528   3.900  19.684  0.00  0.00    +0.000 A 
BRANCH  14  16
ATOM     16  C   UNL     1       4.727   1.921  20.501  0.00  0.00    +0.000 C 
ATOM     17  N   UNL     1       5.406   1.408  21.293  0.00  0.00    +0.000 NA
ENDBRANCH  14  16
ENDBRANCH   6  10
BRANCH   1  18
ATOM     18  N   UNL     1       0.677  10.959  21.915  0.00  0.00    +0.000 NA
ATOM     19  H   UNL     1       0.823  10.553  22.840  0.00  0.00    +0.000 HD
BRANCH  18  20
ATOM     20  S   UNL     1      -0.622  12.055  21.983  0.00  0.00    +0.000 S 
ATOM     21  O   UNL     1      -1.115  11.985  23.341  0.00  0.00    +0.000 OA
ATOM     22  O   UNL     1      -1.484  11.785  20.855  0.00  0.00    +0.000 OA
BRANCH  20  24
ATOM     23  C   UNL     1       1.419  13.480  20.888  0.00  0.00    +0.000 C 
ATOM     24  C   UNL     1       0.154  13.672  21.728  0.00  0.00    +0.000 C 
ATOM     25  C   UNL     1      -0.785  14.660  21.046  0.00  0.00    +0.000 C 
ENDBRANCH  20  24
ENDBRANCH  18  20
ENDBRANCH   1  18
TORSDOF 5
ENDMDL
MODEL 6
REMARK VINA RESULT:      -7.3      2.214      2.914
REMARK  Name = 
REMARK  7 active torsions:
REMARK  status: ('A' for Active; 'I' for Inactive)
REMARK    1  A    between atoms: C_1  and  C_2
REMARK    2  A    between atoms: C_2  and  C_3
REMARK    3  A    between atoms: C_2  and  S_4
REMARK    4  A    between atoms: S_4  and  N_7
REMARK    5  A    between atoms: N_7  and  C_8
REMARK    6  A    between atoms: C_13  and  C_14
REMARK    7  A    between atoms: C_18  and  C_19
REMARK                            x       y       z     vdW  Elec       q    Type
REMARK                         _______ _______ _______ _____ _____    ______ ____
ROOT
ATOM      1  C   UNL     1       0.486  11.219  20.012  0.00  0.00    +0.000 C 
ATOM      2  C   UNL     1       0.284  10.081  21.031  0.00  0.00    +0.000 C 
ATOM      3  C   UNL     1       1.057   8.961  20.418  0.00  0.00    +0.000 A 
ATOM      4  C   UNL     1       1.399   7.761  21.009  0.00  0.00    +0.000 A 
ATOM      5  C   UNL     1       2.083   6.816  20.242  0.00  0.00    +0.000 A 
ATOM      6  C   UNL     1       2.414   7.046  18.886  0.00  0.00    +0.000 A 
ATOM      7  C   UNL     1       2.028   8.278  18.314  0.00  0.00    +0.000 A 
ATOM      8  C   UNL     1       1.364   9.220  19.086  0.00  0.00    +0.000 A 
ATOM      9  C   UNL     1       0.827  10.551  18.657  0.00  0.00    +0.000 C 
ENDROOT
BRANCH   6  10
ATOM     10  C   UNL     1       3.139   6.026  18.094  0.00  0.00    +0.000 A 
ATOM     11  C   UNL     1       2.599   4.745  17.870  0.00  0.00    +0.000 A 
ATOM     12  C   UNL     1       3.287   3.776  17.134  0.00  0.00    +0.000 A 
ATOM     13  C   UNL     1       4.534   4.072  16.593  0.00  0.00    +0.000 A 
ATOM     14  C   UNL     1       5.092   5.332  16.796  0.00  0.00    +0.000 A 
ATOM     15  C   UNL     1       4.404   6.295  17.542  0.00  0.00    +0.000 A 
BRANCH  14  16
ATOM     16  C   UNL     1       6.381   5.650  16.238  0.00  0.00    +0.000 C 
ATOM     17  N   UNL     1       7.422   5.905  15.788  0.00  0.00    +0.000 NA
ENDBRANCH  14  16
ENDBRANCH   6  10
BRANCH   1  18
ATOM     18  N   UNL     1      -0.714  12.118  19.883  0.00  0.00    +0.000 NA
ATOM     19  H   UNL     1      -1.294  11.780  19.113  0.00  0.00    +0.000 HD
BRANCH  18  20
ATOM     20  S   UNL     1      -0.320  13.751  19.610  0.00  0.00    +0.000 S 
ATOM     21  O   UNL     1      -1.167  14.507  20.507  0.00  0.00    +0.000 OA
ATOM     22  O   UNL     1      -0.345  13.976  18.184  0.00  0.00    +0.000 OA
BRANCH  20  24
ATOM     23  C   UNL     1       2.187  14.697  19.144  0.00  0.00    +0.000 C 
ATOM     24  C   UNL     1       1.396  13.888  20.175  0.00  0.00    +0.000 C 
ATOM     25  C   UNL     1       1.500  14.541  21.547  0.00  0.00    +0.000 C 
ENDBRANCH  20  24
ENDBRANCH  18  20
ENDBRANCH   1  18
TORSDOF 5
ENDMDL
MODEL 7
REMARK VINA RESULT:      -7.2      4.403      9.246
REMARK  Name = 
REMARK  7 active torsions:
REMARK  status: ('A' for Active; 'I' for Inactive)
REMARK    1  A    between atoms: C_1  and  C_2
REMARK    2  A    between atoms: C_2  and  C_3
REMARK    3  A    between atoms: C_2  and  S_4
REMARK    4  A    between atoms: S_4  and  N_7
REMARK    5  A    between atoms: N_7  and  C_8
REMARK    6  A    between atoms: C_13  and  C_14
REMARK    7  A    between atoms: C_18  and  C_19
REMARK                            x       y       z     vdW  Elec       q    Type
REMARK                         _______ _______ _______ _____ _____    ______ ____
ROOT
ATOM      1  C   UNL     1       3.163   6.398  18.150  0.00  0.00    +0.000 C 
ATOM      2  C   UNL     1       2.941   6.229  19.665  0.00  0.00    +0.000 C 
ATOM      3  C   UNL     1       2.000   7.345  19.978  0.00  0.00    +0.000 A 
ATOM      4  C   UNL     1       1.296   7.540  21.149  0.00  0.00    +0.000 A 
ATOM      5  C   UNL     1       0.504   8.685  21.264  0.00  0.00    +0.000 A 
ATOM      6  C   UNL     1       0.421   9.647  20.229  0.00  0.00    +0.000 A 
ATOM      7  C   UNL     1       1.173   9.419  19.056  0.00  0.00    +0.000 A 
ATOM      8  C   UNL     1       1.944   8.272  18.941  0.00  0.00    +0.000 A 
ATOM      9  C   UNL     1       2.846   7.876  17.813  0.00  0.00    +0.000 C 
ENDROOT
BRANCH   6  10
ATOM     10  C   UNL     1      -0.425  10.853  20.377  0.00  0.00    +0.000 A 
ATOM     11  C   UNL     1      -1.334  11.245  19.376  0.00  0.00    +0.000 A 
ATOM     12  C   UNL     1      -2.124  12.390  19.509  0.00  0.00    +0.000 A 
ATOM     13  C   UNL     1      -2.031  13.169  20.658  0.00  0.00    +0.000 A 
ATOM     14  C   UNL     1      -1.143  12.804  21.667  0.00  0.00    +0.000 A 
ATOM     15  C   UNL     1      -0.346  11.662  21.525  0.00  0.00    +0.000 A 
BRANCH  14  16
ATOM     16  C   UNL     1      -1.040  13.600  22.862  0.00  0.00    +0.000 C 
ATOM     17  N   UNL     1      -0.955  14.244  23.826  0.00  0.00    +0.000 NA
ENDBRANCH  14  16
ENDBRANCH   6  10
BRANCH   1  18
ATOM     18  N   UNL     1       4.555   6.031  17.711  0.00  0.00    +0.000 NA
ATOM     19  H   UNL     1       4.726   6.442  16.792  0.00  0.00    +0.000 HD
BRANCH  18  20
ATOM     20  S   UNL     1       4.829   4.354  17.634  0.00  0.00    +0.000 S 
ATOM     21  O   UNL     1       3.574   3.778  17.200  0.00  0.00    +0.000 OA
ATOM     22  O   UNL     1       5.451   3.953  18.875  0.00  0.00    +0.000 OA
BRANCH  20  24
ATOM     23  C   UNL     1       5.561   4.954  15.085  0.00  0.00    +0.000 C 
ATOM     24  C   UNL     1       6.046   4.168  16.305  0.00  0.00    +0.000 C 
ATOM     25  C   UNL     1       7.431   4.645  16.722  0.00  0.00    +0.000 C 
ENDBRANCH  20  24
ENDBRANCH  18  20
ENDBRANCH   1  18
TORSDOF 5
ENDMDL
MODEL 8
REMARK VINA RESULT:      -7.2      4.508      9.068
REMARK  Name = 
REMARK  7 active torsions:
REMARK  status: ('A' for Active; 'I' for Inactive)
REMARK    1  A    between atoms: C_1  and  C_2
REMARK    2  A    between atoms: C_2  and  C_3
REMARK    3  A    between atoms: C_2  and  S_4
REMARK    4  A    between atoms: S_4  and  N_7
REMARK    5  A    between atoms: N_7  and  C_8
REMARK    6  A    between atoms: C_13  and  C_14
REMARK    7  A    between atoms: C_18  and  C_19
REMARK                            x       y       z     vdW  Elec       q    Type
REMARK                         _______ _______ _______ _____ _____    ______ ____
ROOT
ATOM      1  C   UNL     1       3.568   6.385  18.668  0.00  0.00    +0.000 C 
ATOM      2  C   UNL     1       3.139   7.425  17.615  0.00  0.00    +0.000 C 
ATOM      3  C   UNL     1       2.307   8.369  18.418  0.00  0.00    +0.000 A 
ATOM      4  C   UNL     1       1.843   9.610  18.030  0.00  0.00    +0.000 A 
ATOM      5  C   UNL     1       1.027  10.319  18.914  0.00  0.00    +0.000 A 
ATOM      6  C   UNL     1       0.653   9.795  20.175  0.00  0.00    +0.000 A 
ATOM      7  C   UNL     1       1.133   8.513  20.524  0.00  0.00    +0.000 A 
ATOM      8  C   UNL     1       1.957   7.822  19.649  0.00  0.00    +0.000 A 
ATOM      9  C   UNL     1       2.521   6.444  19.807  0.00  0.00    +0.000 C 
ENDROOT
BRANCH   6  10
ATOM     10  C   UNL     1      -0.215  10.567  21.094  0.00  0.00    +0.000 A 
ATOM     11  C   UNL     1      -0.525  10.098  22.385  0.00  0.00    +0.000 A 
ATOM     12  C   UNL     1      -1.355  10.820  23.248  0.00  0.00    +0.000 A 
ATOM     13  C   UNL     1      -1.888  12.039  22.842  0.00  0.00    +0.000 A 
ATOM     14  C   UNL     1      -1.596  12.529  21.571  0.00  0.00    +0.000 A 
ATOM     15  C   UNL     1      -0.773  11.798  20.706  0.00  0.00    +0.000 A 
BRANCH  14  16
ATOM     16  C   UNL     1      -2.139  13.790  21.141  0.00  0.00    +0.000 C 
ATOM     17  N   UNL     1      -2.578  14.809  20.792  0.00  0.00    +0.000 NA
ENDBRANCH  14  16
ENDBRANCH   6  10
BRANCH   1  18
ATOM     18  N   UNL     1       3.680   4.991  18.110  0.00  0.00    +0.000 NA
ATOM     19  H   UNL     1       3.106   4.366  18.678  0.00  0.00    +0.000 HD
BRANCH  18  20
ATOM     20  S   UNL     1       5.275   4.399  18.065  0.00  0.00    +0.000 S 
ATOM     21  O   UNL     1       5.427   3.801  16.756  0.00  0.00    +0.000 OA
ATOM     22  O   UNL     1       5.495   3.635  19.270  0.00  0.00    +0.000 OA
BRANCH  20  24
ATOM     23  C   UNL     1       7.513   5.602  19.031  0.00  0.00    +0.000 C 
ATOM     24  C   UNL     1       6.299   5.891  18.146  0.00  0.00    +0.000 C 
ATOM     25  C   UNL     1       6.752   6.354  16.767  0.00  0.00    +0.000 C 
ENDBRANCH  20  24
ENDBRANCH  18  20
ENDBRANCH   1  18
TORSDOF 5
ENDMDL
MODEL 9
REMARK VINA RESULT:      -7.2      2.760      4.238
REMARK  Name = 
REMARK  7 active torsions:
REMARK  status: ('A' for Active; 'I' for Inactive)
REMARK    1  A    between atoms: C_1  and  C_2
REMARK    2  A    between atoms: C_2  and  C_3
REMARK    3  A    between atoms: C_2  and  S_4
REMARK    4  A    between atoms: S_4  and  N_7
REMARK    5  A    between atoms: N_7  and  C_8
REMARK    6  A    between atoms: C_13  and  C_14
REMARK    7  A    between atoms: C_18  and  C_19
REMARK                            x       y       z     vdW  Elec       q    Type
REMARK                         _______ _______ _______ _____ _____    ______ ____
ROOT
ATOM      1  C   UNL     1       1.564   7.323  20.847  0.00  0.00    +0.000 C 
ATOM      2  C   UNL     1       1.408   5.793  20.759  0.00  0.00    +0.000 C 
ATOM      3  C   UNL     1       2.423   5.426  19.727  0.00  0.00    +0.000 A 
ATOM      4  C   UNL     1       2.867   4.159  19.406  0.00  0.00    +0.000 A 
ATOM      5  C   UNL     1       3.788   4.023  18.365  0.00  0.00    +0.000 A 
ATOM      6  C   UNL     1       4.256   5.136  17.627  0.00  0.00    +0.000 A 
ATOM      7  C   UNL     1       3.761   6.413  17.975  0.00  0.00    +0.000 A 
ATOM      8  C   UNL     1       2.860   6.543  19.021  0.00  0.00    +0.000 A 
ATOM      9  C   UNL     1       2.183   7.787  19.505  0.00  0.00    +0.000 C 
ENDROOT
BRANCH   6  10
ATOM     10  C   UNL     1       5.232   4.965  16.526  0.00  0.00    +0.000 A 
ATOM     11  C   UNL     1       6.580   5.343  16.668  0.00  0.00    +0.000 A 
ATOM     12  C   UNL     1       7.499   5.193  15.625  0.00  0.00    +0.000 A 
ATOM     13  C   UNL     1       7.090   4.648  14.413  0.00  0.00    +0.000 A 
ATOM     14  C   UNL     1       5.763   4.261  14.244  0.00  0.00    +0.000 A 
ATOM     15  C   UNL     1       4.844   4.423  15.287  0.00  0.00    +0.000 A 
BRANCH  14  16
ATOM     16  C   UNL     1       5.329   3.693  12.994  0.00  0.00    +0.000 C 
ATOM     17  N   UNL     1       4.980   3.235  11.985  0.00  0.00    +0.000 NA
ENDBRANCH  14  16
ENDBRANCH   6  10
BRANCH   1  18
ATOM     18  N   UNL     1       0.265   8.035  21.116  0.00  0.00    +0.000 NA
ATOM     19  H   UNL     1      -0.157   8.294  20.222  0.00  0.00    +0.000 HD
BRANCH  18  20
ATOM     20  S   UNL     1       0.435   9.428  22.078  0.00  0.00    +0.000 S 
ATOM     21  O   UNL     1       1.782   9.371  22.604  0.00  0.00    +0.000 OA
ATOM     22  O   UNL     1      -0.711   9.500  22.954  0.00  0.00    +0.000 OA
BRANCH  20  24
ATOM     23  C   UNL     1      -0.560  10.363  19.726  0.00  0.00    +0.000 C 
ATOM     24  C   UNL     1       0.330  10.795  20.893  0.00  0.00    +0.000 C 
ATOM     25  C   UNL     1      -0.218  12.067  21.529  0.00  0.00    +0.000 C 
ENDBRANCH  20  24
ENDBRANCH  18  20
ENDBRANCH   1  18
TORSDOF 5
ENDMDL
