MODEL 1
REMARK VINA RESULT:      -7.3      0.000      0.000
REMARK  Name = 
REMARK  11 active torsions:
REMARK  status: ('A' for Active; 'I' for Inactive)
REMARK    1  A    between atoms: C_1  and  O_2
REMARK    2  A    between atoms: O_2  and  C_3
REMARK    3  A    between atoms: C_5  and  O_6
REMARK    4  A    between atoms: C_7  and  C_8
REMARK    5  A    between atoms: C_8  and  C_10
REMARK    6  A    between atoms: C_10  and  C_11
REMARK    7  A    between atoms: C_14  and  O_15
REMARK    8  A    between atoms: O_15  and  C_16
REMARK    9  A    between atoms: C_17  and  O_18
REMARK   10  A    between atoms: O_18  and  C_19
REMARK   11  A    between atoms: C_22  and  O_23
REMARK                            x       y       z     vdW  Elec       q    Type
REMARK                         _______ _______ _______ _____ _____    ______ ____
ROOT
ATOM      1  C   UNL     1       5.307   3.997  16.469  0.00  0.00    +0.000 C 
ATOM      2  O   UNL     1       5.531   3.621  15.318  0.00  0.00    +0.000 OA
ENDROOT
BRANCH   1   6
ATOM      3  C   UNL     1       7.794   7.038  18.252  0.00  0.00    +0.000 A 
ATOM      4  C   UNL     1       7.060   7.344  17.105  0.00  0.00    +0.000 A 
ATOM      5  C   UNL     1       6.244   6.376  16.512  0.00  0.00    +0.000 A 
ATOM      6  C   UNL     1       6.162   5.083  17.038  0.00  0.00    +0.000 A 
ATOM      7  C   UNL     1       6.945   4.762  18.159  0.00  0.00    +0.000 A 
ATOM      8  C   UNL     1       7.746   5.735  18.758  0.00  0.00    +0.000 A 
BRANCH   3  10
ATOM      9  C   UNL     1       8.554   9.273  18.399  0.00  0.00    +0.000 C 
ATOM     10  O   UNL     1       8.600   7.940  18.896  0.00  0.00    +0.000 OA
ENDBRANCH   3  10
BRANCH   5  11
ATOM     11  O   UNL     1       5.547   6.729  15.397  0.00  0.00    +0.000 OA
ATOM     12  H   UNL     1       5.784   6.165  14.642  0.00  0.00    +0.000 HD
ENDBRANCH   5  11
BRANCH   8  13
ATOM     13  O   UNL     1       8.481   5.423  19.870  0.00  0.00    +0.000 OA
ATOM     14  H   UNL     1       7.882   5.225  20.608  0.00  0.00    +0.000 HD
ENDBRANCH   8  13
ENDBRANCH   1   6
BRANCH   1  15
ATOM     15  C   UNL     1       4.223   3.341  17.316  0.00  0.00    +0.000 C 
BRANCH  15  16
ATOM     16  C   UNL     1       3.443   4.288  18.202  0.00  0.00    +0.000 A 
ATOM     17  C   UNL     1       3.113   5.573  17.777  0.00  0.00    +0.000 A 
ATOM     18  C   UNL     1       2.489   6.466  18.649  0.00  0.00    +0.000 A 
ATOM     19  C   UNL     1       2.172   6.097  19.963  0.00  0.00    +0.000 A 
ATOM     20  C   UNL     1       2.417   4.778  20.377  0.00  0.00    +0.000 A 
ATOM     21  C   UNL     1       3.055   3.891  19.492  0.00  0.00    +0.000 A 
BRANCH  19  22
ATOM     22  O   UNL     1       1.608   6.987  20.839  0.00  0.00    +0.000 OA
ATOM     23  C   UNL     1       1.440   8.315  20.349  0.00  0.00    +0.000 C 
ENDBRANCH  19  22
BRANCH  20  24
ATOM     24  O   UNL     1       2.183   4.226  21.609  0.00  0.00    +0.000 OA
ATOM     25  C   UNL     1       1.830   2.849  21.657  0.00  0.00    +0.000 C 
ENDBRANCH  20  24
ENDBRANCH  15  16
ENDBRANCH   1  15
TORSDOF 8
ENDMDL
MODEL 2
REMARK VINA RESULT:      -7.2      1.723      5.988
REMARK  Name = 
REMARK  11 active torsions:
REMARK  status: ('A' for Active; 'I' for Inactive)
REMARK    1  A    between atoms: C_1  and  O_2
REMARK    2  A    between atoms: O_2  and  C_3
REMARK    3  A    between atoms: C_5  and  O_6
REMARK    4  A    between atoms: C_7  and  C_8
REMARK    5  A    between atoms: C_8  and  C_10
REMARK    6  A    between atoms: C_10  and  C_11
REMARK    7  A    between atoms: C_14  and  O_15
REMARK    8  A    between atoms: O_15  and  C_16
REMARK    9  A    between atoms: C_17  and  O_18
REMARK   10  A    between atoms: O_18  and  C_19
REMARK   11  A    between atoms: C_22  and  O_23
REMARK                            x       y       z     vdW  Elec       q    Type
REMARK                         _______ _______ _______ _____ _____    ______ ____
ROOT
ATOM      1  C   UNL     1       2.638   3.666  18.041  0.00  0.00    +0.000 C 
ATOM      2  O   UNL     1       1.740   3.147  17.376  0.00  0.00    +0.000 OA
ENDROOT
BRANCH   1   6
ATOM      3  C   UNL     1       1.801   7.324  20.171  0.00  0.00    +0.000 A 
ATOM      4  C   UNL     1       1.557   6.100  20.795  0.00  0.00    +0.000 A 
ATOM      5  C   UNL     1       1.823   4.902  20.127  0.00  0.00    +0.000 A 
ATOM      6  C   UNL     1       2.318   4.902  18.819  0.00  0.00    +0.000 A 
ATOM      7  C   UNL     1       2.510   6.134  18.172  0.00  0.00    +0.000 A 
ATOM      8  C   UNL     1       2.258   7.329  18.849  0.00  0.00    +0.000 A 
BRANCH   3  10
ATOM      9  C   UNL     1       0.327   8.678  21.430  0.00  0.00    +0.000 C 
ATOM     10  O   UNL     1       1.580   8.535  20.771  0.00  0.00    +0.000 OA
ENDBRANCH   3  10
BRANCH   5  11
ATOM     11  O   UNL     1       1.570   3.737  20.784  0.00  0.00    +0.000 OA
ATOM     12  H   UNL     1       2.395   3.278  21.016  0.00  0.00    +0.000 HD
ENDBRANCH   5  11
BRANCH   8  13
ATOM     13  O   UNL     1       2.479   8.526  18.224  0.00  0.00    +0.000 OA
ATOM     14  H   UNL     1       2.155   8.478  17.309  0.00  0.00    +0.000 HD
ENDBRANCH   8  13
ENDBRANCH   1   6
BRANCH   1  15
ATOM     15  C   UNL     1       4.052   3.101  18.032  0.00  0.00    +0.000 C 
BRANCH  15  16
ATOM     16  C   UNL     1       5.140   4.104  17.716  0.00  0.00    +0.000 A 
ATOM     17  C   UNL     1       5.766   4.837  18.721  0.00  0.00    +0.000 A 
ATOM     18  C   UNL     1       6.688   5.833  18.398  0.00  0.00    +0.000 A 
ATOM     19  C   UNL     1       7.015   6.117  17.066  0.00  0.00    +0.000 A 
ATOM     20  C   UNL     1       6.460   5.326  16.047  0.00  0.00    +0.000 A 
ATOM     21  C   UNL     1       5.524   4.332  16.385  0.00  0.00    +0.000 A 
BRANCH  19  22
ATOM     22  O   UNL     1       7.879   7.129  16.741  0.00  0.00    +0.000 OA
ATOM     23  C   UNL     1       7.920   8.223  17.654  0.00  0.00    +0.000 C 
ENDBRANCH  19  22
BRANCH  20  24
ATOM     24  O   UNL     1       6.650   5.442  14.694  0.00  0.00    +0.000 OA
ATOM     25  C   UNL     1       6.438   4.283  13.898  0.00  0.00    +0.000 C 
ENDBRANCH  20  24
ENDBRANCH  15  16
ENDBRANCH   1  15
TORSDOF 8
ENDMDL
MODEL 3
REMARK VINA RESULT:      -7.1      1.768      3.402
REMARK  Name = 
REMARK  11 active torsions:
REMARK  status: ('A' for Active; 'I' for Inactive)
REMARK    1  A    between atoms: C_1  and  O_2
REMARK    2  A    between atoms: O_2  and  C_3
REMARK    3  A    between atoms: C_5  and  O_6
REMARK    4  A    between atoms: C_7  and  C_8
REMARK    5  A    between atoms: C_8  and  C_10
REMARK    6  A    between atoms: C_10  and  C_11
REMARK    7  A    between atoms: C_14  and  O_15
REMARK    8  A    between atoms: O_15  and  C_16
REMARK    9  A    between atoms: C_17  and  O_18
REMARK   10  A    between atoms: O_18  and  C_19
REMARK   11  A    between atoms: C_22  and  O_23
REMARK                            x       y       z     vdW  Elec       q    Type
REMARK                         _______ _______ _______ _____ _____    ______ ____
ROOT
ATOM      1  C   UNL     1       3.285   3.145  17.653  0.00  0.00    +0.000 C 
ATOM      2  O   UNL     1       3.448   1.926  17.583  0.00  0.00    +0.000 OA
ENDROOT
BRANCH   1   6
ATOM      3  C   UNL     1       6.694   5.719  17.050  0.00  0.00    +0.000 A 
ATOM      4  C   UNL     1       6.610   4.962  18.218  0.00  0.00    +0.000 A 
ATOM      5  C   UNL     1       5.517   4.118  18.435  0.00  0.00    +0.000 A 
ATOM      6  C   UNL     1       4.480   4.029  17.501  0.00  0.00    +0.000 A 
ATOM      7  C   UNL     1       4.539   4.834  16.352  0.00  0.00    +0.000 A 
ATOM      8  C   UNL     1       5.640   5.664  16.131  0.00  0.00    +0.000 A 
BRANCH   3  10
ATOM      9  C   UNL     1       7.774   7.776  17.491  0.00  0.00    +0.000 C 
ATOM     10  O   UNL     1       7.742   6.553  16.764  0.00  0.00    +0.000 OA
ENDBRANCH   3  10
BRANCH   5  11
ATOM     11  O   UNL     1       5.488   3.400  19.591  0.00  0.00    +0.000 OA
ATOM     12  H   UNL     1       4.737   3.663  20.149  0.00  0.00    +0.000 HD
ENDBRANCH   5  11
BRANCH   8  13
ATOM     13  O   UNL     1       5.707   6.421  14.993  0.00  0.00    +0.000 OA
ATOM     14  H   UNL     1       5.165   7.219  15.103  0.00  0.00    +0.000 HD
ENDBRANCH   8  13
ENDBRANCH   1   6
BRANCH   1  15
ATOM     15  C   UNL     1       1.912   3.740  17.938  0.00  0.00    +0.000 C 
BRANCH  15  16
ATOM     16  C   UNL     1       1.915   4.940  18.861  0.00  0.00    +0.000 A 
ATOM     17  C   UNL     1       1.598   4.817  20.213  0.00  0.00    +0.000 A 
ATOM     18  C   UNL     1       1.501   5.950  21.021  0.00  0.00    +0.000 A 
ATOM     19  C   UNL     1       1.726   7.233  20.504  0.00  0.00    +0.000 A 
ATOM     20  C   UNL     1       2.133   7.365  19.167  0.00  0.00    +0.000 A 
ATOM     21  C   UNL     1       2.217   6.216  18.360  0.00  0.00    +0.000 A 
BRANCH  19  22
ATOM     22  O   UNL     1       1.579   8.352  21.280  0.00  0.00    +0.000 OA
ATOM     23  C   UNL     1       0.241   8.805  21.465  0.00  0.00    +0.000 C 
ENDBRANCH  19  22
BRANCH  20  24
ATOM     24  O   UNL     1       2.398   8.520  18.478  0.00  0.00    +0.000 OA
ATOM     25  C   UNL     1       1.313   9.149  17.806  0.00  0.00    +0.000 C 
ENDBRANCH  20  24
ENDBRANCH  15  16
ENDBRANCH   1  15
TORSDOF 8
ENDMDL
MODEL 4
REMARK VINA RESULT:      -6.9      1.926      6.340
REMARK  Name = 
REMARK  11 active torsions:
REMARK  status: ('A' for Active; 'I' for Inactive)
REMARK    1  A    between atoms: C_1  and  O_2
REMARK    2  A    between atoms: O_2  and  C_3
REMARK    3  A    between atoms: C_5  and  O_6
REMARK    4  A    between atoms: C_7  and  C_8
REMARK    5  A    between atoms: C_8  and  C_10
REMARK    6  A    between atoms: C_10  and  C_11
REMARK    7  A    between atoms: C_14  and  O_15
REMARK    8  A    between atoms: O_15  and  C_16
REMARK    9  A    between atoms: C_17  and  O_18
REMARK   10  A    between atoms: O_18  and  C_19
REMARK   11  A    between atoms: C_22  and  O_23
REMARK                            x       y       z     vdW  Elec       q    Type
REMARK                         _______ _______ _______ _____ _____    ______ ____
ROOT
ATOM      1  C   UNL     1       3.158   4.088  18.548  0.00  0.00    +0.000 C 
ATOM      2  O   UNL     1       2.348   3.277  18.096  0.00  0.00    +0.000 OA
ENDROOT
BRANCH   1   6
ATOM      3  C   UNL     1       1.751   7.929  19.920  0.00  0.00    +0.000 A 
ATOM      4  C   UNL     1       1.586   6.811  20.738  0.00  0.00    +0.000 A 
ATOM      5  C   UNL     1       2.037   5.557  20.317  0.00  0.00    +0.000 A 
ATOM      6  C   UNL     1       2.640   5.391  19.066  0.00  0.00    +0.000 A 
ATOM      7  C   UNL     1       2.754   6.507  18.221  0.00  0.00    +0.000 A 
ATOM      8  C   UNL     1       2.317   7.761  18.651  0.00  0.00    +0.000 A 
BRANCH   3  10
ATOM      9  C   UNL     1       0.822   9.323  21.589  0.00  0.00    +0.000 C 
ATOM     10  O   UNL     1       1.349   9.190  20.274  0.00  0.00    +0.000 OA
ENDBRANCH   3  10
BRANCH   5  11
ATOM     11  O   UNL     1       1.854   4.501  21.156  0.00  0.00    +0.000 OA
ATOM     12  H   UNL     1       1.279   3.828  20.754  0.00  0.00    +0.000 HD
ENDBRANCH   5  11
BRANCH   8  13
ATOM     13  O   UNL     1       2.462   8.851  17.836  0.00  0.00    +0.000 OA
ATOM     14  H   UNL     1       1.934   9.588  18.184  0.00  0.00    +0.000 HD
ENDBRANCH   8  13
ENDBRANCH   1   6
BRANCH   1  15
ATOM     15  C   UNL     1       4.653   3.799  18.533  0.00  0.00    +0.000 C 
BRANCH  15  16
ATOM     16  C   UNL     1       5.385   4.280  17.300  0.00  0.00    +0.000 A 
ATOM     17  C   UNL     1       5.255   3.625  16.077  0.00  0.00    +0.000 A 
ATOM     18  C   UNL     1       6.022   4.020  14.980  0.00  0.00    +0.000 A 
ATOM     19  C   UNL     1       6.931   5.082  15.073  0.00  0.00    +0.000 A 
ATOM     20  C   UNL     1       7.008   5.808  16.272  0.00  0.00    +0.000 A 
ATOM     21  C   UNL     1       6.237   5.394  17.373  0.00  0.00    +0.000 A 
BRANCH  19  22
ATOM     22  O   UNL     1       7.725   5.438  14.015  0.00  0.00    +0.000 OA
ATOM     23  C   UNL     1       7.426   4.800  12.776  0.00  0.00    +0.000 C 
ENDBRANCH  19  22
BRANCH  20  24
ATOM     24  O   UNL     1       7.826   6.869  16.563  0.00  0.00    +0.000 OA
ATOM     25  C   UNL     1       7.473   7.687  17.671  0.00  0.00    +0.000 C 
ENDBRANCH  20  24
ENDBRANCH  15  16
ENDBRANCH   1  15
TORSDOF 8
ENDMDL
MODEL 5
REMARK VINA RESULT:      -6.7      2.244      6.554
REMARK  Name = 
REMARK  11 active torsions:
REMARK  status: ('A' for Active; 'I' for Inactive)
REMARK    1  A    between atoms: C_1  and  O_2
REMARK    2  A    between atoms: O_2  and  C_3
REMARK    3  A    between atoms: C_5  and  O_6
REMARK    4  A    between atoms: C_7  and  C_8
REMARK    5  A    between atoms: C_8  and  C_10
REMARK    6  A    between atoms: C_10  and  C_11
REMARK    7  A    between atoms: C_14  and  O_15
REMARK    8  A    between atoms: O_15  and  C_16
REMARK    9  A    between atoms: C_17  and  O_18
REMARK   10  A    between atoms: O_18  and  C_19
REMARK   11  A    between atoms: C_22  and  O_23
REMARK                            x       y       z     vdW  Elec       q    Type
REMARK                         _______ _______ _______ _____ _____    ______ ____
ROOT
ATOM      1  C   UNL     1       2.647   5.685  18.834  0.00  0.00    +0.000 C 
ATOM      2  O   UNL     1       1.863   4.875  18.337  0.00  0.00    +0.000 OA
ENDROOT
BRANCH   1   6
ATOM      3  C   UNL     1       1.301   9.730  19.496  0.00  0.00    +0.000 A 
ATOM      4  C   UNL     1       1.196   8.799  20.530  0.00  0.00    +0.000 A 
ATOM      5  C   UNL     1       1.628   7.483  20.341  0.00  0.00    +0.000 A 
ATOM      6  C   UNL     1       2.154   7.068  19.113  0.00  0.00    +0.000 A 
ATOM      7  C   UNL     1       2.206   7.992  18.056  0.00  0.00    +0.000 A 
ATOM      8  C   UNL     1       1.788   9.309  18.254  0.00  0.00    +0.000 A 
BRANCH   3  10
ATOM      9  C   UNL     1       1.435  11.736  20.741  0.00  0.00    +0.000 C 
ATOM     10  O   UNL     1       0.913  11.038  19.616  0.00  0.00    +0.000 OA
ENDBRANCH   3  10
BRANCH   5  11
ATOM     11  O   UNL     1       1.505   6.617  21.383  0.00  0.00    +0.000 OA
ATOM     12  H   UNL     1       0.658   6.142  21.348  0.00  0.00    +0.000 HD
ENDBRANCH   5  11
BRANCH   8  13
ATOM     13  O   UNL     1       1.874  10.213  17.230  0.00  0.00    +0.000 OA
ATOM     14  H   UNL     1       1.424   9.857  16.446  0.00  0.00    +0.000 HD
ENDBRANCH   8  13
ENDBRANCH   1   6
BRANCH   1  15
ATOM     15  C   UNL     1       4.097   5.309  19.110  0.00  0.00    +0.000 C 
BRANCH  15  16
ATOM     16  C   UNL     1       4.995   5.289  17.892  0.00  0.00    +0.000 A 
ATOM     17  C   UNL     1       4.917   4.265  16.949  0.00  0.00    +0.000 A 
ATOM     18  C   UNL     1       5.826   4.208  15.892  0.00  0.00    +0.000 A 
ATOM     19  C   UNL     1       6.831   5.173  15.745  0.00  0.00    +0.000 A 
ATOM     20  C   UNL     1       6.866   6.259  16.634  0.00  0.00    +0.000 A 
ATOM     21  C   UNL     1       5.950   6.300  17.701  0.00  0.00    +0.000 A 
BRANCH  19  22
ATOM     22  O   UNL     1       7.759   5.092  14.740  0.00  0.00    +0.000 OA
ATOM     23  C   UNL     1       7.237   4.861  13.434  0.00  0.00    +0.000 C 
ENDBRANCH  19  22
BRANCH  20  24
ATOM     24  O   UNL     1       7.761   7.297  16.660  0.00  0.00    +0.000 OA
ATOM     25  C   UNL     1       7.744   8.152  17.796  0.00  0.00    +0.000 C 
ENDBRANCH  20  24
ENDBRANCH  15  16
ENDBRANCH   1  15
TORSDOF 8
ENDMDL
MODEL 6
REMARK VINA RESULT:      -6.7      1.915      6.389
REMARK  Name = 
REMARK  11 active torsions:
REMARK  status: ('A' for Active; 'I' for Inactive)
REMARK    1  A    between atoms: C_1  and  O_2
REMARK    2  A    between atoms: O_2  and  C_3
REMARK    3  A    between atoms: C_5  and  O_6
REMARK    4  A    between atoms: C_7  and  C_8
REMARK    5  A    between atoms: C_8  and  C_10
REMARK    6  A    between atoms: C_10  and  C_11
REMARK    7  A    between atoms: C_14  and  O_15
REMARK    8  A    between atoms: O_15  and  C_16
REMARK    9  A    between atoms: C_17  and  O_18
REMARK   10  A    between atoms: O_18  and  C_19
REMARK   11  A    between atoms: C_22  and  O_23
REMARK                            x       y       z     vdW  Elec       q    Type
REMARK                         _______ _______ _______ _____ _____    ______ ____
ROOT
ATOM      1  C   UNL     1       4.308   3.884  18.863  0.00  0.00    +0.000 C 
ATOM      2  O   UNL     1       5.189   3.443  19.602  0.00  0.00    +0.000 OA
ENDROOT
BRANCH   1   6
ATOM      3  C   UNL     1       1.616   6.889  20.391  0.00  0.00    +0.000 A 
ATOM      4  C   UNL     1       1.671   5.643  21.015  0.00  0.00    +0.000 A 
ATOM      5  C   UNL     1       2.538   4.654  20.541  0.00  0.00    +0.000 A 
ATOM      6  C   UNL     1       3.349   4.883  19.425  0.00  0.00    +0.000 A 
ATOM      7  C   UNL     1       3.250   6.119  18.764  0.00  0.00    +0.000 A 
ATOM      8  C   UNL     1       2.395   7.109  19.250  0.00  0.00    +0.000 A 
BRANCH   3  10
ATOM      9  C   UNL     1       1.325   8.723  21.855  0.00  0.00    +0.000 C 
ATOM     10  O   UNL     1       0.803   7.909  20.810  0.00  0.00    +0.000 OA
ENDBRANCH   3  10
BRANCH   5  11
ATOM     11  O   UNL     1       2.554   3.458  21.190  0.00  0.00    +0.000 OA
ATOM     12  H   UNL     1       1.662   3.205  21.482  0.00  0.00    +0.000 HD
ENDBRANCH   5  11
BRANCH   8  13
ATOM     13  O   UNL     1       2.329   8.322  18.620  0.00  0.00    +0.000 OA
ATOM     14  H   UNL     1       3.209   8.562  18.286  0.00  0.00    +0.000 HD
ENDBRANCH   8  13
ENDBRANCH   1   6
BRANCH   1  15
ATOM     15  C   UNL     1       4.161   3.390  17.430  0.00  0.00    +0.000 C 
BRANCH  15  16
ATOM     16  C   UNL     1       5.116   4.016  16.437  0.00  0.00    +0.000 A 
ATOM     17  C   UNL     1       5.186   3.571  15.118  0.00  0.00    +0.000 A 
ATOM     18  C   UNL     1       6.148   4.088  14.249  0.00  0.00    +0.000 A 
ATOM     19  C   UNL     1       7.058   5.067  14.671  0.00  0.00    +0.000 A 
ATOM     20  C   UNL     1       6.940   5.589  15.970  0.00  0.00    +0.000 A 
ATOM     21  C   UNL     1       5.974   5.053  16.838  0.00  0.00    +0.000 A 
BRANCH  19  22
ATOM     22  O   UNL     1       8.038   5.539  13.839  0.00  0.00    +0.000 OA
ATOM     23  C   UNL     1       7.865   5.249  12.454  0.00  0.00    +0.000 C 
ENDBRANCH  19  22
BRANCH  20  24
ATOM     24  O   UNL     1       7.726   6.541  16.568  0.00  0.00    +0.000 OA
ATOM     25  C   UNL     1       7.210   7.186  17.726  0.00  0.00    +0.000 C 
ENDBRANCH  20  24
ENDBRANCH  15  16
ENDBRANCH   1  15
TORSDOF 8
ENDMDL
MODEL 7
REMARK VINA RESULT:      -6.6      2.640      4.920
REMARK  Name = 
REMARK  11 active torsions:
REMARK  status: ('A' for Active; 'I' for Inactive)
REMARK    1  A    between atoms: C_1  and  O_2
REMARK    2  A    between atoms: O_2  and  C_3
REMARK    3  A    between atoms: C_5  and  O_6
REMARK    4  A    between atoms: C_7  and  C_8
REMARK    5  A    between atoms: C_8  and  C_10
REMARK    6  A    between atoms: C_10  and  C_11
REMARK    7  A    between atoms: C_14  and  O_15
REMARK    8  A    between atoms: O_15  and  C_16
REMARK    9  A    between atoms: C_17  and  O_18
REMARK   10  A    between atoms: O_18  and  C_19
REMARK   11  A    between atoms: C_22  and  O_23
REMARK                            x       y       z     vdW  Elec       q    Type
REMARK                         _______ _______ _______ _____ _____    ______ ____
ROOT
ATOM      1  C   UNL     1       1.873   4.882  20.051  0.00  0.00    +0.000 C 
ATOM      2  O   UNL     1       0.880   4.181  20.245  0.00  0.00    +0.000 OA
ENDROOT
BRANCH   1   6
ATOM      3  C   UNL     1       4.735   3.793  17.011  0.00  0.00    +0.000 A 
ATOM      4  C   UNL     1       3.373   3.749  16.712  0.00  0.00    +0.000 A 
ATOM      5  C   UNL     1       2.427   4.100  17.679  0.00  0.00    +0.000 A 
ATOM      6  C   UNL     1       2.820   4.482  18.966  0.00  0.00    +0.000 A 
ATOM      7  C   UNL     1       4.189   4.472  19.281  0.00  0.00    +0.000 A 
ATOM      8  C   UNL     1       5.131   4.136  18.308  0.00  0.00    +0.000 A 
BRANCH   3  10
ATOM      9  C   UNL     1       5.750   4.277  14.930  0.00  0.00    +0.000 C 
ATOM     10  O   UNL     1       5.717   3.479  16.109  0.00  0.00    +0.000 OA
ENDBRANCH   3  10
BRANCH   5  11
ATOM     11  O   UNL     1       1.112   4.043  17.333  0.00  0.00    +0.000 OA
ATOM     12  H   UNL     1       1.006   3.938  16.372  0.00  0.00    +0.000 HD
ENDBRANCH   5  11
BRANCH   8  13
ATOM     13  O   UNL     1       6.465   4.160  18.613  0.00  0.00    +0.000 OA
ATOM     14  H   UNL     1       6.601   4.665  19.432  0.00  0.00    +0.000 HD
ENDBRANCH   8  13
ENDBRANCH   1   6
BRANCH   1  15
ATOM     15  C   UNL     1       2.164   6.096  20.924  0.00  0.00    +0.000 C 
BRANCH  15  16
ATOM     16  C   UNL     1       1.657   7.413  20.377  0.00  0.00    +0.000 A 
ATOM     17  C   UNL     1       2.042   7.874  19.120  0.00  0.00    +0.000 A 
ATOM     18  C   UNL     1       1.650   9.139  18.681  0.00  0.00    +0.000 A 
ATOM     19  C   UNL     1       0.857   9.972  19.482  0.00  0.00    +0.000 A 
ATOM     20  C   UNL     1       0.387   9.486  20.712  0.00  0.00    +0.000 A 
ATOM     21  C   UNL     1       0.798   8.214  21.148  0.00  0.00    +0.000 A 
BRANCH  19  22
ATOM     22  O   UNL     1       0.514  11.236  19.078  0.00  0.00    +0.000 OA
ATOM     23  C   UNL     1       1.602  12.120  18.825  0.00  0.00    +0.000 C 
ENDBRANCH  19  22
BRANCH  20  24
ATOM     24  O   UNL     1      -0.390  10.139  21.634  0.00  0.00    +0.000 OA
ATOM     25  C   UNL     1      -0.228   9.785  23.001  0.00  0.00    +0.000 C 
ENDBRANCH  20  24
ENDBRANCH  15  16
ENDBRANCH   1  15
TORSDOF 8
ENDMDL
MODEL 8
REMARK VINA RESULT:      -6.6      2.311      4.303
REMARK  Name = 
REMARK  11 active torsions:
REMARK  status: ('A' for Active; 'I' for Inactive)
REMARK    1  A    between atoms: C_1  and  O_2
REMARK    2  A    between atoms: O_2  and  C_3
REMARK    3  A    between atoms: C_5  and  O_6
REMARK    4  A    between atoms: C_7  and  C_8
REMARK    5  A    between atoms: C_8  and  C_10
REMARK    6  A    between atoms: C_10  and  C_11
REMARK    7  A    between atoms: C_14  and  O_15
REMARK    8  A    between atoms: O_15  and  C_16
REMARK    9  A    between atoms: C_17  and  O_18
REMARK   10  A    between atoms: O_18  and  C_19
REMARK   11  A    between atoms: C_22  and  O_23
REMARK                            x       y       z     vdW  Elec       q    Type
REMARK                         _______ _______ _______ _____ _____    ______ ____
ROOT
ATOM      1  C   UNL     1       2.845   5.488  18.575  0.00  0.00    +0.000 C 
ATOM      2  O   UNL     1       1.796   4.909  18.289  0.00  0.00    +0.000 OA
ENDROOT
BRANCH   1   6
ATOM      3  C   UNL     1       6.326   4.982  16.077  0.00  0.00    +0.000 A 
ATOM      4  C   UNL     1       5.438   3.918  16.232  0.00  0.00    +0.000 A 
ATOM      5  C   UNL     1       4.301   4.058  17.033  0.00  0.00    +0.000 A 
ATOM      6  C   UNL     1       4.041   5.255  17.709  0.00  0.00    +0.000 A 
ATOM      7  C   UNL     1       4.965   6.306  17.597  0.00  0.00    +0.000 A 
ATOM      8  C   UNL     1       6.091   6.167  16.783  0.00  0.00    +0.000 A 
BRANCH   3  10
ATOM      9  C   UNL     1       7.222   4.855  13.892  0.00  0.00    +0.000 C 
ATOM     10  O   UNL     1       7.449   4.921  15.296  0.00  0.00    +0.000 OA
ENDBRANCH   3  10
BRANCH   5  11
ATOM     11  O   UNL     1       3.467   2.989  17.147  0.00  0.00    +0.000 OA
ATOM     12  H   UNL     1       3.876   2.278  17.668  0.00  0.00    +0.000 HD
ENDBRANCH   5  11
BRANCH   8  13
ATOM     13  O   UNL     1       6.970   7.208  16.652  0.00  0.00    +0.000 OA
ATOM     14  H   UNL     1       7.618   6.999  15.959  0.00  0.00    +0.000 HD
ENDBRANCH   8  13
ENDBRANCH   1   6
BRANCH   1  15
ATOM     15  C   UNL     1       2.942   6.380  19.807  0.00  0.00    +0.000 C 
BRANCH  15  16
ATOM     16  C   UNL     1       1.982   7.549  19.827  0.00  0.00    +0.000 A 
ATOM     17  C   UNL     1       1.967   8.495  18.804  0.00  0.00    +0.000 A 
ATOM     18  C   UNL     1       1.150   9.622  18.896  0.00  0.00    +0.000 A 
ATOM     19  C   UNL     1       0.322   9.830  20.007  0.00  0.00    +0.000 A 
ATOM     20  C   UNL     1       0.259   8.842  21.002  0.00  0.00    +0.000 A 
ATOM     21  C   UNL     1       1.095   7.716  20.903  0.00  0.00    +0.000 A 
BRANCH  19  22
ATOM     22  O   UNL     1      -0.442  10.962  20.127  0.00  0.00    +0.000 OA
ATOM     23  C   UNL     1      -0.273  11.933  19.098  0.00  0.00    +0.000 C 
ENDBRANCH  19  22
BRANCH  20  24
ATOM     24  O   UNL     1      -0.481   8.857  22.157  0.00  0.00    +0.000 OA
ATOM     25  C   UNL     1       0.052   9.564  23.270  0.00  0.00    +0.000 C 
ENDBRANCH  20  24
ENDBRANCH  15  16
ENDBRANCH   1  15
TORSDOF 8
ENDMDL
MODEL 9
REMARK VINA RESULT:      -6.5      2.008      6.587
REMARK  Name = 
REMARK  11 active torsions:
REMARK  status: ('A' for Active; 'I' for Inactive)
REMARK    1  A    between atoms: C_1  and  O_2
REMARK    2  A    between atoms: O_2  and  C_3
REMARK    3  A    between atoms: C_5  and  O_6
REMARK    4  A    between atoms: C_7  and  C_8
REMARK    5  A    between atoms: C_8  and  C_10
REMARK    6  A    between atoms: C_10  and  C_11
REMARK    7  A    between atoms: C_14  and  O_15
REMARK    8  A    between atoms: O_15  and  C_16
REMARK    9  A    between atoms: C_17  and  O_18
REMARK   10  A    between atoms: O_18  and  C_19
REMARK   11  A    between atoms: C_22  and  O_23
REMARK                            x       y       z     vdW  Elec       q    Type
REMARK                         _______ _______ _______ _____ _____    ______ ____
ROOT
ATOM      1  C   UNL     1       2.873   7.536  17.963  0.00  0.00    +0.000 C 
ATOM      2  O   UNL     1       2.039   8.331  17.528  0.00  0.00    +0.000 OA
ENDROOT
BRANCH   1   6
ATOM      3  C   UNL     1       1.431   3.961  19.901  0.00  0.00    +0.000 A 
ATOM      4  C   UNL     1       1.614   5.120  20.656  0.00  0.00    +0.000 A 
ATOM      5  C   UNL     1       2.076   6.291  20.051  0.00  0.00    +0.000 A 
ATOM      6  C   UNL     1       2.384   6.323  18.686  0.00  0.00    +0.000 A 
ATOM      7  C   UNL     1       2.254   5.141  17.940  0.00  0.00    +0.000 A 
ATOM      8  C   UNL     1       1.776   3.977  18.545  0.00  0.00    +0.000 A 
BRANCH   3  10
ATOM      9  C   UNL     1       1.444   2.453  21.723  0.00  0.00    +0.000 C 
ATOM     10  O   UNL     1       0.966   2.783  20.424  0.00  0.00    +0.000 OA
ENDBRANCH   3  10
BRANCH   5  11
ATOM     11  O   UNL     1       2.233   7.393  20.834  0.00  0.00    +0.000 OA
ATOM     12  H   UNL     1       1.517   7.464  21.488  0.00  0.00    +0.000 HD
ENDBRANCH   5  11
BRANCH   8  13
ATOM     13  O   UNL     1       1.620   2.837  17.803  0.00  0.00    +0.000 OA
ATOM     14  H   UNL     1       0.842   2.929  17.229  0.00  0.00    +0.000 HD
ENDBRANCH   8  13
ENDBRANCH   1   6
BRANCH   1  15
ATOM     15  C   UNL     1       4.366   7.802  17.817  0.00  0.00    +0.000 C 
BRANCH  15  16
ATOM     16  C   UNL     1       5.095   6.857  16.886  0.00  0.00    +0.000 A 
ATOM     17  C   UNL     1       4.704   6.700  15.558  0.00  0.00    +0.000 A 
ATOM     18  C   UNL     1       5.321   5.745  14.749  0.00  0.00    +0.000 A 
ATOM     19  C   UNL     1       6.347   4.929  15.241  0.00  0.00    +0.000 A 
ATOM     20  C   UNL     1       6.813   5.137  16.549  0.00  0.00    +0.000 A 
ATOM     21  C   UNL     1       6.176   6.095  17.358  0.00  0.00    +0.000 A 
BRANCH  19  22
ATOM     22  O   UNL     1       6.919   3.954  14.467  0.00  0.00    +0.000 OA
ATOM     23  C   UNL     1       6.253   3.670  13.239  0.00  0.00    +0.000 C 
ENDBRANCH  19  22
BRANCH  20  24
ATOM     24  O   UNL     1       7.797   4.449  17.212  0.00  0.00    +0.000 OA
ATOM     25  C   UNL     1       8.059   4.813  18.561  0.00  0.00    +0.000 C 
ENDBRANCH  20  24
ENDBRANCH  15  16
ENDBRANCH   1  15
TORSDOF 8
ENDMDL
