MODEL 1
REMARK VINA RESULT:      -8.6      0.000      0.000
REMARK  Name = 
REMARK  10 active torsions:
REMARK  status: ('A' for Active; 'I' for Inactive)
REMARK    1  A    between atoms: C_1  and  O_2
REMARK    2  A    between atoms: O_2  and  C_3
REMARK    3  A    between atoms: C_5  and  C_6
REMARK    4  A    between atoms: N_10  and  C_11
REMARK    5  A    between atoms: C_14  and  C_15
REMARK    6  A    between atoms: C_26  and  C_27
REMARK    7  A    between atoms: C_29  and  O_30
REMARK    8  A    between atoms: O_30  and  C_31
REMARK    9  A    between atoms: C_32  and  O_33
REMARK   10  A    between atoms: O_33  and  C_34
REMARK                            x       y       z     vdW  Elec       q    Type
REMARK                         _______ _______ _______ _____ _____    ______ ____
ROOT
ATOM      1  C   UNL     1      -0.629  12.938  18.877  0.00  0.00    +0.000 A 
ATOM      2  N   UNL     1      -0.443  14.248  18.821  0.00  0.00    +0.000 NA
ATOM      3  N   UNL     1       0.883  14.516  18.946  0.00  0.00    +0.000 NA
ATOM      4  C   UNL     1       1.493  13.370  19.095  0.00  0.00    +0.000 A 
ATOM      5  N   UNL     1       0.623  12.311  19.018  0.00  0.00    +0.000 N 
ENDROOT
BRANCH   5   6
ATOM      6  C   UNL     1       0.960  10.917  19.100  0.00  0.00    +0.000 A 
ATOM      7  C   UNL     1       1.557  10.284  17.992  0.00  0.00    +0.000 A 
ATOM      8  C   UNL     1       2.055   8.972  18.055  0.00  0.00    +0.000 A 
ATOM      9  C   UNL     1       1.896   8.213  19.211  0.00  0.00    +0.000 A 
ATOM     10  C   UNL     1       1.219   8.814  20.284  0.00  0.00    +0.000 A 
ATOM     11  C   UNL     1       0.749  10.147  20.264  0.00  0.00    +0.000 A 
ATOM     12  C   UNL     1       0.107  10.617  21.543  0.00  0.00    +0.000 C 
BRANCH   9  13
ATOM     13  C   UNL     1       2.376   6.828  19.388  0.00  0.00    +0.000 A 
ATOM     14  N   UNL     1       1.912   6.038  20.337  0.00  0.00    +0.000 NA
ATOM     15  C   UNL     1       2.542   4.815  20.315  0.00  0.00    +0.000 A 
ATOM     16  C   UNL     1       2.290   3.750  21.204  0.00  0.00    +0.000 A 
ATOM     17  C   UNL     1       3.017   2.563  21.084  0.00  0.00    +0.000 A 
ATOM     18  C   UNL     1       3.970   2.436  20.085  0.00  0.00    +0.000 A 
ATOM     19  F   UNL     1       4.669   1.295  19.989  0.00  0.00    +0.000 F 
ATOM     20  C   UNL     1       4.242   3.470  19.190  0.00  0.00    +0.000 A 
ATOM     21  C   UNL     1       3.509   4.662  19.323  0.00  0.00    +0.000 A 
ATOM     22  S   UNL     1       3.596   6.119  18.404  0.00  0.00    +0.000 S 
ENDBRANCH   9  13
ENDBRANCH   5   6
BRANCH   1  25
ATOM     23  C   UNL     1      -4.249  12.139  19.681  0.00  0.00    +0.000 A 
ATOM     24  C   UNL     1      -2.907  12.511  19.854  0.00  0.00    +0.000 A 
ATOM     25  C   UNL     1      -1.969  12.339  18.835  0.00  0.00    +0.000 A 
ATOM     26  C   UNL     1      -2.339  11.607  17.708  0.00  0.00    +0.000 A 
ATOM     27  C   UNL     1      -3.654  11.158  17.527  0.00  0.00    +0.000 A 
ATOM     28  C   UNL     1      -4.638  11.463  18.495  0.00  0.00    +0.000 A 
BRANCH  23  30
ATOM     29  C   UNL     1      -4.874  12.855  21.925  0.00  0.00    +0.000 C 
ATOM     30  O   UNL     1      -5.212  12.424  20.610  0.00  0.00    +0.000 OA
ENDBRANCH  23  30
BRANCH  27  31
ATOM     31  O   UNL     1      -3.784  10.489  16.337  0.00  0.00    +0.000 OA
ATOM     32  C   UNL     1      -2.635  10.193  15.561  0.00  0.00    +0.000 C 
ENDBRANCH  27  31
BRANCH  28  33
ATOM     33  O   UNL     1      -5.906  11.047  18.188  0.00  0.00    +0.000 OA
ATOM     34  C   UNL     1      -6.520   9.982  18.891  0.00  0.00    +0.000 C 
ENDBRANCH  28  33
ENDBRANCH   1  25
TORSDOF 6
ENDMDL
MODEL 2
REMARK VINA RESULT:      -8.3      1.024      2.440
REMARK  Name = 
REMARK  10 active torsions:
REMARK  status: ('A' for Active; 'I' for Inactive)
REMARK    1  A    between atoms: C_1  and  O_2
REMARK    2  A    between atoms: O_2  and  C_3
REMARK    3  A    between atoms: C_5  and  C_6
REMARK    4  A    between atoms: N_10  and  C_11
REMARK    5  A    between atoms: C_14  and  C_15
REMARK    6  A    between atoms: C_26  and  C_27
REMARK    7  A    between atoms: C_29  and  O_30
REMARK    8  A    between atoms: O_30  and  C_31
REMARK    9  A    between atoms: C_32  and  O_33
REMARK   10  A    between atoms: O_33  and  C_34
REMARK                            x       y       z     vdW  Elec       q    Type
REMARK                         _______ _______ _______ _____ _____    ______ ____
ROOT
ATOM      1  C   UNL     1      -0.025  12.898  19.192  0.00  0.00    +0.000 A 
ATOM      2  N   UNL     1       0.282  14.162  19.439  0.00  0.00    +0.000 NA
ATOM      3  N   UNL     1       1.596  14.246  19.775  0.00  0.00    +0.000 NA
ATOM      4  C   UNL     1       2.076  13.030  19.748  0.00  0.00    +0.000 A 
ATOM      5  N   UNL     1       1.136  12.115  19.344  0.00  0.00    +0.000 N 
ENDROOT
BRANCH   5   6
ATOM      6  C   UNL     1       1.334  10.703  19.167  0.00  0.00    +0.000 A 
ATOM      7  C   UNL     1       1.931  10.233  17.980  0.00  0.00    +0.000 A 
ATOM      8  C   UNL     1       2.298   8.889  17.806  0.00  0.00    +0.000 A 
ATOM      9  C   UNL     1       2.003   7.945  18.786  0.00  0.00    +0.000 A 
ATOM     10  C   UNL     1       1.325   8.399  19.929  0.00  0.00    +0.000 A 
ATOM     11  C   UNL     1       0.985   9.753  20.150  0.00  0.00    +0.000 A 
ATOM     12  C   UNL     1       0.318  10.037  21.471  0.00  0.00    +0.000 C 
BRANCH   9  13
ATOM     13  C   UNL     1       2.339   6.509  18.709  0.00  0.00    +0.000 A 
ATOM     14  N   UNL     1       1.636   5.588  19.338  0.00  0.00    +0.000 NA
ATOM     15  C   UNL     1       2.171   4.335  19.138  0.00  0.00    +0.000 A 
ATOM     16  C   UNL     1       1.668   3.136  19.683  0.00  0.00    +0.000 A 
ATOM     17  C   UNL     1       2.320   1.929  19.415  0.00  0.00    +0.000 A 
ATOM     18  C   UNL     1       3.447   1.919  18.607  0.00  0.00    +0.000 A 
ATOM     19  F   UNL     1       4.069   0.755  18.368  0.00  0.00    +0.000 F 
ATOM     20  C   UNL     1       3.967   3.087  18.052  0.00  0.00    +0.000 A 
ATOM     21  C   UNL     1       3.308   4.296  18.332  0.00  0.00    +0.000 A 
ATOM     22  S   UNL     1       3.682   5.901  17.823  0.00  0.00    +0.000 S 
ENDBRANCH   9  13
ENDBRANCH   5   6
BRANCH   1  25
ATOM     23  C   UNL     1      -2.963  11.145  17.554  0.00  0.00    +0.000 A 
ATOM     24  C   UNL     1      -1.703  11.742  17.719  0.00  0.00    +0.000 A 
ATOM     25  C   UNL     1      -1.392  12.477  18.865  0.00  0.00    +0.000 A 
ATOM     26  C   UNL     1      -2.418  12.779  19.758  0.00  0.00    +0.000 A 
ATOM     27  C   UNL     1      -3.708  12.259  19.594  0.00  0.00    +0.000 A 
ATOM     28  C   UNL     1      -3.982  11.393  18.511  0.00  0.00    +0.000 A 
BRANCH  23  30
ATOM     29  C   UNL     1      -3.293  10.782  15.167  0.00  0.00    +0.000 C 
ATOM     30  O   UNL     1      -3.243  10.308  16.509  0.00  0.00    +0.000 OA
ENDBRANCH  23  30
BRANCH  27  31
ATOM     31  O   UNL     1      -4.536  12.672  20.607  0.00  0.00    +0.000 OA
ATOM     32  C   UNL     1      -4.925  14.032  20.694  0.00  0.00    +0.000 C 
ENDBRANCH  27  31
BRANCH  28  33
ATOM     33  O   UNL     1      -5.250  10.878  18.482  0.00  0.00    +0.000 OA
ATOM     34  C   UNL     1      -6.312  11.573  17.855  0.00  0.00    +0.000 C 
ENDBRANCH  28  33
ENDBRANCH   1  25
TORSDOF 6
ENDMDL
MODEL 3
REMARK VINA RESULT:      -8.2      1.087      1.171
REMARK  Name = 
REMARK  10 active torsions:
REMARK  status: ('A' for Active; 'I' for Inactive)
REMARK    1  A    between atoms: C_1  and  O_2
REMARK    2  A    between atoms: O_2  and  C_3
REMARK    3  A    between atoms: C_5  and  C_6
REMARK    4  A    between atoms: N_10  and  C_11
REMARK    5  A    between atoms: C_14  and  C_15
REMARK    6  A    between atoms: C_26  and  C_27
REMARK    7  A    between atoms: C_29  and  O_30
REMARK    8  A    between atoms: O_30  and  C_31
REMARK    9  A    between atoms: C_32  and  O_33
REMARK   10  A    between atoms: O_33  and  C_34
REMARK                            x       y       z     vdW  Elec       q    Type
REMARK                         _______ _______ _______ _____ _____    ______ ____
ROOT
ATOM      1  C   UNL     1      -1.125  13.081  20.244  0.00  0.00    +0.000 A 
ATOM      2  N   UNL     1      -0.979  14.372  20.500  0.00  0.00    +0.000 NA
ATOM      3  N   UNL     1       0.284  14.601  20.943  0.00  0.00    +0.000 NA
ATOM      4  C   UNL     1       0.895  13.445  20.971  0.00  0.00    +0.000 A 
ATOM      5  N   UNL     1       0.098  12.432  20.501  0.00  0.00    +0.000 N 
ENDROOT
BRANCH   5   6
ATOM      6  C   UNL     1       0.463  11.049  20.358  0.00  0.00    +0.000 A 
ATOM      7  C   UNL     1       1.064  10.614  19.160  0.00  0.00    +0.000 A 
ATOM      8  C   UNL     1       1.588   9.320  19.011  0.00  0.00    +0.000 A 
ATOM      9  C   UNL     1       1.454   8.383  20.032  0.00  0.00    +0.000 A 
ATOM     10  C   UNL     1       0.774   8.790  21.190  0.00  0.00    +0.000 A 
ATOM     11  C   UNL     1       0.277  10.099  21.385  0.00  0.00    +0.000 A 
ATOM     12  C   UNL     1      -0.364  10.346  22.726  0.00  0.00    +0.000 C 
BRANCH   9  13
ATOM     13  C   UNL     1       1.963   6.998  19.983  0.00  0.00    +0.000 A 
ATOM     14  N   UNL     1       1.625   6.092  20.880  0.00  0.00    +0.000 NA
ATOM     15  C   UNL     1       2.258   4.894  20.637  0.00  0.00    +0.000 A 
ATOM     16  C   UNL     1       2.125   3.727  21.416  0.00  0.00    +0.000 A 
ATOM     17  C   UNL     1       2.841   2.579  21.068  0.00  0.00    +0.000 A 
ATOM     18  C   UNL     1       3.666   2.591  19.953  0.00  0.00    +0.000 A 
ATOM     19  F   UNL     1       4.356   1.486  19.638  0.00  0.00    +0.000 F 
ATOM     20  C   UNL     1       3.817   3.729  19.162  0.00  0.00    +0.000 A 
ATOM     21  C   UNL     1       3.097   4.880  19.523  0.00  0.00    +0.000 A 
ATOM     22  S   UNL     1       3.058   6.437  18.780  0.00  0.00    +0.000 S 
ENDBRANCH   9  13
ENDBRANCH   5   6
BRANCH   1  25
ATOM     23  C   UNL     1      -4.822  12.257  20.042  0.00  0.00    +0.000 A 
ATOM     24  C   UNL     1      -3.567  12.585  20.579  0.00  0.00    +0.000 A 
ATOM     25  C   UNL     1      -2.406  12.511  19.808  0.00  0.00    +0.000 A 
ATOM     26  C   UNL     1      -2.480  11.914  18.551  0.00  0.00    +0.000 A 
ATOM     27  C   UNL     1      -3.704  11.510  18.005  0.00  0.00    +0.000 A 
ATOM     28  C   UNL     1      -4.899  11.722  18.729  0.00  0.00    +0.000 A 
BRANCH  23  30
ATOM     29  C   UNL     1      -6.450  13.761  21.053  0.00  0.00    +0.000 C 
ATOM     30  O   UNL     1      -5.986  12.454  20.733  0.00  0.00    +0.000 OA
ENDBRANCH  23  30
BRANCH  27  31
ATOM     31  O   UNL     1      -3.530  10.977  16.753  0.00  0.00    +0.000 OA
ATOM     32  C   UNL     1      -2.621   9.908  16.558  0.00  0.00    +0.000 C 
ENDBRANCH  27  31
BRANCH  28  33
ATOM     33  O   UNL     1      -6.048  11.362  18.077  0.00  0.00    +0.000 OA
ATOM     34  C   UNL     1      -6.867  12.328  17.444  0.00  0.00    +0.000 C 
ENDBRANCH  28  33
ENDBRANCH   1  25
TORSDOF 6
ENDMDL
MODEL 4
REMARK VINA RESULT:      -8.0      1.168      1.502
REMARK  Name = 
REMARK  10 active torsions:
REMARK  status: ('A' for Active; 'I' for Inactive)
REMARK    1  A    between atoms: C_1  and  O_2
REMARK    2  A    between atoms: O_2  and  C_3
REMARK    3  A    between atoms: C_5  and  C_6
REMARK    4  A    between atoms: N_10  and  C_11
REMARK    5  A    between atoms: C_14  and  C_15
REMARK    6  A    between atoms: C_26  and  C_27
REMARK    7  A    between atoms: C_29  and  O_30
REMARK    8  A    between atoms: O_30  and  C_31
REMARK    9  A    between atoms: C_32  and  O_33
REMARK   10  A    between atoms: O_33  and  C_34
REMARK                            x       y       z     vdW  Elec       q    Type
REMARK                         _______ _______ _______ _____ _____    ______ ____
ROOT
ATOM      1  C   UNL     1      -0.900  13.104  20.006  0.00  0.00    +0.000 A 
ATOM      2  N   UNL     1      -0.732  14.387  20.288  0.00  0.00    +0.000 NA
ATOM      3  N   UNL     1       0.570  14.610  20.602  0.00  0.00    +0.000 NA
ATOM      4  C   UNL     1       1.185  13.458  20.526  0.00  0.00    +0.000 A 
ATOM      5  N   UNL     1       0.345  12.455  20.110  0.00  0.00    +0.000 N 
ENDROOT
BRANCH   5   6
ATOM      6  C   UNL     1       0.698  11.081  19.883  0.00  0.00    +0.000 A 
ATOM      7  C   UNL     1       1.220  10.699  18.631  0.00  0.00    +0.000 A 
ATOM      8  C   UNL     1       1.732   9.413  18.392  0.00  0.00    +0.000 A 
ATOM      9  C   UNL     1       1.661   8.432  19.377  0.00  0.00    +0.000 A 
ATOM     10  C   UNL     1       1.057   8.788  20.593  0.00  0.00    +0.000 A 
ATOM     11  C   UNL     1       0.575  10.086  20.877  0.00  0.00    +0.000 A 
ATOM     12  C   UNL     1       0.022  10.272  22.266  0.00  0.00    +0.000 C 
BRANCH   9  13
ATOM     13  C   UNL     1       2.163   7.051  19.235  0.00  0.00    +0.000 A 
ATOM     14  N   UNL     1       2.786   6.637  18.149  0.00  0.00    +0.000 NA
ATOM     15  C   UNL     1       3.121   5.306  18.247  0.00  0.00    +0.000 A 
ATOM     16  C   UNL     1       3.782   4.554  17.254  0.00  0.00    +0.000 A 
ATOM     17  C   UNL     1       4.046   3.200  17.474  0.00  0.00    +0.000 A 
ATOM     18  C   UNL     1       3.670   2.610  18.672  0.00  0.00    +0.000 A 
ATOM     19  F   UNL     1       3.920   1.306  18.865  0.00  0.00    +0.000 F 
ATOM     20  C   UNL     1       3.017   3.326  19.674  0.00  0.00    +0.000 A 
ATOM     21  C   UNL     1       2.751   4.686  19.440  0.00  0.00    +0.000 A 
ATOM     22  S   UNL     1       1.965   5.846  20.447  0.00  0.00    +0.000 S 
ENDBRANCH   9  13
ENDBRANCH   5   6
BRANCH   1  25
ATOM     23  C   UNL     1      -4.640  12.475  19.980  0.00  0.00    +0.000 A 
ATOM     24  C   UNL     1      -3.361  12.823  20.440  0.00  0.00    +0.000 A 
ATOM     25  C   UNL     1      -2.218  12.541  19.690  0.00  0.00    +0.000 A 
ATOM     26  C   UNL     1      -2.346  11.728  18.565  0.00  0.00    +0.000 A 
ATOM     27  C   UNL     1      -3.600  11.302  18.110  0.00  0.00    +0.000 A 
ATOM     28  C   UNL     1      -4.769  11.714  18.789  0.00  0.00    +0.000 A 
BRANCH  23  30
ATOM     29  C   UNL     1      -5.809  13.045  22.041  0.00  0.00    +0.000 C 
ATOM     30  O   UNL     1      -5.781  12.864  20.629  0.00  0.00    +0.000 OA
ENDBRANCH  23  30
BRANCH  27  31
ATOM     31  O   UNL     1      -3.477  10.539  16.976  0.00  0.00    +0.000 OA
ATOM     32  C   UNL     1      -2.213  10.012  16.611  0.00  0.00    +0.000 C 
ENDBRANCH  27  31
BRANCH  28  33
ATOM     33  O   UNL     1      -5.947  11.309  18.220  0.00  0.00    +0.000 OA
ATOM     34  C   UNL     1      -6.698  10.241  18.768  0.00  0.00    +0.000 C 
ENDBRANCH  28  33
ENDBRANCH   1  25
TORSDOF 6
ENDMDL
MODEL 5
REMARK VINA RESULT:      -8.0      1.254      2.540
REMARK  Name = 
REMARK  10 active torsions:
REMARK  status: ('A' for Active; 'I' for Inactive)
REMARK    1  A    between atoms: C_1  and  O_2
REMARK    2  A    between atoms: O_2  and  C_3
REMARK    3  A    between atoms: C_5  and  C_6
REMARK    4  A    between atoms: N_10  and  C_11
REMARK    5  A    between atoms: C_14  and  C_15
REMARK    6  A    between atoms: C_26  and  C_27
REMARK    7  A    between atoms: C_29  and  O_30
REMARK    8  A    between atoms: O_30  and  C_31
REMARK    9  A    between atoms: C_32  and  O_33
REMARK   10  A    between atoms: O_33  and  C_34
REMARK                            x       y       z     vdW  Elec       q    Type
REMARK                         _______ _______ _______ _____ _____    ______ ____
ROOT
ATOM      1  C   UNL     1      -1.423  13.153  20.457  0.00  0.00    +0.000 A 
ATOM      2  N   UNL     1      -1.347  14.413  20.860  0.00  0.00    +0.000 NA
ATOM      3  N   UNL     1      -0.189  14.594  21.546  0.00  0.00    +0.000 NA
ATOM      4  C   UNL     1       0.425  13.440  21.571  0.00  0.00    +0.000 A 
ATOM      5  N   UNL     1      -0.257  12.479  20.868  0.00  0.00    +0.000 N 
ENDROOT
BRANCH   5   6
ATOM      6  C   UNL     1       0.150  11.117  20.659  0.00  0.00    +0.000 A 
ATOM      7  C   UNL     1       0.788  10.764  19.453  0.00  0.00    +0.000 A 
ATOM      8  C   UNL     1       1.353   9.494  19.247  0.00  0.00    +0.000 A 
ATOM      9  C   UNL     1       1.224   8.500  20.213  0.00  0.00    +0.000 A 
ATOM     10  C   UNL     1       0.508   8.826  21.376  0.00  0.00    +0.000 A 
ATOM     11  C   UNL     1      -0.031  10.108  21.629  0.00  0.00    +0.000 A 
ATOM     12  C   UNL     1      -0.707  10.264  22.966  0.00  0.00    +0.000 C 
BRANCH   9  13
ATOM     13  C   UNL     1       1.773   7.134  20.102  0.00  0.00    +0.000 A 
ATOM     14  N   UNL     1       1.466   6.181  20.959  0.00  0.00    +0.000 NA
ATOM     15  C   UNL     1       2.133   5.014  20.661  0.00  0.00    +0.000 A 
ATOM     16  C   UNL     1       2.037   3.810  21.389  0.00  0.00    +0.000 A 
ATOM     17  C   UNL     1       2.785   2.700  20.989  0.00  0.00    +0.000 A 
ATOM     18  C   UNL     1       3.604   2.786  19.872  0.00  0.00    +0.000 A 
ATOM     19  F   UNL     1       4.325   1.716  19.507  0.00  0.00    +0.000 F 
ATOM     20  C   UNL     1       3.719   3.961  19.131  0.00  0.00    +0.000 A 
ATOM     21  C   UNL     1       2.966   5.073  19.546  0.00  0.00    +0.000 A 
ATOM     22  S   UNL     1       2.879   6.660  18.872  0.00  0.00    +0.000 S 
ENDBRANCH   9  13
ENDBRANCH   5   6
BRANCH   1  25
ATOM     23  C   UNL     1      -3.609  11.113  18.124  0.00  0.00    +0.000 A 
ATOM     24  C   UNL     1      -2.491  11.789  18.634  0.00  0.00    +0.000 A 
ATOM     25  C   UNL     1      -2.594  12.632  19.742  0.00  0.00    +0.000 A 
ATOM     26  C   UNL     1      -3.865  12.950  20.217  0.00  0.00    +0.000 A 
ATOM     27  C   UNL     1      -5.015  12.348  19.690  0.00  0.00    +0.000 A 
ATOM     28  C   UNL     1      -4.893  11.382  18.666  0.00  0.00    +0.000 A 
BRANCH  23  30
ATOM     29  C   UNL     1      -3.078  10.528  15.819  0.00  0.00    +0.000 C 
ATOM     30  O   UNL     1      -3.508  10.178  17.130  0.00  0.00    +0.000 OA
ENDBRANCH  23  30
BRANCH  27  31
ATOM     31  O   UNL     1      -6.141  12.797  20.333  0.00  0.00    +0.000 OA
ATOM     32  C   UNL     1      -6.678  14.070  20.016  0.00  0.00    +0.000 C 
ENDBRANCH  27  31
BRANCH  28  33
ATOM     33  O   UNL     1      -6.068  10.797  18.274  0.00  0.00    +0.000 OA
ATOM     34  C   UNL     1      -6.663   9.761  19.034  0.00  0.00    +0.000 C 
ENDBRANCH  28  33
ENDBRANCH   1  25
TORSDOF 6
ENDMDL
MODEL 6
REMARK VINA RESULT:      -7.9      1.258      2.739
REMARK  Name = 
REMARK  10 active torsions:
REMARK  status: ('A' for Active; 'I' for Inactive)
REMARK    1  A    between atoms: C_1  and  O_2
REMARK    2  A    between atoms: O_2  and  C_3
REMARK    3  A    between atoms: C_5  and  C_6
REMARK    4  A    between atoms: N_10  and  C_11
REMARK    5  A    between atoms: C_14  and  C_15
REMARK    6  A    between atoms: C_26  and  C_27
REMARK    7  A    between atoms: C_29  and  O_30
REMARK    8  A    between atoms: O_30  and  C_31
REMARK    9  A    between atoms: C_32  and  O_33
REMARK   10  A    between atoms: O_33  and  C_34
REMARK                            x       y       z     vdW  Elec       q    Type
REMARK                         _______ _______ _______ _____ _____    ______ ____
ROOT
ATOM      1  C   UNL     1      -0.476  13.084  19.956  0.00  0.00    +0.000 A 
ATOM      2  N   UNL     1      -0.258  14.328  20.352  0.00  0.00    +0.000 NA
ATOM      3  N   UNL     1       0.990  14.416  20.882  0.00  0.00    +0.000 NA
ATOM      4  C   UNL     1       1.517  13.221  20.821  0.00  0.00    +0.000 A 
ATOM      5  N   UNL     1       0.681  12.322  20.207  0.00  0.00    +0.000 N 
ENDROOT
BRANCH   5   6
ATOM      6  C   UNL     1       0.958  10.937  19.940  0.00  0.00    +0.000 A 
ATOM      7  C   UNL     1       1.488  10.568  18.687  0.00  0.00    +0.000 A 
ATOM      8  C   UNL     1       1.928   9.263  18.414  0.00  0.00    +0.000 A 
ATOM      9  C   UNL     1       1.776   8.255  19.362  0.00  0.00    +0.000 A 
ATOM     10  C   UNL     1       1.163   8.604  20.576  0.00  0.00    +0.000 A 
ATOM     11  C   UNL     1       0.752   9.919  20.895  0.00  0.00    +0.000 A 
ATOM     12  C   UNL     1       0.176  10.090  22.276  0.00  0.00    +0.000 C 
BRANCH   9  13
ATOM     13  C   UNL     1       2.199   6.852  19.182  0.00  0.00    +0.000 A 
ATOM     14  N   UNL     1       2.840   6.443  18.105  0.00  0.00    +0.000 NA
ATOM     15  C   UNL     1       3.089   5.090  18.161  0.00  0.00    +0.000 A 
ATOM     16  C   UNL     1       3.743   4.338  17.164  0.00  0.00    +0.000 A 
ATOM     17  C   UNL     1       3.917   2.963  17.339  0.00  0.00    +0.000 A 
ATOM     18  C   UNL     1       3.458   2.351  18.496  0.00  0.00    +0.000 A 
ATOM     19  F   UNL     1       3.621   1.028  18.644  0.00  0.00    +0.000 F 
ATOM     20  C   UNL     1       2.809   3.067  19.500  0.00  0.00    +0.000 A 
ATOM     21  C   UNL     1       2.635   4.449  19.312  0.00  0.00    +0.000 A 
ATOM     22  S   UNL     1       1.880   5.616  20.335  0.00  0.00    +0.000 S 
ENDBRANCH   9  13
ENDBRANCH   5   6
BRANCH   1  25
ATOM     23  C   UNL     1      -3.082  11.516  17.690  0.00  0.00    +0.000 A 
ATOM     24  C   UNL     1      -1.897  12.138  18.109  0.00  0.00    +0.000 A 
ATOM     25  C   UNL     1      -1.766  12.658  19.398  0.00  0.00    +0.000 A 
ATOM     26  C   UNL     1      -2.900  12.728  20.203  0.00  0.00    +0.000 A 
ATOM     27  C   UNL     1      -4.122  12.179  19.796  0.00  0.00    +0.000 A 
ATOM     28  C   UNL     1      -4.213  11.521  18.548  0.00  0.00    +0.000 A 
BRANCH  23  30
ATOM     29  C   UNL     1      -2.471   9.678  16.211  0.00  0.00    +0.000 C 
ATOM     30  O   UNL     1      -3.186  10.878  16.483  0.00  0.00    +0.000 OA
ENDBRANCH  23  30
BRANCH  27  31
ATOM     31  O   UNL     1      -5.081  12.345  20.763  0.00  0.00    +0.000 OA
ATOM     32  C   UNL     1      -4.756  12.996  21.979  0.00  0.00    +0.000 C 
ENDBRANCH  27  31
BRANCH  28  33
ATOM     33  O   UNL     1      -5.428  10.951  18.277  0.00  0.00    +0.000 OA
ATOM     34  C   UNL     1      -6.501  11.719  17.763  0.00  0.00    +0.000 C 
ENDBRANCH  28  33
ENDBRANCH   1  25
TORSDOF 6
ENDMDL
MODEL 7
REMARK VINA RESULT:      -7.8      5.771     10.362
REMARK  Name = 
REMARK  10 active torsions:
REMARK  status: ('A' for Active; 'I' for Inactive)
REMARK    1  A    between atoms: C_1  and  O_2
REMARK    2  A    between atoms: O_2  and  C_3
REMARK    3  A    between atoms: C_5  and  C_6
REMARK    4  A    between atoms: N_10  and  C_11
REMARK    5  A    between atoms: C_14  and  C_15
REMARK    6  A    between atoms: C_26  and  C_27
REMARK    7  A    between atoms: C_29  and  O_30
REMARK    8  A    between atoms: O_30  and  C_31
REMARK    9  A    between atoms: C_32  and  O_33
REMARK   10  A    between atoms: O_33  and  C_34
REMARK                            x       y       z     vdW  Elec       q    Type
REMARK                         _______ _______ _______ _____ _____    ______ ____
ROOT
ATOM      1  C   UNL     1       3.794   3.422  17.814  0.00  0.00    +0.000 A 
ATOM      2  N   UNL     1       3.665   2.148  17.477  0.00  0.00    +0.000 NA
ATOM      3  N   UNL     1       2.485   1.676  17.957  0.00  0.00    +0.000 NA
ATOM      4  C   UNL     1       1.911   2.661  18.598  0.00  0.00    +0.000 A 
ATOM      5  N   UNL     1       2.643   3.819  18.521  0.00  0.00    +0.000 N 
ENDROOT
BRANCH   5   6
ATOM      6  C   UNL     1       2.288   5.096  19.076  0.00  0.00    +0.000 A 
ATOM      7  C   UNL     1       2.286   6.234  18.245  0.00  0.00    +0.000 A 
ATOM      8  C   UNL     1       1.800   7.478  18.678  0.00  0.00    +0.000 A 
ATOM      9  C   UNL     1       1.375   7.650  19.993  0.00  0.00    +0.000 A 
ATOM     10  C   UNL     1       1.465   6.539  20.846  0.00  0.00    +0.000 A 
ATOM     11  C   UNL     1       1.906   5.264  20.425  0.00  0.00    +0.000 A 
ATOM     12  C   UNL     1       1.864   4.192  21.482  0.00  0.00    +0.000 C 
BRANCH   9  13
ATOM     13  C   UNL     1       0.850   8.910  20.556  0.00  0.00    +0.000 A 
ATOM     14  N   UNL     1       0.151   8.944  21.673  0.00  0.00    +0.000 NA
ATOM     15  C   UNL     1      -0.254  10.227  21.965  0.00  0.00    +0.000 A 
ATOM     16  C   UNL     1      -1.028  10.605  23.081  0.00  0.00    +0.000 A 
ATOM     17  C   UNL     1      -1.387  11.944  23.251  0.00  0.00    +0.000 A 
ATOM     18  C   UNL     1      -0.968  12.893  22.330  0.00  0.00    +0.000 A 
ATOM     19  F   UNL     1      -1.330  14.173  22.499  0.00  0.00    +0.000 F 
ATOM     20  C   UNL     1      -0.200  12.551  21.218  0.00  0.00    +0.000 A 
ATOM     21  C   UNL     1       0.150  11.200  21.053  0.00  0.00    +0.000 A 
ATOM     22  S   UNL     1       1.071  10.442  19.805  0.00  0.00    +0.000 S 
ENDBRANCH   9  13
ENDBRANCH   5   6
BRANCH   1  25
ATOM     23  C   UNL     1       6.426   5.364  15.893  0.00  0.00    +0.000 A 
ATOM     24  C   UNL     1       5.423   4.426  16.182  0.00  0.00    +0.000 A 
ATOM     25  C   UNL     1       4.999   4.196  17.492  0.00  0.00    +0.000 A 
ATOM     26  C   UNL     1       5.726   4.767  18.534  0.00  0.00    +0.000 A 
ATOM     27  C   UNL     1       6.779   5.657  18.290  0.00  0.00    +0.000 A 
ATOM     28  C   UNL     1       7.110   6.003  16.960  0.00  0.00    +0.000 A 
BRANCH  23  30
ATOM     29  C   UNL     1       7.045   4.718  13.627  0.00  0.00    +0.000 C 
ATOM     30  O   UNL     1       6.759   5.707  14.611  0.00  0.00    +0.000 OA
ENDBRANCH  23  30
BRANCH  27  31
ATOM     31  O   UNL     1       7.323   6.108  19.466  0.00  0.00    +0.000 OA
ATOM     32  C   UNL     1       8.403   5.410  20.061  0.00  0.00    +0.000 C 
ENDBRANCH  27  31
BRANCH  28  33
ATOM     33  O   UNL     1       8.102   6.938  16.831  0.00  0.00    +0.000 OA
ATOM     34  C   UNL     1       7.969   8.233  17.388  0.00  0.00    +0.000 C 
ENDBRANCH  28  33
ENDBRANCH   1  25
TORSDOF 6
ENDMDL
MODEL 8
REMARK VINA RESULT:      -7.8      5.704     10.410
REMARK  Name = 
REMARK  10 active torsions:
REMARK  status: ('A' for Active; 'I' for Inactive)
REMARK    1  A    between atoms: C_1  and  O_2
REMARK    2  A    between atoms: O_2  and  C_3
REMARK    3  A    between atoms: C_5  and  C_6
REMARK    4  A    between atoms: N_10  and  C_11
REMARK    5  A    between atoms: C_14  and  C_15
REMARK    6  A    between atoms: C_26  and  C_27
REMARK    7  A    between atoms: C_29  and  O_30
REMARK    8  A    between atoms: O_30  and  C_31
REMARK    9  A    between atoms: C_32  and  O_33
REMARK   10  A    between atoms: O_33  and  C_34
REMARK                            x       y       z     vdW  Elec       q    Type
REMARK                         _______ _______ _______ _____ _____    ______ ____
ROOT
ATOM      1  C   UNL     1       3.904   3.335  17.915  0.00  0.00    +0.000 A 
ATOM      2  N   UNL     1       3.816   2.056  17.580  0.00  0.00    +0.000 NA
ATOM      3  N   UNL     1       2.681   1.532  18.111  0.00  0.00    +0.000 NA
ATOM      4  C   UNL     1       2.093   2.490  18.780  0.00  0.00    +0.000 A 
ATOM      5  N   UNL     1       2.769   3.679  18.674  0.00  0.00    +0.000 N 
ENDROOT
BRANCH   5   6
ATOM      6  C   UNL     1       2.384   4.939  19.249  0.00  0.00    +0.000 A 
ATOM      7  C   UNL     1       2.400   6.097  18.446  0.00  0.00    +0.000 A 
ATOM      8  C   UNL     1       1.888   7.326  18.894  0.00  0.00    +0.000 A 
ATOM      9  C   UNL     1       1.417   7.462  20.196  0.00  0.00    +0.000 A 
ATOM     10  C   UNL     1       1.487   6.330  21.024  0.00  0.00    +0.000 A 
ATOM     11  C   UNL     1       1.954   5.069  20.587  0.00  0.00    +0.000 A 
ATOM     12  C   UNL     1       1.886   3.971  21.615  0.00  0.00    +0.000 C 
BRANCH   9  13
ATOM     13  C   UNL     1       0.861   8.702  20.772  0.00  0.00    +0.000 A 
ATOM     14  N   UNL     1       1.166   9.895  20.300  0.00  0.00    +0.000 NA
ATOM     15  C   UNL     1       0.550  10.888  21.028  0.00  0.00    +0.000 A 
ATOM     16  C   UNL     1       0.678  12.273  20.794  0.00  0.00    +0.000 A 
ATOM     17  C   UNL     1       0.011  13.178  21.623  0.00  0.00    +0.000 A 
ATOM     18  C   UNL     1      -0.782  12.709  22.659  0.00  0.00    +0.000 A 
ATOM     19  F   UNL     1      -1.407  13.590  23.454  0.00  0.00    +0.000 F 
ATOM     20  C   UNL     1      -0.931  11.347  22.916  0.00  0.00    +0.000 A 
ATOM     21  C   UNL     1      -0.251  10.445  22.080  0.00  0.00    +0.000 A 
ATOM     22  S   UNL     1      -0.209   8.720  22.120  0.00  0.00    +0.000 S 
ENDBRANCH   9  13
ENDBRANCH   5   6
BRANCH   1  25
ATOM     23  C   UNL     1       6.358   5.393  15.884  0.00  0.00    +0.000 A 
ATOM     24  C   UNL     1       5.411   4.412  16.214  0.00  0.00    +0.000 A 
ATOM     25  C   UNL     1       5.058   4.161  17.541  0.00  0.00    +0.000 A 
ATOM     26  C   UNL     1       5.805   4.763  18.552  0.00  0.00    +0.000 A 
ATOM     27  C   UNL     1       6.806   5.699  18.263  0.00  0.00    +0.000 A 
ATOM     28  C   UNL     1       7.060   6.061  16.921  0.00  0.00    +0.000 A 
BRANCH  23  30
ATOM     29  C   UNL     1       7.112   4.811  13.640  0.00  0.00    +0.000 C 
ATOM     30  O   UNL     1       6.618   5.752  14.589  0.00  0.00    +0.000 OA
ENDBRANCH  23  30
BRANCH  27  31
ATOM     31  O   UNL     1       7.382   6.173  19.415  0.00  0.00    +0.000 OA
ATOM     32  C   UNL     1       8.292   5.361  20.137  0.00  0.00    +0.000 C 
ENDBRANCH  27  31
BRANCH  28  33
ATOM     33  O   UNL     1       8.003   7.039  16.749  0.00  0.00    +0.000 OA
ATOM     34  C   UNL     1       7.907   8.279  17.426  0.00  0.00    +0.000 C 
ENDBRANCH  28  33
ENDBRANCH   1  25
TORSDOF 6
ENDMDL
MODEL 9
REMARK VINA RESULT:      -7.8      1.619      2.141
REMARK  Name = 
REMARK  10 active torsions:
REMARK  status: ('A' for Active; 'I' for Inactive)
REMARK    1  A    between atoms: C_1  and  O_2
REMARK    2  A    between atoms: O_2  and  C_3
REMARK    3  A    between atoms: C_5  and  C_6
REMARK    4  A    between atoms: N_10  and  C_11
REMARK    5  A    between atoms: C_14  and  C_15
REMARK    6  A    between atoms: C_26  and  C_27
REMARK    7  A    between atoms: C_29  and  O_30
REMARK    8  A    between atoms: O_30  and  C_31
REMARK    9  A    between atoms: C_32  and  O_33
REMARK   10  A    between atoms: O_33  and  C_34
REMARK                            x       y       z     vdW  Elec       q    Type
REMARK                         _______ _______ _______ _____ _____    ______ ____
ROOT
ATOM      1  C   UNL     1      -1.574  13.660  21.383  0.00  0.00    +0.000 A 
ATOM      2  N   UNL     1      -1.445  14.920  21.768  0.00  0.00    +0.000 NA
ATOM      3  N   UNL     1      -0.131  15.190  21.978  0.00  0.00    +0.000 NA
ATOM      4  C   UNL     1       0.530  14.088  21.738  0.00  0.00    +0.000 A 
ATOM      5  N   UNL     1      -0.294  13.078  21.309  0.00  0.00    +0.000 N 
ENDROOT
BRANCH   5   6
ATOM      6  C   UNL     1       0.103  11.753  20.922  0.00  0.00    +0.000 A 
ATOM      7  C   UNL     1       0.737  11.557  19.679  0.00  0.00    +0.000 A 
ATOM      8  C   UNL     1       1.292  10.322  19.307  0.00  0.00    +0.000 A 
ATOM      9  C   UNL     1       1.157   9.210  20.133  0.00  0.00    +0.000 A 
ATOM     10  C   UNL     1       0.444   9.385  21.330  0.00  0.00    +0.000 A 
ATOM     11  C   UNL     1      -0.085  10.626  21.751  0.00  0.00    +0.000 A 
ATOM     12  C   UNL     1      -0.758  10.609  23.099  0.00  0.00    +0.000 C 
BRANCH   9  13
ATOM     13  C   UNL     1       1.696   7.867  19.842  0.00  0.00    +0.000 A 
ATOM     14  N   UNL     1       1.570   6.860  20.685  0.00  0.00    +0.000 NA
ATOM     15  C   UNL     1       2.186   5.729  20.200  0.00  0.00    +0.000 A 
ATOM     16  C   UNL     1       2.248   4.485  20.861  0.00  0.00    +0.000 A 
ATOM     17  C   UNL     1       2.924   3.418  20.264  0.00  0.00    +0.000 A 
ATOM     18  C   UNL     1       3.516   3.586  19.021  0.00  0.00    +0.000 A 
ATOM     19  F   UNL     1       4.171   2.556  18.465  0.00  0.00    +0.000 F 
ATOM     20  C   UNL     1       3.470   4.802  18.341  0.00  0.00    +0.000 A 
ATOM     21  C   UNL     1       2.793   5.870  18.953  0.00  0.00    +0.000 A 
ATOM     22  S   UNL     1       2.556   7.488  18.401  0.00  0.00    +0.000 S 
ENDBRANCH   9  13
ENDBRANCH   5   6
BRANCH   1  25
ATOM     23  C   UNL     1      -5.173  12.548  21.833  0.00  0.00    +0.000 A 
ATOM     24  C   UNL     1      -3.850  12.903  22.140  0.00  0.00    +0.000 A 
ATOM     25  C   UNL     1      -2.887  13.049  21.140  0.00  0.00    +0.000 A 
ATOM     26  C   UNL     1      -3.207  12.643  19.846  0.00  0.00    +0.000 A 
ATOM     27  C   UNL     1      -4.498  12.217  19.511  0.00  0.00    +0.000 A 
ATOM     28  C   UNL     1      -5.512  12.211  20.496  0.00  0.00    +0.000 A 
BRANCH  23  30
ATOM     29  C   UNL     1      -5.892  12.818  24.145  0.00  0.00    +0.000 C 
ATOM     30  O   UNL     1      -6.163  12.534  22.777  0.00  0.00    +0.000 OA
ENDBRANCH  23  30
BRANCH  27  31
ATOM     31  O   UNL     1      -4.579  11.895  18.180  0.00  0.00    +0.000 OA
ATOM     32  C   UNL     1      -3.665  10.970  17.618  0.00  0.00    +0.000 C 
ENDBRANCH  27  31
BRANCH  28  33
ATOM     33  O   UNL     1      -6.756  11.851  20.051  0.00  0.00    +0.000 OA
ATOM     34  C   UNL     1      -7.246  10.535  20.224  0.00  0.00    +0.000 C 
ENDBRANCH  28  33
ENDBRANCH   1  25
TORSDOF 6
ENDMDL
