MODEL 1
REMARK VINA RESULT:      -7.2      0.000      0.000
REMARK  Name = 
REMARK  11 active torsions:
REMARK  status: ('A' for Active; 'I' for Inactive)
REMARK    1  A    between atoms: C_1  and  N_2
REMARK    2  A    between atoms: N_2  and  C_3
REMARK    3  A    between atoms: N_2  and  C_4
REMARK    4  A    between atoms: C_4  and  C_5
REMARK    5  A    between atoms: C_5  and  C_6
REMARK    6  A    between atoms: C_6  and  N_7
REMARK    7  A    between atoms: N_7  and  S_8
REMARK    8  A    between atoms: S_8  and  C_11
REMARK    9  A    between atoms: C_16  and  C_17
REMARK   10  A    between atoms: N_19  and  C_20
REMARK   11  A    between atoms: C_24  and  C_25
REMARK                            x       y       z     vdW  Elec       q    Type
REMARK                         _______ _______ _______ _____ _____    ______ ____
ROOT
ATOM      1  C   UNL     1       4.928   4.537  19.200  0.00  0.00    +0.000 A 
ATOM      2  C   UNL     1       4.753   3.184  19.495  0.00  0.00    +0.000 A 
ATOM      3  C   UNL     1       3.607   2.775  20.174  0.00  0.00    +0.000 A 
ATOM      4  C   UNL     1       2.620   3.704  20.539  0.00  0.00    +0.000 A 
ATOM      5 CL   UNL     1       1.281   3.056  21.423  0.00  0.00    +0.000 Cl
ATOM      6  C   UNL     1       2.767   5.064  20.212  0.00  0.00    +0.000 A 
ATOM      7  C   UNL     1       3.948   5.474  19.554  0.00  0.00    +0.000 A 
ENDROOT
BRANCH   6   8
ATOM      8  C   UNL     1       1.757   6.144  20.485  0.00  0.00    +0.000 C 
ATOM      9  O   UNL     1       0.566   5.844  20.486  0.00  0.00    +0.000 OA
ATOM     10  N   UNL     1       2.239   7.425  20.694  0.00  0.00    +0.000 N 
ATOM     11  H   UNL     1       3.121   7.652  20.255  0.00  0.00    +0.000 HD
BRANCH  10  12
ATOM     12  C   UNL     1       1.360   8.479  20.816  0.00  0.00    +0.000 A 
ATOM     13  S   UNL     1       0.654   8.592  22.377  0.00  0.00    +0.000 S 
ATOM     14  C   UNL     1      -0.121  10.008  21.938  0.00  0.00    +0.000 A 
ATOM     15  C   UNL     1       0.030  10.335  20.618  0.00  0.00    +0.000 A 
ATOM     16  C   UNL     1       0.905   9.454  19.937  0.00  0.00    +0.000 A 
ATOM     17  C   UNL     1      -0.797  11.523  20.275  0.00  0.00    +0.000 C 
ATOM     18  C   UNL     1      -1.130  12.109  21.683  0.00  0.00    +0.000 C 
ATOM     19  C   UNL     1      -0.989  10.934  22.702  0.00  0.00    +0.000 C 
BRANCH  16  20
ATOM     20  C   UNL     1       1.199   9.499  18.538  0.00  0.00    +0.000 C 
ATOM     21  N   UNL     1       1.513   9.568  17.420  0.00  0.00    +0.000 NA
ENDBRANCH  16  20
ENDBRANCH  10  12
ENDBRANCH   6   8
BRANCH   1  22
ATOM     22  S   UNL     1       6.340   5.022  18.222  0.00  0.00    +0.000 S 
ATOM     23  O   UNL     1       7.536   4.702  18.968  0.00  0.00    +0.000 OA
ATOM     24  O   UNL     1       6.056   6.356  17.755  0.00  0.00    +0.000 OA
BRANCH  22  25
ATOM     25  N   UNL     1       6.261   3.998  16.890  0.00  0.00    +0.000 NA
ATOM     26  H   UNL     1       7.090   4.065  16.282  0.00  0.00    +0.000 HD
BRANCH  25  27
ATOM     27  C   UNL     1       5.020   3.967  16.100  0.00  0.00    +0.000 C 
BRANCH  27  28
ATOM     28  C   UNL     1       5.232   4.689  14.762  0.00  0.00    +0.000 C 
BRANCH  28  29
ATOM     29  C   UNL     1       6.570   4.358  14.075  0.00  0.00    +0.000 C 
BRANCH  29  31
ATOM     30  C   UNL     1       5.037   3.525  12.372  0.00  0.00    +0.000 C 
ATOM     31  N   UNL     1       6.433   3.562  12.834  0.00  0.00    +0.000 NA
ATOM     32  C   UNL     1       7.271   4.140  11.776  0.00  0.00    +0.000 C 
ENDBRANCH  29  31
ENDBRANCH  28  29
ENDBRANCH  27  28
ENDBRANCH  25  27
ENDBRANCH  22  25
ENDBRANCH   1  22
TORSDOF 9
ENDMDL
MODEL 2
REMARK VINA RESULT:      -7.1      3.801      4.787
REMARK  Name = 
REMARK  11 active torsions:
REMARK  status: ('A' for Active; 'I' for Inactive)
REMARK    1  A    between atoms: C_1  and  N_2
REMARK    2  A    between atoms: N_2  and  C_3
REMARK    3  A    between atoms: N_2  and  C_4
REMARK    4  A    between atoms: C_4  and  C_5
REMARK    5  A    between atoms: C_5  and  C_6
REMARK    6  A    between atoms: C_6  and  N_7
REMARK    7  A    between atoms: N_7  and  S_8
REMARK    8  A    between atoms: S_8  and  C_11
REMARK    9  A    between atoms: C_16  and  C_17
REMARK   10  A    between atoms: N_19  and  C_20
REMARK   11  A    between atoms: C_24  and  C_25
REMARK                            x       y       z     vdW  Elec       q    Type
REMARK                         _______ _______ _______ _____ _____    ______ ____
ROOT
ATOM      1  C   UNL     1       5.321   5.551  17.622  0.00  0.00    +0.000 A 
ATOM      2  C   UNL     1       5.120   4.313  18.236  0.00  0.00    +0.000 A 
ATOM      3  C   UNL     1       3.968   4.104  18.993  0.00  0.00    +0.000 A 
ATOM      4  C   UNL     1       3.001   5.114  19.120  0.00  0.00    +0.000 A 
ATOM      5 CL   UNL     1       1.653   4.727  20.134  0.00  0.00    +0.000 Cl
ATOM      6  C   UNL     1       3.175   6.351  18.473  0.00  0.00    +0.000 A 
ATOM      7  C   UNL     1       4.361   6.566  17.738  0.00  0.00    +0.000 A 
ENDROOT
BRANCH   6   8
ATOM      8  C   UNL     1       2.187   7.485  18.475  0.00  0.00    +0.000 C 
ATOM      9  O   UNL     1       1.586   7.740  17.435  0.00  0.00    +0.000 OA
ATOM     10  N   UNL     1       2.036   8.192  19.656  0.00  0.00    +0.000 N 
ATOM     11  H   UNL     1       2.835   8.211  20.276  0.00  0.00    +0.000 HD
BRANCH  10  12
ATOM     12  C   UNL     1       1.249   9.322  19.686  0.00  0.00    +0.000 A 
ATOM     13  S   UNL     1       1.726  10.508  18.538  0.00  0.00    +0.000 S 
ATOM     14  C   UNL     1       0.419  11.461  18.961  0.00  0.00    +0.000 A 
ATOM     15  C   UNL     1      -0.296  10.981  20.023  0.00  0.00    +0.000 A 
ATOM     16  C   UNL     1       0.168   9.718  20.464  0.00  0.00    +0.000 A 
ATOM     17  C   UNL     1      -1.354  11.949  20.424  0.00  0.00    +0.000 C 
ATOM     18  C   UNL     1      -1.434  12.881  19.175  0.00  0.00    +0.000 C 
ATOM     19  C   UNL     1      -0.066  12.759  18.434  0.00  0.00    +0.000 C 
BRANCH  16  20
ATOM     20  C   UNL     1      -0.333   9.002  21.596  0.00  0.00    +0.000 C 
ATOM     21  N   UNL     1      -0.716   8.349  22.479  0.00  0.00    +0.000 NA
ENDBRANCH  16  20
ENDBRANCH  10  12
ENDBRANCH   6   8
BRANCH   1  22
ATOM     22  S   UNL     1       6.738   5.755  16.558  0.00  0.00    +0.000 S 
ATOM     23  O   UNL     1       6.304   5.579  15.191  0.00  0.00    +0.000 OA
ATOM     24  O   UNL     1       7.788   4.957  17.143  0.00  0.00    +0.000 OA
BRANCH  22  25
ATOM     25  N   UNL     1       7.158   7.369  16.773  0.00  0.00    +0.000 NA
ATOM     26  H   UNL     1       7.521   7.808  15.915  0.00  0.00    +0.000 HD
BRANCH  25  27
ATOM     27  C   UNL     1       7.970   7.734  17.945  0.00  0.00    +0.000 C 
BRANCH  27  28
ATOM     28  C   UNL     1       8.199   9.251  17.972  0.00  0.00    +0.000 C 
BRANCH  28  29
ATOM     29  C   UNL     1       9.156   9.722  19.083  0.00  0.00    +0.000 C 
BRANCH  29  31
ATOM     30  C   UNL     1       9.823  11.638  20.434  0.00  0.00    +0.000 C 
ATOM     31  N   UNL     1       9.390  11.183  19.103  0.00  0.00    +0.000 NA
ATOM     32  C   UNL     1      10.421  11.537  18.119  0.00  0.00    +0.000 C 
ENDBRANCH  29  31
ENDBRANCH  28  29
ENDBRANCH  27  28
ENDBRANCH  25  27
ENDBRANCH  22  25
ENDBRANCH   1  22
TORSDOF 9
ENDMDL
MODEL 3
REMARK VINA RESULT:      -7.0      1.410      2.077
REMARK  Name = 
REMARK  11 active torsions:
REMARK  status: ('A' for Active; 'I' for Inactive)
REMARK    1  A    between atoms: C_1  and  N_2
REMARK    2  A    between atoms: N_2  and  C_3
REMARK    3  A    between atoms: N_2  and  C_4
REMARK    4  A    between atoms: C_4  and  C_5
REMARK    5  A    between atoms: C_5  and  C_6
REMARK    6  A    between atoms: C_6  and  N_7
REMARK    7  A    between atoms: N_7  and  S_8
REMARK    8  A    between atoms: S_8  and  C_11
REMARK    9  A    between atoms: C_16  and  C_17
REMARK   10  A    between atoms: N_19  and  C_20
REMARK   11  A    between atoms: C_24  and  C_25
REMARK                            x       y       z     vdW  Elec       q    Type
REMARK                         _______ _______ _______ _____ _____    ______ ____
ROOT
ATOM      1  C   UNL     1       5.105   4.767  18.909  0.00  0.00    +0.000 A 
ATOM      2  C   UNL     1       4.805   3.424  19.141  0.00  0.00    +0.000 A 
ATOM      3  C   UNL     1       3.590   3.087  19.734  0.00  0.00    +0.000 A 
ATOM      4  C   UNL     1       2.658   4.080  20.072  0.00  0.00    +0.000 A 
ATOM      5 CL   UNL     1       1.218   3.515  20.849  0.00  0.00    +0.000 Cl
ATOM      6  C   UNL     1       2.933   5.434  19.807  0.00  0.00    +0.000 A 
ATOM      7  C   UNL     1       4.181   5.769  19.238  0.00  0.00    +0.000 A 
ENDROOT
BRANCH   6   8
ATOM      8  C   UNL     1       1.995   6.583  20.059  0.00  0.00    +0.000 C 
ATOM      9  O   UNL     1       1.031   6.400  20.797  0.00  0.00    +0.000 OA
ATOM     10  N   UNL     1       2.269   7.778  19.415  0.00  0.00    +0.000 N 
ATOM     11  H   UNL     1       2.773   7.713  18.540  0.00  0.00    +0.000 HD
BRANCH  10  12
ATOM     12  C   UNL     1       1.377   8.824  19.499  0.00  0.00    +0.000 A 
ATOM     13  S   UNL     1       0.796   9.340  17.967  0.00  0.00    +0.000 S 
ATOM     14  C   UNL     1      -0.235  10.427  18.710  0.00  0.00    +0.000 A 
ATOM     15  C   UNL     1      -0.071  10.508  20.066  0.00  0.00    +0.000 A 
ATOM     16  C   UNL     1       0.869   9.569  20.556  0.00  0.00    +0.000 A 
ATOM     17  C   UNL     1      -0.922  11.589  20.633  0.00  0.00    +0.000 C 
ATOM     18  C   UNL     1      -1.932  11.853  19.473  0.00  0.00    +0.000 C 
ATOM     19  C   UNL     1      -1.248  11.358  18.160  0.00  0.00    +0.000 C 
BRANCH  16  20
ATOM     20  C   UNL     1       1.301   9.465  21.915  0.00  0.00    +0.000 C 
ATOM     21  N   UNL     1       1.579   9.346  23.038  0.00  0.00    +0.000 NA
ENDBRANCH  16  20
ENDBRANCH  10  12
ENDBRANCH   6   8
BRANCH   1  22
ATOM     22  S   UNL     1       6.609   5.167  18.037  0.00  0.00    +0.000 S 
ATOM     23  O   UNL     1       7.722   4.637  18.791  0.00  0.00    +0.000 OA
ATOM     24  O   UNL     1       6.506   6.564  17.694  0.00  0.00    +0.000 OA
BRANCH  22  25
ATOM     25  N   UNL     1       6.477   4.290  16.608  0.00  0.00    +0.000 NA
ATOM     26  H   UNL     1       6.985   3.394  16.638  0.00  0.00    +0.000 HD
BRANCH  25  27
ATOM     27  C   UNL     1       6.699   4.988  15.332  0.00  0.00    +0.000 C 
BRANCH  27  28
ATOM     28  C   UNL     1       5.737   4.449  14.264  0.00  0.00    +0.000 C 
BRANCH  28  29
ATOM     29  C   UNL     1       6.287   3.249  13.472  0.00  0.00    +0.000 C 
BRANCH  29  31
ATOM     30  C   UNL     1       6.365   2.023  11.366  0.00  0.00    +0.000 C 
ATOM     31  N   UNL     1       5.946   3.266  12.032  0.00  0.00    +0.000 NA
ATOM     32  C   UNL     1       4.496   3.432  11.863  0.00  0.00    +0.000 C 
ENDBRANCH  29  31
ENDBRANCH  28  29
ENDBRANCH  27  28
ENDBRANCH  25  27
ENDBRANCH  22  25
ENDBRANCH   1  22
TORSDOF 9
ENDMDL
MODEL 4
REMARK VINA RESULT:      -7.0      1.897      2.593
REMARK  Name = 
REMARK  11 active torsions:
REMARK  status: ('A' for Active; 'I' for Inactive)
REMARK    1  A    between atoms: C_1  and  N_2
REMARK    2  A    between atoms: N_2  and  C_3
REMARK    3  A    between atoms: N_2  and  C_4
REMARK    4  A    between atoms: C_4  and  C_5
REMARK    5  A    between atoms: C_5  and  C_6
REMARK    6  A    between atoms: C_6  and  N_7
REMARK    7  A    between atoms: N_7  and  S_8
REMARK    8  A    between atoms: S_8  and  C_11
REMARK    9  A    between atoms: C_16  and  C_17
REMARK   10  A    between atoms: N_19  and  C_20
REMARK   11  A    between atoms: C_24  and  C_25
REMARK                            x       y       z     vdW  Elec       q    Type
REMARK                         _______ _______ _______ _____ _____    ______ ____
ROOT
ATOM      1  C   UNL     1       5.466   5.629  17.831  0.00  0.00    +0.000 A 
ATOM      2  C   UNL     1       5.393   4.488  18.632  0.00  0.00    +0.000 A 
ATOM      3  C   UNL     1       4.325   4.337  19.513  0.00  0.00    +0.000 A 
ATOM      4  C   UNL     1       3.311   5.306  19.583  0.00  0.00    +0.000 A 
ATOM      5 CL   UNL     1       2.079   5.009  20.761  0.00  0.00    +0.000 Cl
ATOM      6  C   UNL     1       3.353   6.441  18.752  0.00  0.00    +0.000 A 
ATOM      7  C   UNL     1       4.458   6.602  17.888  0.00  0.00    +0.000 A 
ENDROOT
BRANCH   6   8
ATOM      8  C   UNL     1       2.301   7.513  18.683  0.00  0.00    +0.000 C 
ATOM      9  O   UNL     1       1.850   7.820  17.583  0.00  0.00    +0.000 OA
ATOM     10  N   UNL     1       1.925   8.110  19.874  0.00  0.00    +0.000 N 
ATOM     11  H   UNL     1       2.618   8.123  20.611  0.00  0.00    +0.000 HD
BRANCH  10  12
ATOM     12  C   UNL     1       1.067   9.188  19.863  0.00  0.00    +0.000 A 
ATOM     13  S   UNL     1       0.809   9.830  18.290  0.00  0.00    +0.000 S 
ATOM     14  C   UNL     1      -0.312  10.910  18.901  0.00  0.00    +0.000 A 
ATOM     15  C   UNL     1      -0.410  10.893  20.265  0.00  0.00    +0.000 A 
ATOM     16  C   UNL     1       0.387   9.882  20.855  0.00  0.00    +0.000 A 
ATOM     17  C   UNL     1      -1.321  11.971  20.738  0.00  0.00    +0.000 C 
ATOM     18  C   UNL     1      -2.080  12.357  19.429  0.00  0.00    +0.000 C 
ATOM     19  C   UNL     1      -1.170  11.920  18.238  0.00  0.00    +0.000 C 
BRANCH  16  20
ATOM     20  C   UNL     1       0.544   9.669  22.261  0.00  0.00    +0.000 C 
ATOM     21  N   UNL     1       0.746   9.459  23.387  0.00  0.00    +0.000 NA
ENDBRANCH  16  20
ENDBRANCH  10  12
ENDBRANCH   6   8
BRANCH   1  22
ATOM     22  S   UNL     1       6.774   5.742  16.623  0.00  0.00    +0.000 S 
ATOM     23  O   UNL     1       7.654   4.610  16.804  0.00  0.00    +0.000 OA
ATOM     24  O   UNL     1       7.247   7.103  16.681  0.00  0.00    +0.000 OA
BRANCH  22  25
ATOM     25  N   UNL     1       5.969   5.554  15.158  0.00  0.00    +0.000 NA
ATOM     26  H   UNL     1       4.962   5.762  15.224  0.00  0.00    +0.000 HD
BRANCH  25  27
ATOM     27  C   UNL     1       6.212   4.333  14.375  0.00  0.00    +0.000 C 
BRANCH  27  28
ATOM     28  C   UNL     1       6.959   4.680  13.080  0.00  0.00    +0.000 C 
BRANCH  28  29
ATOM     29  C   UNL     1       6.868   3.594  11.992  0.00  0.00    +0.000 C 
BRANCH  29  31
ATOM     30  C   UNL     1       4.480   3.432  11.531  0.00  0.00    +0.000 C 
ATOM     31  N   UNL     1       5.659   2.745  12.082  0.00  0.00    +0.000 NA
ATOM     32  C   UNL     1       5.871   1.494  11.344  0.00  0.00    +0.000 C 
ENDBRANCH  29  31
ENDBRANCH  28  29
ENDBRANCH  27  28
ENDBRANCH  25  27
ENDBRANCH  22  25
ENDBRANCH   1  22
TORSDOF 9
ENDMDL
MODEL 5
REMARK VINA RESULT:      -6.9      3.423      4.219
REMARK  Name = 
REMARK  11 active torsions:
REMARK  status: ('A' for Active; 'I' for Inactive)
REMARK    1  A    between atoms: C_1  and  N_2
REMARK    2  A    between atoms: N_2  and  C_3
REMARK    3  A    between atoms: N_2  and  C_4
REMARK    4  A    between atoms: C_4  and  C_5
REMARK    5  A    between atoms: C_5  and  C_6
REMARK    6  A    between atoms: C_6  and  N_7
REMARK    7  A    between atoms: N_7  and  S_8
REMARK    8  A    between atoms: S_8  and  C_11
REMARK    9  A    between atoms: C_16  and  C_17
REMARK   10  A    between atoms: N_19  and  C_20
REMARK   11  A    between atoms: C_24  and  C_25
REMARK                            x       y       z     vdW  Elec       q    Type
REMARK                         _______ _______ _______ _____ _____    ______ ____
ROOT
ATOM      1  C   UNL     1       5.371   5.265  17.810  0.00  0.00    +0.000 A 
ATOM      2  C   UNL     1       5.383   4.020  18.439  0.00  0.00    +0.000 A 
ATOM      3  C   UNL     1       4.402   3.720  19.383  0.00  0.00    +0.000 A 
ATOM      4  C   UNL     1       3.391   4.646  19.684  0.00  0.00    +0.000 A 
ATOM      5 CL   UNL     1       2.276   4.156  20.913  0.00  0.00    +0.000 Cl
ATOM      6  C   UNL     1       3.346   5.890  19.027  0.00  0.00    +0.000 A 
ATOM      7  C   UNL     1       4.364   6.198  18.098  0.00  0.00    +0.000 A 
ENDROOT
BRANCH   6   8
ATOM      8  C   UNL     1       2.283   6.938  19.210  0.00  0.00    +0.000 C 
ATOM      9  O   UNL     1       1.495   7.139  18.290  0.00  0.00    +0.000 OA
ATOM     10  N   UNL     1       2.279   7.633  20.407  0.00  0.00    +0.000 N 
ATOM     11  H   UNL     1       3.168   7.721  20.882  0.00  0.00    +0.000 HD
BRANCH  10  12
ATOM     12  C   UNL     1       1.417   8.694  20.583  0.00  0.00    +0.000 A 
ATOM     13  S   UNL     1       0.460   8.559  22.003  0.00  0.00    +0.000 S 
ATOM     14  C   UNL     1      -0.196  10.071  21.720  0.00  0.00    +0.000 A 
ATOM     15  C   UNL     1       0.184  10.625  20.529  0.00  0.00    +0.000 A 
ATOM     16  C   UNL     1       1.140   9.837  19.843  0.00  0.00    +0.000 A 
ATOM     17  C   UNL     1      -0.544  11.901  20.288  0.00  0.00    +0.000 C 
ATOM     18  C   UNL     1      -1.097  12.236  21.709  0.00  0.00    +0.000 C 
ATOM     19  C   UNL     1      -1.158  10.889  22.496  0.00  0.00    +0.000 C 
BRANCH  16  20
ATOM     20  C   UNL     1       1.668  10.121  18.545  0.00  0.00    +0.000 C 
ATOM     21  N   UNL     1       2.150  10.406  17.525  0.00  0.00    +0.000 NA
ENDBRANCH  16  20
ENDBRANCH  10  12
ENDBRANCH   6   8
BRANCH   1  22
ATOM     22  S   UNL     1       6.560   5.580  16.517  0.00  0.00    +0.000 S 
ATOM     23  O   UNL     1       5.887   5.447  15.244  0.00  0.00    +0.000 OA
ATOM     24  O   UNL     1       7.726   4.804  16.858  0.00  0.00    +0.000 OA
BRANCH  22  25
ATOM     25  N   UNL     1       6.954   7.200  16.737  0.00  0.00    +0.000 NA
ATOM     26  H   UNL     1       7.245   7.665  15.864  0.00  0.00    +0.000 HD
BRANCH  25  27
ATOM     27  C   UNL     1       7.839   7.562  17.855  0.00  0.00    +0.000 C 
BRANCH  27  28
ATOM     28  C   UNL     1       8.074   9.079  17.868  0.00  0.00    +0.000 C 
BRANCH  28  29
ATOM     29  C   UNL     1       8.954   9.568  19.033  0.00  0.00    +0.000 C 
BRANCH  29  31
ATOM     30  C   UNL     1       9.813  11.466  20.300  0.00  0.00    +0.000 C 
ATOM     31  N   UNL     1       9.203  11.027  19.034  0.00  0.00    +0.000 NA
ATOM     32  C   UNL     1      10.097  11.382  17.925  0.00  0.00    +0.000 C 
ENDBRANCH  29  31
ENDBRANCH  28  29
ENDBRANCH  27  28
ENDBRANCH  25  27
ENDBRANCH  22  25
ENDBRANCH   1  22
TORSDOF 9
ENDMDL
MODEL 6
REMARK VINA RESULT:      -6.9      3.440      4.444
REMARK  Name = 
REMARK  11 active torsions:
REMARK  status: ('A' for Active; 'I' for Inactive)
REMARK    1  A    between atoms: C_1  and  N_2
REMARK    2  A    between atoms: N_2  and  C_3
REMARK    3  A    between atoms: N_2  and  C_4
REMARK    4  A    between atoms: C_4  and  C_5
REMARK    5  A    between atoms: C_5  and  C_6
REMARK    6  A    between atoms: C_6  and  N_7
REMARK    7  A    between atoms: N_7  and  S_8
REMARK    8  A    between atoms: S_8  and  C_11
REMARK    9  A    between atoms: C_16  and  C_17
REMARK   10  A    between atoms: N_19  and  C_20
REMARK   11  A    between atoms: C_24  and  C_25
REMARK                            x       y       z     vdW  Elec       q    Type
REMARK                         _______ _______ _______ _____ _____    ______ ____
ROOT
ATOM      1  C   UNL     1       5.073   5.409  17.552  0.00  0.00    +0.000 A 
ATOM      2  C   UNL     1       5.275   4.182  18.186  0.00  0.00    +0.000 A 
ATOM      3  C   UNL     1       4.519   3.861  19.312  0.00  0.00    +0.000 A 
ATOM      4  C   UNL     1       3.542   4.745  19.794  0.00  0.00    +0.000 A 
ATOM      5 CL   UNL     1       2.721   4.234  21.230  0.00  0.00    +0.000 Cl
ATOM      6  C   UNL     1       3.302   5.968  19.140  0.00  0.00    +0.000 A 
ATOM      7  C   UNL     1       4.097   6.299  18.021  0.00  0.00    +0.000 A 
ENDROOT
BRANCH   6   8
ATOM      8  C   UNL     1       2.243   6.968  19.515  0.00  0.00    +0.000 C 
ATOM      9  O   UNL     1       1.309   6.595  20.220  0.00  0.00    +0.000 OA
ATOM     10  N   UNL     1       2.378   8.251  19.014  0.00  0.00    +0.000 N 
ATOM     11  H   UNL     1       2.881   8.345  18.142  0.00  0.00    +0.000 HD
BRANCH  10  12
ATOM     12  C   UNL     1       1.375   9.176  19.211  0.00  0.00    +0.000 A 
ATOM     13  S   UNL     1       0.715   9.777  17.744  0.00  0.00    +0.000 S 
ATOM     14  C   UNL     1      -0.420  10.657  18.601  0.00  0.00    +0.000 A 
ATOM     15  C   UNL     1      -0.244  10.615  19.957  0.00  0.00    +0.000 A 
ATOM     16  C   UNL     1       0.803   9.743  20.342  0.00  0.00    +0.000 A 
ATOM     17  C   UNL     1      -1.202  11.528  20.638  0.00  0.00    +0.000 C 
ATOM     18  C   UNL     1      -2.255  11.794  19.516  0.00  0.00    +0.000 C 
ATOM     19  C   UNL     1      -1.540  11.519  18.155  0.00  0.00    +0.000 C 
BRANCH  16  20
ATOM     20  C   UNL     1       1.266   9.549  21.681  0.00  0.00    +0.000 C 
ATOM     21  N   UNL     1       1.710   9.355  22.738  0.00  0.00    +0.000 NA
ENDBRANCH  16  20
ENDBRANCH  10  12
ENDBRANCH   6   8
BRANCH   1  22
ATOM     22  S   UNL     1       5.962   5.746  16.042  0.00  0.00    +0.000 S 
ATOM     23  O   UNL     1       5.235   6.756  15.307  0.00  0.00    +0.000 OA
ATOM     24  O   UNL     1       6.279   4.459  15.476  0.00  0.00    +0.000 OA
BRANCH  22  25
ATOM     25  N   UNL     1       7.404   6.424  16.583  0.00  0.00    +0.000 NA
ATOM     26  H   UNL     1       8.207   5.786  16.491  0.00  0.00    +0.000 HD
BRANCH  25  27
ATOM     27  C   UNL     1       7.413   7.111  17.883  0.00  0.00    +0.000 C 
BRANCH  27  28
ATOM     28  C   UNL     1       7.794   8.586  17.696  0.00  0.00    +0.000 C 
BRANCH  28  29
ATOM     29  C   UNL     1       8.910   9.071  18.640  0.00  0.00    +0.000 C 
BRANCH  29  31
ATOM     30  C   UNL     1       9.264  10.893  20.220  0.00  0.00    +0.000 C 
ATOM     31  N   UNL     1       8.951  10.538  18.826  0.00  0.00    +0.000 NA
ATOM     32  C   UNL     1       9.968  11.126  17.945  0.00  0.00    +0.000 C 
ENDBRANCH  29  31
ENDBRANCH  28  29
ENDBRANCH  27  28
ENDBRANCH  25  27
ENDBRANCH  22  25
ENDBRANCH   1  22
TORSDOF 9
ENDMDL
MODEL 7
REMARK VINA RESULT:      -6.8      3.690      4.730
REMARK  Name = 
REMARK  11 active torsions:
REMARK  status: ('A' for Active; 'I' for Inactive)
REMARK    1  A    between atoms: C_1  and  N_2
REMARK    2  A    between atoms: N_2  and  C_3
REMARK    3  A    between atoms: N_2  and  C_4
REMARK    4  A    between atoms: C_4  and  C_5
REMARK    5  A    between atoms: C_5  and  C_6
REMARK    6  A    between atoms: C_6  and  N_7
REMARK    7  A    between atoms: N_7  and  S_8
REMARK    8  A    between atoms: S_8  and  C_11
REMARK    9  A    between atoms: C_16  and  C_17
REMARK   10  A    between atoms: N_19  and  C_20
REMARK   11  A    between atoms: C_24  and  C_25
REMARK                            x       y       z     vdW  Elec       q    Type
REMARK                         _______ _______ _______ _____ _____    ______ ____
ROOT
ATOM      1  C   UNL     1       5.363   5.561  17.738  0.00  0.00    +0.000 A 
ATOM      2  C   UNL     1       5.081   4.401  18.460  0.00  0.00    +0.000 A 
ATOM      3  C   UNL     1       3.960   4.365  19.288  0.00  0.00    +0.000 A 
ATOM      4  C   UNL     1       3.102   5.472  19.379  0.00  0.00    +0.000 A 
ATOM      5 CL   UNL     1       1.783   5.299  20.487  0.00  0.00    +0.000 Cl
ATOM      6  C   UNL     1       3.355   6.633  18.626  0.00  0.00    +0.000 A 
ATOM      7  C   UNL     1       4.512   6.672  17.817  0.00  0.00    +0.000 A 
ENDROOT
BRANCH   6   8
ATOM      8  C   UNL     1       2.481   7.856  18.584  0.00  0.00    +0.000 C 
ATOM      9  O   UNL     1       2.636   8.656  17.665  0.00  0.00    +0.000 OA
ATOM     10  N   UNL     1       1.565   8.016  19.610  0.00  0.00    +0.000 N 
ATOM     11  H   UNL     1       1.801   7.588  20.496  0.00  0.00    +0.000 HD
BRANCH  10  12
ATOM     12  C   UNL     1       0.830   9.178  19.702  0.00  0.00    +0.000 A 
ATOM     13  S   UNL     1       0.323   9.778  18.175  0.00  0.00    +0.000 S 
ATOM     14  C   UNL     1      -0.542  10.996  18.927  0.00  0.00    +0.000 A 
ATOM     15  C   UNL     1      -0.363  11.046  20.283  0.00  0.00    +0.000 A 
ATOM     16  C   UNL     1       0.436   9.981  20.765  0.00  0.00    +0.000 A 
ATOM     17  C   UNL     1      -1.051  12.234  20.858  0.00  0.00    +0.000 C 
ATOM     18  C   UNL     1      -2.018  12.644  19.704  0.00  0.00    +0.000 C 
ATOM     19  C   UNL     1      -1.415  12.064  18.385  0.00  0.00    +0.000 C 
BRANCH  16  20
ATOM     20  C   UNL     1       0.854   9.810  22.122  0.00  0.00    +0.000 C 
ATOM     21  N   UNL     1       1.183   9.589  23.215  0.00  0.00    +0.000 NA
ENDBRANCH  16  20
ENDBRANCH  10  12
ENDBRANCH   6   8
BRANCH   1  22
ATOM     22  S   UNL     1       6.731   5.542  16.592  0.00  0.00    +0.000 S 
ATOM     23  O   UNL     1       6.201   5.334  15.263  0.00  0.00    +0.000 OA
ATOM     24  O   UNL     1       7.720   4.669  17.173  0.00  0.00    +0.000 OA
BRANCH  22  25
ATOM     25  N   UNL     1       7.333   7.110  16.679  0.00  0.00    +0.000 NA
ATOM     26  H   UNL     1       7.975   7.337  15.905  0.00  0.00    +0.000 HD
BRANCH  25  27
ATOM     27  C   UNL     1       7.859   7.590  17.966  0.00  0.00    +0.000 C 
BRANCH  27  28
ATOM     28  C   UNL     1       8.238   9.074  17.858  0.00  0.00    +0.000 C 
BRANCH  28  29
ATOM     29  C   UNL     1       8.971   9.626  19.094  0.00  0.00    +0.000 C 
BRANCH  29  31
ATOM     30  C   UNL     1       8.946  11.823  18.036  0.00  0.00    +0.000 C 
ATOM     31  N   UNL     1       9.729  10.872  18.842  0.00  0.00    +0.000 NA
ATOM     32  C   UNL     1      10.084  11.507  20.118  0.00  0.00    +0.000 C 
ENDBRANCH  29  31
ENDBRANCH  28  29
ENDBRANCH  27  28
ENDBRANCH  25  27
ENDBRANCH  22  25
ENDBRANCH   1  22
TORSDOF 9
ENDMDL
MODEL 8
REMARK VINA RESULT:      -6.7      3.377      8.757
REMARK  Name = 
REMARK  11 active torsions:
REMARK  status: ('A' for Active; 'I' for Inactive)
REMARK    1  A    between atoms: C_1  and  N_2
REMARK    2  A    between atoms: N_2  and  C_3
REMARK    3  A    between atoms: N_2  and  C_4
REMARK    4  A    between atoms: C_4  and  C_5
REMARK    5  A    between atoms: C_5  and  C_6
REMARK    6  A    between atoms: C_6  and  N_7
REMARK    7  A    between atoms: N_7  and  S_8
REMARK    8  A    between atoms: S_8  and  C_11
REMARK    9  A    between atoms: C_16  and  C_17
REMARK   10  A    between atoms: N_19  and  C_20
REMARK   11  A    between atoms: C_24  and  C_25
REMARK                            x       y       z     vdW  Elec       q    Type
REMARK                         _______ _______ _______ _____ _____    ______ ____
ROOT
ATOM      1  C   UNL     1       0.736  10.480  20.463  0.00  0.00    +0.000 A 
ATOM      2  C   UNL     1       0.316   9.805  21.610  0.00  0.00    +0.000 A 
ATOM      3  C   UNL     1       0.564   8.438  21.729  0.00  0.00    +0.000 A 
ATOM      4  C   UNL     1       1.253   7.745  20.722  0.00  0.00    +0.000 A 
ATOM      5 CL   UNL     1       1.439   6.045  20.985  0.00  0.00    +0.000 Cl
ATOM      6  C   UNL     1       1.716   8.423  19.579  0.00  0.00    +0.000 A 
ATOM      7  C   UNL     1       1.430   9.800  19.452  0.00  0.00    +0.000 A 
ENDROOT
BRANCH   6   8
ATOM      8  C   UNL     1       2.521   7.813  18.466  0.00  0.00    +0.000 C 
ATOM      9  O   UNL     1       2.363   8.241  17.326  0.00  0.00    +0.000 OA
ATOM     10  N   UNL     1       3.379   6.778  18.797  0.00  0.00    +0.000 N 
ATOM     11  H   UNL     1       3.128   6.226  19.607  0.00  0.00    +0.000 HD
BRANCH  10  12
ATOM     12  C   UNL     1       4.043   6.089  17.806  0.00  0.00    +0.000 A 
ATOM     13  S   UNL     1       5.384   6.951  17.166  0.00  0.00    +0.000 S 
ATOM     14  C   UNL     1       5.784   5.641  16.207  0.00  0.00    +0.000 A 
ATOM     15  C   UNL     1       4.873   4.622  16.254  0.00  0.00    +0.000 A 
ATOM     16  C   UNL     1       3.841   4.858  17.194  0.00  0.00    +0.000 A 
ATOM     17  C   UNL     1       5.226   3.558  15.275  0.00  0.00    +0.000 C 
ATOM     18  C   UNL     1       6.713   3.899  14.942  0.00  0.00    +0.000 C 
ATOM     19  C   UNL     1       6.911   5.413  15.272  0.00  0.00    +0.000 C 
BRANCH  16  20
ATOM     20  C   UNL     1       2.712   4.008  17.414  0.00  0.00    +0.000 C 
ATOM     21  N   UNL     1       1.812   3.279  17.520  0.00  0.00    +0.000 NA
ENDBRANCH  16  20
ENDBRANCH  10  12
ENDBRANCH   6   8
BRANCH   1  22
ATOM     22  S   UNL     1       0.519  12.250  20.387  0.00  0.00    +0.000 S 
ATOM     23  O   UNL     1       1.259  12.745  19.249  0.00  0.00    +0.000 OA
ATOM     24  O   UNL     1       0.749  12.732  21.726  0.00  0.00    +0.000 OA
BRANCH  22  25
ATOM     25  N   UNL     1      -1.123  12.427  20.065  0.00  0.00    +0.000 NA
ATOM     26  H   UNL     1      -1.677  12.629  20.909  0.00  0.00    +0.000 HD
BRANCH  25  27
ATOM     27  C   UNL     1      -1.785  11.423  19.218  0.00  0.00    +0.000 C 
BRANCH  27  28
ATOM     28  C   UNL     1      -1.764  11.878  17.752  0.00  0.00    +0.000 C 
BRANCH  28  29
ATOM     29  C   UNL     1      -2.085  10.761  16.743  0.00  0.00    +0.000 C 
BRANCH  29  31
ATOM     30  C   UNL     1      -3.258  10.084  14.716  0.00  0.00    +0.000 C 
ATOM     31  N   UNL     1      -3.131  11.115  15.758  0.00  0.00    +0.000 NA
ATOM     32  C   UNL     1      -4.425  11.270  16.436  0.00  0.00    +0.000 C 
ENDBRANCH  29  31
ENDBRANCH  28  29
ENDBRANCH  27  28
ENDBRANCH  25  27
ENDBRANCH  22  25
ENDBRANCH   1  22
TORSDOF 9
ENDMDL
MODEL 9
REMARK VINA RESULT:      -6.7      3.968      9.537
REMARK  Name = 
REMARK  11 active torsions:
REMARK  status: ('A' for Active; 'I' for Inactive)
REMARK    1  A    between atoms: C_1  and  N_2
REMARK    2  A    between atoms: N_2  and  C_3
REMARK    3  A    between atoms: N_2  and  C_4
REMARK    4  A    between atoms: C_4  and  C_5
REMARK    5  A    between atoms: C_5  and  C_6
REMARK    6  A    between atoms: C_6  and  N_7
REMARK    7  A    between atoms: N_7  and  S_8
REMARK    8  A    between atoms: S_8  and  C_11
REMARK    9  A    between atoms: C_16  and  C_17
REMARK   10  A    between atoms: N_19  and  C_20
REMARK   11  A    between atoms: C_24  and  C_25
REMARK                            x       y       z     vdW  Elec       q    Type
REMARK                         _______ _______ _______ _____ _____    ______ ____
ROOT
ATOM      1  C   UNL     1      -0.363  11.058  19.281  0.00  0.00    +0.000 A 
ATOM      2  C   UNL     1      -0.665  10.740  20.606  0.00  0.00    +0.000 A 
ATOM      3  C   UNL     1      -0.087   9.613  21.187  0.00  0.00    +0.000 A 
ATOM      4  C   UNL     1       0.813   8.815  20.464  0.00  0.00    +0.000 A 
ATOM      5 CL   UNL     1       1.408   7.421  21.299  0.00  0.00    +0.000 Cl
ATOM      6  C   UNL     1       1.156   9.149  19.140  0.00  0.00    +0.000 A 
ATOM      7  C   UNL     1       0.538  10.273  18.549  0.00  0.00    +0.000 A 
ENDROOT
BRANCH   6   8
ATOM      8  C   UNL     1       2.153   8.419  18.284  0.00  0.00    +0.000 C 
ATOM      9  O   UNL     1       2.390   8.854  17.161  0.00  0.00    +0.000 OA
ATOM     10  N   UNL     1       2.725   7.275  18.814  0.00  0.00    +0.000 N 
ATOM     11  H   UNL     1       2.178   6.772  19.500  0.00  0.00    +0.000 HD
BRANCH  10  12
ATOM     12  C   UNL     1       3.543   6.489  18.031  0.00  0.00    +0.000 A 
ATOM     13  S   UNL     1       4.996   7.277  17.568  0.00  0.00    +0.000 S 
ATOM     14  C   UNL     1       5.535   5.877  16.829  0.00  0.00    +0.000 A 
ATOM     15  C   UNL     1       4.608   4.871  16.807  0.00  0.00    +0.000 A 
ATOM     16  C   UNL     1       3.428   5.204  17.515  0.00  0.00    +0.000 A 
ATOM     17  C   UNL     1       5.110   3.714  16.015  0.00  0.00    +0.000 C 
ATOM     18  C   UNL     1       6.639   4.015  15.929  0.00  0.00    +0.000 C 
ATOM     19  C   UNL     1       6.808   5.552  16.143  0.00  0.00    +0.000 C 
BRANCH  16  20
ATOM     20  C   UNL     1       2.259   4.384  17.605  0.00  0.00    +0.000 C 
ATOM     21  N   UNL     1       1.357   3.658  17.710  0.00  0.00    +0.000 NA
ENDBRANCH  16  20
ENDBRANCH  10  12
ENDBRANCH   6   8
BRANCH   1  22
ATOM     22  S   UNL     1      -1.015  12.572  18.597  0.00  0.00    +0.000 S 
ATOM     23  O   UNL     1       0.097  13.388  18.167  0.00  0.00    +0.000 OA
ATOM     24  O   UNL     1      -1.996  13.041  19.545  0.00  0.00    +0.000 OA
BRANCH  22  25
ATOM     25  N   UNL     1      -1.848  12.054  17.230  0.00  0.00    +0.000 NA
ATOM     26  H   UNL     1      -2.613  12.690  16.962  0.00  0.00    +0.000 HD
BRANCH  25  27
ATOM     27  C   UNL     1      -2.271  10.647  17.156  0.00  0.00    +0.000 C 
BRANCH  27  28
ATOM     28  C   UNL     1      -3.665  10.486  17.776  0.00  0.00    +0.000 C 
BRANCH  28  29
ATOM     29  C   UNL     1      -4.606  11.678  17.526  0.00  0.00    +0.000 C 
BRANCH  29  31
ATOM     30  C   UNL     1      -6.360  10.894  19.026  0.00  0.00    +0.000 C 
ATOM     31  N   UNL     1      -6.044  11.356  17.665  0.00  0.00    +0.000 NA
ATOM     32  C   UNL     1      -6.854  12.544  17.364  0.00  0.00    +0.000 C 
ENDBRANCH  29  31
ENDBRANCH  28  29
ENDBRANCH  27  28
ENDBRANCH  25  27
ENDBRANCH  22  25
ENDBRANCH   1  22
TORSDOF 9
ENDMDL
