MODEL 1
REMARK VINA RESULT:      -7.9      0.000      0.000
REMARK  Name = 
REMARK  9 active torsions:
REMARK  status: ('A' for Active; 'I' for Inactive)
REMARK    1  A    between atoms: C_1  and  C_2
REMARK    2  A    between atoms: N_4  and  C_5
REMARK    3  A    between atoms: C_7  and  C_8
REMARK    4  A    between atoms: C_10  and  C_11
REMARK    5  A    between atoms: N_13  and  C_14
REMARK    6  A    between atoms: N_17  and  C_18
REMARK    7  A    between atoms: C_19  and  N_20
REMARK    8  A    between atoms: C_23  and  N_24
REMARK    9  A    between atoms: C_29  and  N_30
REMARK                            x       y       z     vdW  Elec       q    Type
REMARK                         _______ _______ _______ _____ _____    ______ ____
ROOT
ATOM      1  C   UNL     1       2.232   6.333  19.613  0.00  0.00    +0.000 C 
ATOM      2  O   UNL     1       2.647   5.942  20.703  0.00  0.00    +0.000 OA
ATOM      3  N   UNL     1       1.925   5.487  18.557  0.00  0.00    +0.000 N 
ATOM      4  H   UNL     1       1.352   5.882  17.821  0.00  0.00    +0.000 HD
ENDROOT
BRANCH   3   5
ATOM      5  C   UNL     1       2.052   4.110  18.618  0.00  0.00    +0.000 A 
ATOM      6  C   UNL     1       1.052   3.142  18.822  0.00  0.00    +0.000 A 
ATOM      7  N   UNL     1       1.545   1.908  18.914  0.00  0.00    +0.000 NA
ATOM      8  N   UNL     1       2.872   2.072  18.720  0.00  0.00    +0.000 N 
ATOM      9  C   UNL     1       3.663   0.864  18.627  0.00  0.00    +0.000 C 
ATOM     10  C   UNL     1       3.246   3.402  18.522  0.00  0.00    +0.000 A 
BRANCH  10  11
ATOM     11  N   UNL     1       4.512   3.850  18.197  0.00  0.00    +0.000 N 
ATOM     12  C   UNL     1       5.555   4.032  19.202  0.00  0.00    +0.000 C 
ATOM     13  C   UNL     1       6.334   5.336  19.059  0.00  0.00    +0.000 C 
ATOM     14  C   UNL     1       7.264   5.449  17.848  0.00  0.00    +0.000 C 
ATOM     15  C   UNL     1       6.528   5.842  16.549  0.00  0.00    +0.000 C 
ATOM     16  F   UNL     1       6.409   7.211  16.543  0.00  0.00    +0.000 F 
ATOM     17  C   UNL     1       5.124   5.299  16.328  0.00  0.00    +0.000 C 
ATOM     18  C   UNL     1       4.915   3.864  16.781  0.00  0.00    +0.000 C 
BRANCH  14  19
ATOM     19  N   UNL     1       8.151   4.282  17.699  0.00  0.00    +0.000 NA
ATOM     20  H   UNL     1       7.746   3.441  18.106  0.00  0.00    +0.000 HD
ATOM     21  H   UNL     1       9.026   4.446  18.195  0.00  0.00    +0.000 HD
ENDBRANCH  14  19
ENDBRANCH  10  11
ENDBRANCH   3   5
BRANCH   1  24
ATOM     22  C   UNL     1       0.976   9.756  19.668  0.00  0.00    +0.000 A 
ATOM     23  N   UNL     1       1.161   8.562  20.207  0.00  0.00    +0.000 NA
ATOM     24  C   UNL     1       1.954   7.768  19.348  0.00  0.00    +0.000 A 
ATOM     25  C   UNL     1       2.431   8.445  18.228  0.00  0.00    +0.000 A 
ATOM     26  S   UNL     1       1.858  10.047  18.224  0.00  0.00    +0.000 S 
BRANCH  22  33
ATOM     27  C   UNL     1      -1.917  10.862  18.478  0.00  0.00    +0.000 C 
ATOM     28  C   UNL     1      -1.183  11.286  19.695  0.00  0.00    +0.000 A 
ATOM     29  N   UNL     1      -1.688  12.275  20.450  0.00  0.00    +0.000 NA
ATOM     30  N   UNL     1      -0.792  12.415  21.444  0.00  0.00    +0.000 N 
ATOM     31  C   UNL     1      -0.940  13.475  22.415  0.00  0.00    +0.000 C 
ATOM     32  C   UNL     1       0.235  11.519  21.375  0.00  0.00    +0.000 A 
ATOM     33  C   UNL     1       0.039  10.794  20.216  0.00  0.00    +0.000 A 
ENDBRANCH  22  33
BRANCH  25  34
ATOM     34  N   UNL     1       3.223   8.017  17.216  0.00  0.00    +0.000 N 
ATOM     35  H   UNL     1       3.787   7.176  17.345  0.00  0.00    +0.000 HD
ATOM     36  H   UNL     1       2.940   8.187  16.256  0.00  0.00    +0.000 HD
ENDBRANCH  25  34
ENDBRANCH   1  24
TORSDOF 6
ENDMDL
MODEL 2
REMARK VINA RESULT:      -7.8      0.774      1.233
REMARK  Name = 
REMARK  9 active torsions:
REMARK  status: ('A' for Active; 'I' for Inactive)
REMARK    1  A    between atoms: C_1  and  C_2
REMARK    2  A    between atoms: N_4  and  C_5
REMARK    3  A    between atoms: C_7  and  C_8
REMARK    4  A    between atoms: C_10  and  C_11
REMARK    5  A    between atoms: N_13  and  C_14
REMARK    6  A    between atoms: N_17  and  C_18
REMARK    7  A    between atoms: C_19  and  N_20
REMARK    8  A    between atoms: C_23  and  N_24
REMARK    9  A    between atoms: C_29  and  N_30
REMARK                            x       y       z     vdW  Elec       q    Type
REMARK                         _______ _______ _______ _____ _____    ______ ____
ROOT
ATOM      1  C   UNL     1       2.155   6.265  19.775  0.00  0.00    +0.000 C 
ATOM      2  O   UNL     1       2.620   5.820  20.823  0.00  0.00    +0.000 OA
ATOM      3  N   UNL     1       1.837   5.478  18.677  0.00  0.00    +0.000 N 
ATOM      4  H   UNL     1       1.227   5.900  17.988  0.00  0.00    +0.000 HD
ENDROOT
BRANCH   3   5
ATOM      5  C   UNL     1       2.008   4.105  18.645  0.00  0.00    +0.000 A 
ATOM      6  C   UNL     1       1.038   3.094  18.763  0.00  0.00    +0.000 A 
ATOM      7  N   UNL     1       1.570   1.872  18.777  0.00  0.00    +0.000 NA
ATOM      8  N   UNL     1       2.894   2.092  18.620  0.00  0.00    +0.000 N 
ATOM      9  C   UNL     1       3.726   0.919  18.458  0.00  0.00    +0.000 C 
ATOM     10  C   UNL     1       3.226   3.444  18.522  0.00  0.00    +0.000 A 
BRANCH  10  11
ATOM     11  N   UNL     1       4.482   3.953  18.252  0.00  0.00    +0.000 N 
ATOM     12  C   UNL     1       5.500   4.103  19.287  0.00  0.00    +0.000 C 
ATOM     13  C   UNL     1       6.237   5.439  19.246  0.00  0.00    +0.000 C 
ATOM     14  C   UNL     1       7.184   5.662  18.063  0.00  0.00    +0.000 C 
ATOM     15  C   UNL     1       6.459   6.115  16.778  0.00  0.00    +0.000 C 
ATOM     16  F   UNL     1       6.293   7.477  16.860  0.00  0.00    +0.000 F 
ATOM     17  C   UNL     1       5.078   5.542  16.494  0.00  0.00    +0.000 C 
ATOM     18  C   UNL     1       4.910   4.074  16.848  0.00  0.00    +0.000 C 
BRANCH  14  19
ATOM     19  N   UNL     1       8.113   4.536  17.857  0.00  0.00    +0.000 NA
ATOM     20  H   UNL     1       8.896   4.793  17.260  0.00  0.00    +0.000 HD
ATOM     21  H   UNL     1       7.631   3.773  17.383  0.00  0.00    +0.000 HD
ENDBRANCH  14  19
ENDBRANCH  10  11
ENDBRANCH   3   5
BRANCH   1  24
ATOM     22  C   UNL     1       0.827   9.644  20.117  0.00  0.00    +0.000 A 
ATOM     23  N   UNL     1       1.080   8.427  20.572  0.00  0.00    +0.000 NA
ATOM     24  C   UNL     1       1.824   7.704  19.613  0.00  0.00    +0.000 A 
ATOM     25  C   UNL     1       2.198   8.454  18.501  0.00  0.00    +0.000 A 
ATOM     26  S   UNL     1       1.589  10.037  18.629  0.00  0.00    +0.000 S 
BRANCH  22  33
ATOM     27  C   UNL     1      -0.257   9.747  23.252  0.00  0.00    +0.000 C 
ATOM     28  C   UNL     1      -0.574  10.655  22.122  0.00  0.00    +0.000 A 
ATOM     29  N   UNL     1      -1.440  11.662  22.317  0.00  0.00    +0.000 NA
ATOM     30  N   UNL     1      -1.510  12.267  21.118  0.00  0.00    +0.000 N 
ATOM     31  C   UNL     1      -2.441  13.352  20.902  0.00  0.00    +0.000 C 
ATOM     32  C   UNL     1      -0.684  11.714  20.184  0.00  0.00    +0.000 A 
ATOM     33  C   UNL     1      -0.089  10.624  20.791  0.00  0.00    +0.000 A 
ENDBRANCH  22  33
BRANCH  25  34
ATOM     34  N   UNL     1       2.920   8.104  17.409  0.00  0.00    +0.000 N 
ATOM     35  H   UNL     1       3.019   7.116  17.172  0.00  0.00    +0.000 HD
ATOM     36  H   UNL     1       2.952   8.731  16.611  0.00  0.00    +0.000 HD
ENDBRANCH  25  34
ENDBRANCH   1  24
TORSDOF 6
ENDMDL
MODEL 3
REMARK VINA RESULT:      -7.7      2.541      4.196
REMARK  Name = 
REMARK  9 active torsions:
REMARK  status: ('A' for Active; 'I' for Inactive)
REMARK    1  A    between atoms: C_1  and  C_2
REMARK    2  A    between atoms: N_4  and  C_5
REMARK    3  A    between atoms: C_7  and  C_8
REMARK    4  A    between atoms: C_10  and  C_11
REMARK    5  A    between atoms: N_13  and  C_14
REMARK    6  A    between atoms: N_17  and  C_18
REMARK    7  A    between atoms: C_19  and  N_20
REMARK    8  A    between atoms: C_23  and  N_24
REMARK    9  A    between atoms: C_29  and  N_30
REMARK                            x       y       z     vdW  Elec       q    Type
REMARK                         _______ _______ _______ _____ _____    ______ ____
ROOT
ATOM      1  C   UNL     1       2.224   8.258  18.356  0.00  0.00    +0.000 C 
ATOM      2  O   UNL     1       1.857   8.564  17.222  0.00  0.00    +0.000 OA
ATOM      3  N   UNL     1       3.290   7.410  18.620  0.00  0.00    +0.000 N 
ATOM      4  H   UNL     1       3.662   7.442  19.561  0.00  0.00    +0.000 HD
ENDROOT
BRANCH   3   5
ATOM      5  C   UNL     1       4.057   6.817  17.633  0.00  0.00    +0.000 A 
ATOM      6  C   UNL     1       4.983   7.415  16.759  0.00  0.00    +0.000 A 
ATOM      7  N   UNL     1       5.478   6.555  15.870  0.00  0.00    +0.000 NA
ATOM      8  N   UNL     1       4.903   5.378  16.201  0.00  0.00    +0.000 N 
ATOM      9  C   UNL     1       5.365   4.211  15.481  0.00  0.00    +0.000 C 
ATOM     10  C   UNL     1       4.027   5.471  17.283  0.00  0.00    +0.000 A 
BRANCH  10  11
ATOM     11  N   UNL     1       3.386   4.414  17.901  0.00  0.00    +0.000 N 
ATOM     12  C   UNL     1       1.957   4.165  17.732  0.00  0.00    +0.000 C 
ATOM     13  C   UNL     1       1.225   3.838  19.031  0.00  0.00    +0.000 C 
ATOM     14  C   UNL     1       1.543   2.486  19.675  0.00  0.00    +0.000 C 
ATOM     15  C   UNL     1       2.844   2.498  20.507  0.00  0.00    +0.000 C 
ATOM     16  F   UNL     1       2.528   2.981  21.754  0.00  0.00    +0.000 F 
ATOM     17  C   UNL     1       4.005   3.348  20.010  0.00  0.00    +0.000 C 
ATOM     18  C   UNL     1       4.200   3.346  18.504  0.00  0.00    +0.000 C 
BRANCH  14  19
ATOM     19  N   UNL     1       1.458   1.367  18.721  0.00  0.00    +0.000 NA
ATOM     20  H   UNL     1       1.811   1.622  17.801  0.00  0.00    +0.000 HD
ATOM     21  H   UNL     1       0.483   1.099  18.588  0.00  0.00    +0.000 HD
ENDBRANCH  14  19
ENDBRANCH  10  11
ENDBRANCH   3   5
BRANCH   1  24
ATOM     22  C   UNL     1       0.731  10.454  20.857  0.00  0.00    +0.000 A 
ATOM     23  N   UNL     1       1.140  10.175  19.630  0.00  0.00    +0.000 NA
ATOM     24  C   UNL     1       1.586   8.835  19.568  0.00  0.00    +0.000 A 
ATOM     25  C   UNL     1       1.393   8.117  20.745  0.00  0.00    +0.000 A 
ATOM     26  S   UNL     1       0.700   9.117  21.935  0.00  0.00    +0.000 S 
BRANCH  22  33
ATOM     27  C   UNL     1       2.038  13.405  20.083  0.00  0.00    +0.000 C 
ATOM     28  C   UNL     1       0.934  13.087  21.022  0.00  0.00    +0.000 A 
ATOM     29  N   UNL     1       0.360  14.084  21.715  0.00  0.00    +0.000 NA
ATOM     30  N   UNL     1      -0.572  13.466  22.462  0.00  0.00    +0.000 N 
ATOM     31  C   UNL     1      -1.337  14.210  23.436  0.00  0.00    +0.000 C 
ATOM     32  C   UNL     1      -0.643  12.122  22.234  0.00  0.00    +0.000 A 
ATOM     33  C   UNL     1       0.361  11.829  21.331  0.00  0.00    +0.000 A 
ENDBRANCH  22  33
BRANCH  25  34
ATOM     34  N   UNL     1       1.676   6.825  21.042  0.00  0.00    +0.000 N 
ATOM     35  H   UNL     1       1.337   6.429  21.919  0.00  0.00    +0.000 HD
ATOM     36  H   UNL     1       1.773   6.152  20.288  0.00  0.00    +0.000 HD
ENDBRANCH  25  34
ENDBRANCH   1  24
TORSDOF 6
ENDMDL
MODEL 4
REMARK VINA RESULT:      -7.7      1.335      1.945
REMARK  Name = 
REMARK  9 active torsions:
REMARK  status: ('A' for Active; 'I' for Inactive)
REMARK    1  A    between atoms: C_1  and  C_2
REMARK    2  A    between atoms: N_4  and  C_5
REMARK    3  A    between atoms: C_7  and  C_8
REMARK    4  A    between atoms: C_10  and  C_11
REMARK    5  A    between atoms: N_13  and  C_14
REMARK    6  A    between atoms: N_17  and  C_18
REMARK    7  A    between atoms: C_19  and  N_20
REMARK    8  A    between atoms: C_23  and  N_24
REMARK    9  A    between atoms: C_29  and  N_30
REMARK                            x       y       z     vdW  Elec       q    Type
REMARK                         _______ _______ _______ _____ _____    ______ ____
ROOT
ATOM      1  C   UNL     1       2.033   6.524  19.935  0.00  0.00    +0.000 C 
ATOM      2  O   UNL     1       2.495   6.133  21.007  0.00  0.00    +0.000 OA
ATOM      3  N   UNL     1       1.773   5.689  18.858  0.00  0.00    +0.000 N 
ATOM      4  H   UNL     1       1.160   6.061  18.144  0.00  0.00    +0.000 HD
ENDROOT
BRANCH   3   5
ATOM      5  C   UNL     1       2.006   4.325  18.874  0.00  0.00    +0.000 A 
ATOM      6  C   UNL     1       1.171   3.295  19.343  0.00  0.00    +0.000 A 
ATOM      7  N   UNL     1       1.753   2.098  19.287  0.00  0.00    +0.000 NA
ATOM      8  N   UNL     1       2.959   2.348  18.732  0.00  0.00    +0.000 N 
ATOM      9  C   UNL     1       3.773   1.195  18.415  0.00  0.00    +0.000 C 
ATOM     10  C   UNL     1       3.171   3.697  18.445  0.00  0.00    +0.000 A 
BRANCH  10  11
ATOM     11  N   UNL     1       4.263   4.224  17.782  0.00  0.00    +0.000 N 
ATOM     12  C   UNL     1       4.482   4.013  16.354  0.00  0.00    +0.000 C 
ATOM     13  C   UNL     1       5.920   3.650  15.993  0.00  0.00    +0.000 C 
ATOM     14  C   UNL     1       6.966   4.758  16.149  0.00  0.00    +0.000 C 
ATOM     15  C   UNL     1       7.460   4.930  17.602  0.00  0.00    +0.000 C 
ATOM     16  F   UNL     1       8.456   4.006  17.808  0.00  0.00    +0.000 F 
ATOM     17  C   UNL     1       6.459   4.724  18.729  0.00  0.00    +0.000 C 
ATOM     18  C   UNL     1       5.065   5.261  18.452  0.00  0.00    +0.000 C 
BRANCH  14  19
ATOM     19  N   UNL     1       6.559   6.020  15.506  0.00  0.00    +0.000 NA
ATOM     20  H   UNL     1       6.247   5.876  14.548  0.00  0.00    +0.000 HD
ATOM     21  H   UNL     1       7.355   6.655  15.455  0.00  0.00    +0.000 HD
ENDBRANCH  14  19
ENDBRANCH  10  11
ENDBRANCH   3   5
BRANCH   1  24
ATOM     22  C   UNL     1       0.579   9.860  20.164  0.00  0.00    +0.000 A 
ATOM     23  N   UNL     1       0.889   8.675  20.664  0.00  0.00    +0.000 NA
ATOM     24  C   UNL     1       1.642   7.941  19.720  0.00  0.00    +0.000 A 
ATOM     25  C   UNL     1       1.964   8.657  18.570  0.00  0.00    +0.000 A 
ATOM     26  S   UNL     1       1.296  10.219  18.645  0.00  0.00    +0.000 S 
BRANCH  22  33
ATOM     27  C   UNL     1      -0.541   9.984  23.285  0.00  0.00    +0.000 C 
ATOM     28  C   UNL     1      -0.862  10.871  22.140  0.00  0.00    +0.000 A 
ATOM     29  N   UNL     1      -1.749  11.864  22.313  0.00  0.00    +0.000 NA
ATOM     30  N   UNL     1      -1.816  12.453  21.106  0.00  0.00    +0.000 N 
ATOM     31  C   UNL     1      -2.764  13.518  20.866  0.00  0.00    +0.000 C 
ATOM     32  C   UNL     1      -0.970  11.903  20.188  0.00  0.00    +0.000 A 
ATOM     33  C   UNL     1      -0.362  10.832  20.815  0.00  0.00    +0.000 A 
ENDBRANCH  22  33
BRANCH  25  34
ATOM     34  N   UNL     1       2.679   8.288  17.479  0.00  0.00    +0.000 N 
ATOM     35  H   UNL     1       2.187   7.947  16.652  0.00  0.00    +0.000 HD
ATOM     36  H   UNL     1       3.559   8.754  17.280  0.00  0.00    +0.000 HD
ENDBRANCH  25  34
ENDBRANCH   1  24
TORSDOF 6
ENDMDL
MODEL 5
REMARK VINA RESULT:      -7.6      2.429      4.101
REMARK  Name = 
REMARK  9 active torsions:
REMARK  status: ('A' for Active; 'I' for Inactive)
REMARK    1  A    between atoms: C_1  and  C_2
REMARK    2  A    between atoms: N_4  and  C_5
REMARK    3  A    between atoms: C_7  and  C_8
REMARK    4  A    between atoms: C_10  and  C_11
REMARK    5  A    between atoms: N_13  and  C_14
REMARK    6  A    between atoms: N_17  and  C_18
REMARK    7  A    between atoms: C_19  and  N_20
REMARK    8  A    between atoms: C_23  and  N_24
REMARK    9  A    between atoms: C_29  and  N_30
REMARK                            x       y       z     vdW  Elec       q    Type
REMARK                         _______ _______ _______ _____ _____    ______ ____
ROOT
ATOM      1  C   UNL     1       2.258   8.442  18.212  0.00  0.00    +0.000 C 
ATOM      2  O   UNL     1       2.183   8.889  17.067  0.00  0.00    +0.000 OA
ATOM      3  N   UNL     1       3.136   7.436  18.590  0.00  0.00    +0.000 N 
ATOM      4  H   UNL     1       3.297   7.337  19.584  0.00  0.00    +0.000 HD
ENDROOT
BRANCH   3   5
ATOM      5  C   UNL     1       4.023   6.828  17.720  0.00  0.00    +0.000 A 
ATOM      6  C   UNL     1       5.018   7.420  16.920  0.00  0.00    +0.000 A 
ATOM      7  N   UNL     1       5.633   6.540  16.132  0.00  0.00    +0.000 NA
ATOM      8  N   UNL     1       5.063   5.358  16.457  0.00  0.00    +0.000 N 
ATOM      9  C   UNL     1       5.638   4.178  15.847  0.00  0.00    +0.000 C 
ATOM     10  C   UNL     1       4.074   5.467  17.435  0.00  0.00    +0.000 A 
BRANCH  10  11
ATOM     11  N   UNL     1       3.404   4.416  18.032  0.00  0.00    +0.000 N 
ATOM     12  C   UNL     1       2.265   3.759  17.398  0.00  0.00    +0.000 C 
ATOM     13  C   UNL     1       1.092   3.504  18.340  0.00  0.00    +0.000 C 
ATOM     14  C   UNL     1       1.302   2.441  19.423  0.00  0.00    +0.000 C 
ATOM     15  C   UNL     1       2.070   2.968  20.654  0.00  0.00    +0.000 C 
ATOM     16  F   UNL     1       1.154   3.579  21.477  0.00  0.00    +0.000 F 
ATOM     17  C   UNL     1       3.175   3.989  20.426  0.00  0.00    +0.000 C 
ATOM     18  C   UNL     1       4.022   3.749  19.189  0.00  0.00    +0.000 C 
BRANCH  14  19
ATOM     19  N   UNL     1       1.836   1.178  18.884  0.00  0.00    +0.000 NA
ATOM     20  H   UNL     1       2.330   1.316  18.006  0.00  0.00    +0.000 HD
ATOM     21  H   UNL     1       1.070   0.536  18.683  0.00  0.00    +0.000 HD
ENDBRANCH  14  19
ENDBRANCH  10  11
ENDBRANCH   3   5
BRANCH   1  24
ATOM     22  C   UNL     1       0.198  10.524  20.383  0.00  0.00    +0.000 A 
ATOM     23  N   UNL     1       0.724  10.207  19.211  0.00  0.00    +0.000 NA
ATOM     24  C   UNL     1       1.446   8.997  19.325  0.00  0.00    +0.000 A 
ATOM     25  C   UNL     1       1.343   8.389  20.573  0.00  0.00    +0.000 A 
ATOM     26  S   UNL     1       0.389   9.340  21.612  0.00  0.00    +0.000 S 
BRANCH  22  33
ATOM     27  C   UNL     1      -2.508  11.880  19.020  0.00  0.00    +0.000 C 
ATOM     28  C   UNL     1      -1.621  12.423  20.078  0.00  0.00    +0.000 A 
ATOM     29  N   UNL     1      -1.872  13.644  20.577  0.00  0.00    +0.000 NA
ATOM     30  N   UNL     1      -0.898  13.831  21.485  0.00  0.00    +0.000 N 
ATOM     31  C   UNL     1      -0.770  15.099  22.167  0.00  0.00    +0.000 C 
ATOM     32  C   UNL     1      -0.068  12.755  21.617  0.00  0.00    +0.000 A 
ATOM     33  C   UNL     1      -0.482  11.831  20.677  0.00  0.00    +0.000 A 
ENDBRANCH  22  33
BRANCH  25  34
ATOM     34  N   UNL     1       1.876   7.230  21.031  0.00  0.00    +0.000 N 
ATOM     35  H   UNL     1       2.884   7.167  21.175  0.00  0.00    +0.000 HD
ATOM     36  H   UNL     1       1.327   6.640  21.648  0.00  0.00    +0.000 HD
ENDBRANCH  25  34
ENDBRANCH   1  24
TORSDOF 6
ENDMDL
MODEL 6
REMARK VINA RESULT:      -7.6      2.524      4.187
REMARK  Name = 
REMARK  9 active torsions:
REMARK  status: ('A' for Active; 'I' for Inactive)
REMARK    1  A    between atoms: C_1  and  C_2
REMARK    2  A    between atoms: N_4  and  C_5
REMARK    3  A    between atoms: C_7  and  C_8
REMARK    4  A    between atoms: C_10  and  C_11
REMARK    5  A    between atoms: N_13  and  C_14
REMARK    6  A    between atoms: N_17  and  C_18
REMARK    7  A    between atoms: C_19  and  N_20
REMARK    8  A    between atoms: C_23  and  N_24
REMARK    9  A    between atoms: C_29  and  N_30
REMARK                            x       y       z     vdW  Elec       q    Type
REMARK                         _______ _______ _______ _____ _____    ______ ____
ROOT
ATOM      1  C   UNL     1       2.218   8.185  18.357  0.00  0.00    +0.000 C 
ATOM      2  O   UNL     1       1.778   8.396  17.227  0.00  0.00    +0.000 OA
ATOM      3  N   UNL     1       3.348   7.422  18.613  0.00  0.00    +0.000 N 
ATOM      4  H   UNL     1       3.763   7.535  19.530  0.00  0.00    +0.000 HD
ENDROOT
BRANCH   3   5
ATOM      5  C   UNL     1       4.103   6.817  17.624  0.00  0.00    +0.000 A 
ATOM      6  C   UNL     1       5.027   7.402  16.739  0.00  0.00    +0.000 A 
ATOM      7  N   UNL     1       5.508   6.533  15.852  0.00  0.00    +0.000 NA
ATOM      8  N   UNL     1       4.927   5.363  16.194  0.00  0.00    +0.000 N 
ATOM      9  C   UNL     1       5.375   4.188  15.477  0.00  0.00    +0.000 C 
ATOM     10  C   UNL     1       4.061   5.469  17.283  0.00  0.00    +0.000 A 
BRANCH  10  11
ATOM     11  N   UNL     1       3.415   4.421  17.912  0.00  0.00    +0.000 N 
ATOM     12  C   UNL     1       1.986   4.174  17.745  0.00  0.00    +0.000 C 
ATOM     13  C   UNL     1       1.253   3.864  19.047  0.00  0.00    +0.000 C 
ATOM     14  C   UNL     1       1.567   2.517  19.705  0.00  0.00    +0.000 C 
ATOM     15  C   UNL     1       2.867   2.535  20.537  0.00  0.00    +0.000 C 
ATOM     16  F   UNL     1       2.553   3.031  21.779  0.00  0.00    +0.000 F 
ATOM     17  C   UNL     1       4.031   3.375  20.032  0.00  0.00    +0.000 C 
ATOM     18  C   UNL     1       4.226   3.357  18.526  0.00  0.00    +0.000 C 
BRANCH  14  19
ATOM     19  N   UNL     1       1.478   1.388  18.763  0.00  0.00    +0.000 NA
ATOM     20  H   UNL     1       0.520   1.215  18.465  0.00  0.00    +0.000 HD
ATOM     21  H   UNL     1       1.795   0.533  19.217  0.00  0.00    +0.000 HD
ENDBRANCH  14  19
ENDBRANCH  10  11
ENDBRANCH   3   5
BRANCH   1  24
ATOM     22  C   UNL     1       0.784  10.451  20.828  0.00  0.00    +0.000 A 
ATOM     23  N   UNL     1       1.171  10.139  19.601  0.00  0.00    +0.000 NA
ATOM     24  C   UNL     1       1.605   8.795  19.564  0.00  0.00    +0.000 A 
ATOM     25  C   UNL     1       1.424   8.107  20.761  0.00  0.00    +0.000 A 
ATOM     26  S   UNL     1       0.759   9.140  21.937  0.00  0.00    +0.000 S 
BRANCH  22  33
ATOM     27  C   UNL     1      -1.545  11.484  22.955  0.00  0.00    +0.000 C 
ATOM     28  C   UNL     1      -0.579  12.285  22.163  0.00  0.00    +0.000 A 
ATOM     29  N   UNL     1      -0.619  13.625  22.246  0.00  0.00    +0.000 NA
ATOM     30  N   UNL     1       0.357  14.031  21.415  0.00  0.00    +0.000 N 
ATOM     31  C   UNL     1       0.552  15.440  21.153  0.00  0.00    +0.000 C 
ATOM     32  C   UNL     1       1.047  13.001  20.846  0.00  0.00    +0.000 A 
ATOM     33  C   UNL     1       0.432  11.840  21.275  0.00  0.00    +0.000 A 
ENDBRANCH  22  33
BRANCH  25  34
ATOM     34  N   UNL     1       1.701   6.820  21.083  0.00  0.00    +0.000 N 
ATOM     35  H   UNL     1       1.716   6.544  22.066  0.00  0.00    +0.000 HD
ATOM     36  H   UNL     1       1.433   6.078  20.444  0.00  0.00    +0.000 HD
ENDBRANCH  25  34
ENDBRANCH   1  24
TORSDOF 6
ENDMDL
MODEL 7
REMARK VINA RESULT:      -7.6      0.717      1.237
REMARK  Name = 
REMARK  9 active torsions:
REMARK  status: ('A' for Active; 'I' for Inactive)
REMARK    1  A    between atoms: C_1  and  C_2
REMARK    2  A    between atoms: N_4  and  C_5
REMARK    3  A    between atoms: C_7  and  C_8
REMARK    4  A    between atoms: C_10  and  C_11
REMARK    5  A    between atoms: N_13  and  C_14
REMARK    6  A    between atoms: N_17  and  C_18
REMARK    7  A    between atoms: C_19  and  N_20
REMARK    8  A    between atoms: C_23  and  N_24
REMARK    9  A    between atoms: C_29  and  N_30
REMARK                            x       y       z     vdW  Elec       q    Type
REMARK                         _______ _______ _______ _____ _____    ______ ____
ROOT
ATOM      1  C   UNL     1       2.010   6.560  19.590  0.00  0.00    +0.000 C 
ATOM      2  O   UNL     1       2.068   6.182  20.760  0.00  0.00    +0.000 OA
ATOM      3  N   UNL     1       2.015   5.701  18.501  0.00  0.00    +0.000 N 
ATOM      4  H   UNL     1       1.700   6.094  17.623  0.00  0.00    +0.000 HD
ENDROOT
BRANCH   3   5
ATOM      5  C   UNL     1       2.086   4.324  18.614  0.00  0.00    +0.000 A 
ATOM      6  C   UNL     1       1.046   3.405  18.847  0.00  0.00    +0.000 A 
ATOM      7  N   UNL     1       1.488   2.156  18.987  0.00  0.00    +0.000 NA
ATOM      8  N   UNL     1       2.822   2.259  18.795  0.00  0.00    +0.000 N 
ATOM      9  C   UNL     1       3.563   1.017  18.751  0.00  0.00    +0.000 C 
ATOM     10  C   UNL     1       3.250   3.564  18.551  0.00  0.00    +0.000 A 
BRANCH  10  11
ATOM     11  N   UNL     1       4.535   3.948  18.216  0.00  0.00    +0.000 N 
ATOM     12  C   UNL     1       5.584   4.111  19.219  0.00  0.00    +0.000 C 
ATOM     13  C   UNL     1       6.419   5.376  19.043  0.00  0.00    +0.000 C 
ATOM     14  C   UNL     1       7.355   5.416  17.832  0.00  0.00    +0.000 C 
ATOM     15  C   UNL     1       6.638   5.807  16.521  0.00  0.00    +0.000 C 
ATOM     16  F   UNL     1       6.578   7.179  16.479  0.00  0.00    +0.000 F 
ATOM     17  C   UNL     1       5.212   5.319  16.311  0.00  0.00    +0.000 C 
ATOM     18  C   UNL     1       4.940   3.907  16.802  0.00  0.00    +0.000 C 
BRANCH  14  19
ATOM     19  N   UNL     1       8.190   4.208  17.716  0.00  0.00    +0.000 NA
ATOM     20  H   UNL     1       8.931   4.321  17.029  0.00  0.00    +0.000 HD
ATOM     21  H   UNL     1       7.622   3.424  17.397  0.00  0.00    +0.000 HD
ENDBRANCH  14  19
ENDBRANCH  10  11
ENDBRANCH   3   5
BRANCH   1  24
ATOM     22  C   UNL     1       0.992  10.055  19.372  0.00  0.00    +0.000 A 
ATOM     23  N   UNL     1       1.040   8.879  19.976  0.00  0.00    +0.000 NA
ATOM     24  C   UNL     1       1.859   7.995  19.238  0.00  0.00    +0.000 A 
ATOM     25  C   UNL     1       2.489   8.585  18.145  0.00  0.00    +0.000 A 
ATOM     26  S   UNL     1       2.031  10.218  18.014  0.00  0.00    +0.000 S 
BRANCH  22  33
ATOM     27  C   UNL     1       1.694  12.997  20.738  0.00  0.00    +0.000 C 
ATOM     28  C   UNL     1       0.374  12.421  20.383  0.00  0.00    +0.000 A 
ATOM     29  N   UNL     1      -0.738  13.123  20.656  0.00  0.00    +0.000 NA
ATOM     30  N   UNL     1      -1.737  12.329  20.228  0.00  0.00    +0.000 N 
ATOM     31  C   UNL     1      -3.114  12.704  20.453  0.00  0.00    +0.000 C 
ATOM     32  C   UNL     1      -1.298  11.173  19.649  0.00  0.00    +0.000 A 
ATOM     33  C   UNL     1       0.078  11.176  19.776  0.00  0.00    +0.000 A 
ENDBRANCH  22  33
BRANCH  25  34
ATOM     34  N   UNL     1       3.348   8.058  17.238  0.00  0.00    +0.000 N 
ATOM     35  H   UNL     1       4.210   8.558  17.018  0.00  0.00    +0.000 HD
ATOM     36  H   UNL     1       3.413   7.049  17.142  0.00  0.00    +0.000 HD
ENDBRANCH  25  34
ENDBRANCH   1  24
TORSDOF 6
ENDMDL
MODEL 8
REMARK VINA RESULT:      -7.5      1.184      1.582
REMARK  Name = 
REMARK  9 active torsions:
REMARK  status: ('A' for Active; 'I' for Inactive)
REMARK    1  A    between atoms: C_1  and  C_2
REMARK    2  A    between atoms: N_4  and  C_5
REMARK    3  A    between atoms: C_7  and  C_8
REMARK    4  A    between atoms: C_10  and  C_11
REMARK    5  A    between atoms: N_13  and  C_14
REMARK    6  A    between atoms: N_17  and  C_18
REMARK    7  A    between atoms: C_19  and  N_20
REMARK    8  A    between atoms: C_23  and  N_24
REMARK    9  A    between atoms: C_29  and  N_30
REMARK                            x       y       z     vdW  Elec       q    Type
REMARK                         _______ _______ _______ _____ _____    ______ ____
ROOT
ATOM      1  C   UNL     1       1.893   6.668  20.019  0.00  0.00    +0.000 C 
ATOM      2  O   UNL     1       2.199   6.263  21.140  0.00  0.00    +0.000 OA
ATOM      3  N   UNL     1       1.773   5.844  18.909  0.00  0.00    +0.000 N 
ATOM      4  H   UNL     1       1.268   6.230  18.121  0.00  0.00    +0.000 HD
ENDROOT
BRANCH   3   5
ATOM      5  C   UNL     1       1.984   4.477  18.944  0.00  0.00    +0.000 A 
ATOM      6  C   UNL     1       1.139   3.468  19.441  0.00  0.00    +0.000 A 
ATOM      7  N   UNL     1       1.701   2.261  19.397  0.00  0.00    +0.000 NA
ATOM      8  N   UNL     1       2.903   2.483  18.822  0.00  0.00    +0.000 N 
ATOM      9  C   UNL     1       3.694   1.311  18.513  0.00  0.00    +0.000 C 
ATOM     10  C   UNL     1       3.133   3.823  18.510  0.00  0.00    +0.000 A 
BRANCH  10  11
ATOM     11  N   UNL     1       4.224   4.322  17.824  0.00  0.00    +0.000 N 
ATOM     12  C   UNL     1       4.425   4.078  16.399  0.00  0.00    +0.000 C 
ATOM     13  C   UNL     1       5.854   3.688  16.031  0.00  0.00    +0.000 C 
ATOM     14  C   UNL     1       6.915   4.785  16.151  0.00  0.00    +0.000 C 
ATOM     15  C   UNL     1       7.428   4.981  17.594  0.00  0.00    +0.000 C 
ATOM     16  F   UNL     1       8.414   4.048  17.809  0.00  0.00    +0.000 F 
ATOM     17  C   UNL     1       6.436   4.812  18.737  0.00  0.00    +0.000 C 
ATOM     18  C   UNL     1       5.047   5.362  18.463  0.00  0.00    +0.000 C 
BRANCH  14  19
ATOM     19  N   UNL     1       6.518   6.038  15.486  0.00  0.00    +0.000 NA
ATOM     20  H   UNL     1       6.572   6.837  16.114  0.00  0.00    +0.000 HD
ATOM     21  H   UNL     1       5.546   5.977  15.184  0.00  0.00    +0.000 HD
ENDBRANCH  14  19
ENDBRANCH  10  11
ENDBRANCH   3   5
BRANCH   1  24
ATOM     22  C   UNL     1       0.545  10.054  20.145  0.00  0.00    +0.000 A 
ATOM     23  N   UNL     1       0.805   8.870  20.677  0.00  0.00    +0.000 NA
ATOM     24  C   UNL     1       1.554   8.092  19.766  0.00  0.00    +0.000 A 
ATOM     25  C   UNL     1       1.923   8.771  18.608  0.00  0.00    +0.000 A 
ATOM     26  S   UNL     1       1.305  10.355  18.635  0.00  0.00    +0.000 S 
BRANCH  22  33
ATOM     27  C   UNL     1      -2.097  11.588  18.850  0.00  0.00    +0.000 C 
ATOM     28  C   UNL     1      -1.490  11.745  20.195  0.00  0.00    +0.000 A 
ATOM     29  N   UNL     1      -2.014  12.641  21.047  0.00  0.00    +0.000 NA
ATOM     30  N   UNL     1      -1.239  12.539  22.142  0.00  0.00    +0.000 N 
ATOM     31  C   UNL     1      -1.431  13.439  23.257  0.00  0.00    +0.000 C 
ATOM     32  C   UNL     1      -0.275  11.579  22.035  0.00  0.00    +0.000 A 
ATOM     33  C   UNL     1      -0.378  11.069  20.755  0.00  0.00    +0.000 A 
ENDBRANCH  22  33
BRANCH  25  34
ATOM     34  N   UNL     1       2.648   8.356  17.540  0.00  0.00    +0.000 N 
ATOM     35  H   UNL     1       2.697   7.359  17.328  0.00  0.00    +0.000 HD
ATOM     36  H   UNL     1       2.731   8.961  16.729  0.00  0.00    +0.000 HD
ENDBRANCH  25  34
ENDBRANCH   1  24
TORSDOF 6
ENDMDL
MODEL 9
REMARK VINA RESULT:      -7.5      1.820      2.284
REMARK  Name = 
REMARK  9 active torsions:
REMARK  status: ('A' for Active; 'I' for Inactive)
REMARK    1  A    between atoms: C_1  and  C_2
REMARK    2  A    between atoms: N_4  and  C_5
REMARK    3  A    between atoms: C_7  and  C_8
REMARK    4  A    between atoms: C_10  and  C_11
REMARK    5  A    between atoms: N_13  and  C_14
REMARK    6  A    between atoms: N_17  and  C_18
REMARK    7  A    between atoms: C_19  and  N_20
REMARK    8  A    between atoms: C_23  and  N_24
REMARK    9  A    between atoms: C_29  and  N_30
REMARK                            x       y       z     vdW  Elec       q    Type
REMARK                         _______ _______ _______ _____ _____    ______ ____
ROOT
ATOM      1  C   UNL     1       1.814   6.753  19.373  0.00  0.00    +0.000 C 
ATOM      2  O   UNL     1       1.599   6.148  18.323  0.00  0.00    +0.000 OA
ATOM      3  N   UNL     1       2.324   6.155  20.516  0.00  0.00    +0.000 N 
ATOM      4  H   UNL     1       2.704   6.782  21.215  0.00  0.00    +0.000 HD
ENDROOT
BRANCH   3   5
ATOM      5  C   UNL     1       2.647   4.812  20.598  0.00  0.00    +0.000 A 
ATOM      6  C   UNL     1       2.095   3.822  21.430  0.00  0.00    +0.000 A 
ATOM      7  N   UNL     1       2.710   2.647  21.307  0.00  0.00    +0.000 NA
ATOM      8  N   UNL     1       3.640   2.864  20.352  0.00  0.00    +0.000 N 
ATOM      9  C   UNL     1       4.384   1.708  19.902  0.00  0.00    +0.000 C 
ATOM     10  C   UNL     1       3.645   4.173  19.868  0.00  0.00    +0.000 A 
BRANCH  10  11
ATOM     11  N   UNL     1       4.412   4.649  18.821  0.00  0.00    +0.000 N 
ATOM     12  C   UNL     1       4.044   4.428  17.425  0.00  0.00    +0.000 C 
ATOM     13  C   UNL     1       5.208   3.998  16.537  0.00  0.00    +0.000 C 
ATOM     14  C   UNL     1       6.279   5.055  16.251  0.00  0.00    +0.000 C 
ATOM     15  C   UNL     1       7.310   5.202  17.391  0.00  0.00    +0.000 C 
ATOM     16  F   UNL     1       8.266   4.231  17.207  0.00  0.00    +0.000 F 
ATOM     17  C   UNL     1       6.823   5.043  18.824  0.00  0.00    +0.000 C 
ATOM     18  C   UNL     1       5.457   5.645  19.105  0.00  0.00    +0.000 C 
BRANCH  14  19
ATOM     19  N   UNL     1       5.709   6.335  15.796  0.00  0.00    +0.000 NA
ATOM     20  H   UNL     1       5.308   6.263  14.863  0.00  0.00    +0.000 HD
ATOM     21  H   UNL     1       6.443   7.040  15.739  0.00  0.00    +0.000 HD
ENDBRANCH  14  19
ENDBRANCH  10  11
ENDBRANCH   3   5
BRANCH   1  24
ATOM     22  C   UNL     1       0.883  10.114  20.438  0.00  0.00    +0.000 A 
ATOM     23  N   UNL     1       1.078   8.823  20.654  0.00  0.00    +0.000 NA
ATOM     24  C   UNL     1       1.605   8.219  19.490  0.00  0.00    +0.000 A 
ATOM     25  C   UNL     1       1.888   9.116  18.463  0.00  0.00    +0.000 A 
ATOM     26  S   UNL     1       1.461  10.695  18.929  0.00  0.00    +0.000 S 
BRANCH  22  33
ATOM     27  C   UNL     1      -0.485   9.480  23.395  0.00  0.00    +0.000 C 
ATOM     28  C   UNL     1      -0.437  10.756  22.640  0.00  0.00    +0.000 A 
ATOM     29  N   UNL     1      -1.041  11.841  23.153  0.00  0.00    +0.000 NA
ATOM     30  N   UNL     1      -0.822  12.799  22.235  0.00  0.00    +0.000 N 
ATOM     31  C   UNL     1      -1.423  14.105  22.388  0.00  0.00    +0.000 C 
ATOM     32  C   UNL     1      -0.061  12.377  21.184  0.00  0.00    +0.000 A 
ATOM     33  C   UNL     1       0.171  11.031  21.390  0.00  0.00    +0.000 A 
ENDBRANCH  22  33
BRANCH  25  34
ATOM     34  N   UNL     1       2.412   8.902  17.231  0.00  0.00    +0.000 N 
ATOM     35  H   UNL     1       2.514   9.689  16.590  0.00  0.00    +0.000 HD
ATOM     36  H   UNL     1       3.099   8.166  17.103  0.00  0.00    +0.000 HD
ENDBRANCH  25  34
ENDBRANCH   1  24
TORSDOF 6
ENDMDL
