MODEL 1
REMARK VINA RESULT:      -7.9      0.000      0.000
REMARK  Name = 
REMARK  5 active torsions:
REMARK  status: ('A' for Active; 'I' for Inactive)
REMARK    1  A    between atoms: S_2  and  C_4
REMARK    2  A    between atoms: S_2  and  N_13
REMARK    3  A    between atoms: C_4  and  C_5
REMARK    4  A    between atoms: C_5  and  C_6
REMARK    5  A    between atoms: C_17  and  C_18
REMARK                            x       y       z     vdW  Elec       q    Type
REMARK                         _______ _______ _______ _____ _____    ______ ____
ROOT
ATOM      1  O   UNL     1       7.641   5.970  19.270  0.00  0.00    +0.000 OA
ATOM      2  S   UNL     1       7.527   4.962  18.238  0.00  0.00    +0.000 S 
ATOM      3  O   UNL     1       8.575   3.988  18.032  0.00  0.00    +0.000 OA
ENDROOT
BRANCH   2   4
ATOM      4  N   UNL     1       7.248   5.752  16.767  0.00  0.00    +0.000 NA
ATOM      5  C   UNL     1       7.060   7.218  16.803  0.00  0.00    +0.000 C 
ATOM      6  C   UNL     1       5.559   7.399  16.852  0.00  0.00    +0.000 C 
ATOM      7  C   UNL     1       5.045   6.330  15.905  0.00  0.00    +0.000 C 
ATOM      8  C   UNL     1       6.102   5.203  15.939  0.00  0.00    +0.000 C 
BRANCH   8   9
ATOM      9  C   UNL     1       6.533   4.845  14.513  0.00  0.00    +0.000 A 
ATOM     10  N   UNL     1       7.602   5.499  13.996  0.00  0.00    +0.000 NA
ATOM     11  C   UNL     1       7.970   5.171  12.745  0.00  0.00    +0.000 A 
ATOM     12  C   UNL     1       7.324   4.224  11.990  0.00  0.00    +0.000 A 
ATOM     13  C   UNL     1       6.246   3.622  12.593  0.00  0.00    +0.000 A 
ATOM     14  N   UNL     1       5.823   3.916  13.839  0.00  0.00    +0.000 NA
ENDBRANCH   8   9
ENDBRANCH   2   4
BRANCH   2  15
ATOM     15  C   UNL     1       5.975   4.109  18.468  0.00  0.00    +0.000 C 
BRANCH  15  16
ATOM     16  C   UNL     1       5.065   4.854  19.433  0.00  0.00    +0.000 C 
BRANCH  16  17
ATOM     17  C   UNL     1       3.640   4.367  19.297  0.00  0.00    +0.000 A 
ATOM     18  C   UNL     1       3.073   4.189  18.025  0.00  0.00    +0.000 A 
ATOM     19  C   UNL     1       1.772   3.699  17.887  0.00  0.00    +0.000 A 
ATOM     20  C   UNL     1       1.024   3.379  19.018  0.00  0.00    +0.000 A 
ATOM     21  C   UNL     1       1.586   3.550  20.277  0.00  0.00    +0.000 A 
ATOM     22  F   UNL     1       0.871   3.234  21.365  0.00  0.00    +0.000 F 
ATOM     23  C   UNL     1       2.882   4.038  20.428  0.00  0.00    +0.000 A 
ENDBRANCH  16  17
ENDBRANCH  15  16
ENDBRANCH   2  15
TORSDOF 5
ENDMDL
MODEL 2
REMARK VINA RESULT:      -7.9      0.339      1.039
REMARK  Name = 
REMARK  5 active torsions:
REMARK  status: ('A' for Active; 'I' for Inactive)
REMARK    1  A    between atoms: S_2  and  C_4
REMARK    2  A    between atoms: S_2  and  N_13
REMARK    3  A    between atoms: C_4  and  C_5
REMARK    4  A    between atoms: C_5  and  C_6
REMARK    5  A    between atoms: C_17  and  C_18
REMARK                            x       y       z     vdW  Elec       q    Type
REMARK                         _______ _______ _______ _____ _____    ______ ____
ROOT
ATOM      1  O   UNL     1       7.639   5.989  19.249  0.00  0.00    +0.000 OA
ATOM      2  S   UNL     1       7.517   4.984  18.216  0.00  0.00    +0.000 S 
ATOM      3  O   UNL     1       8.564   4.009  18.000  0.00  0.00    +0.000 OA
ENDROOT
BRANCH   2   4
ATOM      4  N   UNL     1       7.229   5.777  16.748  0.00  0.00    +0.000 NA
ATOM      5  C   UNL     1       6.997   7.236  16.794  0.00  0.00    +0.000 C 
ATOM      6  C   UNL     1       5.491   7.372  16.830  0.00  0.00    +0.000 C 
ATOM      7  C   UNL     1       5.018   6.297  15.870  0.00  0.00    +0.000 C 
ATOM      8  C   UNL     1       6.107   5.201  15.905  0.00  0.00    +0.000 C 
BRANCH   8   9
ATOM      9  C   UNL     1       6.561   4.867  14.481  0.00  0.00    +0.000 A 
ATOM     10  N   UNL     1       5.848   3.940  13.795  0.00  0.00    +0.000 NA
ATOM     11  C   UNL     1       6.256   3.661  12.544  0.00  0.00    +0.000 A 
ATOM     12  C   UNL     1       7.337   4.260  11.950  0.00  0.00    +0.000 A 
ATOM     13  C   UNL     1       8.005   5.178  12.726  0.00  0.00    +0.000 A 
ATOM     14  N   UNL     1       7.650   5.492  13.987  0.00  0.00    +0.000 NA
ENDBRANCH   8   9
ENDBRANCH   2   4
BRANCH   2  15
ATOM     15  C   UNL     1       5.967   4.131  18.454  0.00  0.00    +0.000 C 
BRANCH  15  16
ATOM     16  C   UNL     1       5.010   4.941  19.315  0.00  0.00    +0.000 C 
BRANCH  16  17
ATOM     17  C   UNL     1       3.617   4.356  19.249  0.00  0.00    +0.000 A 
ATOM     18  C   UNL     1       2.809   4.579  18.123  0.00  0.00    +0.000 A 
ATOM     19  C   UNL     1       1.537   4.007  18.033  0.00  0.00    +0.000 A 
ATOM     20  C   UNL     1       1.060   3.204  19.067  0.00  0.00    +0.000 A 
ATOM     21  C   UNL     1       1.861   2.978  20.180  0.00  0.00    +0.000 A 
ATOM     22  F   UNL     1       1.406   2.198  21.170  0.00  0.00    +0.000 F 
ATOM     23  C   UNL     1       3.130   3.542  20.281  0.00  0.00    +0.000 A 
ENDBRANCH  16  17
ENDBRANCH  15  16
ENDBRANCH   2  15
TORSDOF 5
ENDMDL
MODEL 3
REMARK VINA RESULT:      -7.9      1.674      2.193
REMARK  Name = 
REMARK  5 active torsions:
REMARK  status: ('A' for Active; 'I' for Inactive)
REMARK    1  A    between atoms: S_2  and  C_4
REMARK    2  A    between atoms: S_2  and  N_13
REMARK    3  A    between atoms: C_4  and  C_5
REMARK    4  A    between atoms: C_5  and  C_6
REMARK    5  A    between atoms: C_17  and  C_18
REMARK                            x       y       z     vdW  Elec       q    Type
REMARK                         _______ _______ _______ _____ _____    ______ ____
ROOT
ATOM      1  O   UNL     1       5.475   4.220  19.594  0.00  0.00    +0.000 OA
ATOM      2  S   UNL     1       5.037   4.104  18.220  0.00  0.00    +0.000 S 
ATOM      3  O   UNL     1       4.396   2.898  17.743  0.00  0.00    +0.000 OA
ENDROOT
BRANCH   2   4
ATOM      4  N   UNL     1       6.367   4.421  17.221  0.00  0.00    +0.000 NA
ATOM      5  C   UNL     1       7.648   4.760  17.876  0.00  0.00    +0.000 C 
ATOM      6  C   UNL     1       7.668   6.273  17.893  0.00  0.00    +0.000 C 
ATOM      7  C   UNL     1       7.085   6.647  16.543  0.00  0.00    +0.000 C 
ATOM      8  C   UNL     1       6.146   5.481  16.159  0.00  0.00    +0.000 C 
BRANCH   8   9
ATOM      9  C   UNL     1       6.484   4.977  14.753  0.00  0.00    +0.000 A 
ATOM     10  N   UNL     1       7.584   5.489  14.148  0.00  0.00    +0.000 NA
ATOM     11  C   UNL     1       7.871   5.033  12.916  0.00  0.00    +0.000 A 
ATOM     12  C   UNL     1       7.113   4.094  12.262  0.00  0.00    +0.000 A 
ATOM     13  C   UNL     1       6.012   3.641  12.948  0.00  0.00    +0.000 A 
ATOM     14  N   UNL     1       5.668   4.067  14.179  0.00  0.00    +0.000 NA
ENDBRANCH   8   9
ENDBRANCH   2   4
BRANCH   2  15
ATOM     15  C   UNL     1       3.992   5.504  17.853  0.00  0.00    +0.000 C 
BRANCH  15  16
ATOM     16  C   UNL     1       3.186   5.934  19.070  0.00  0.00    +0.000 C 
BRANCH  16  17
ATOM     17  C   UNL     1       2.430   4.757  19.644  0.00  0.00    +0.000 A 
ATOM     18  C   UNL     1       2.498   4.476  21.018  0.00  0.00    +0.000 A 
ATOM     19  C   UNL     1       1.769   3.417  21.566  0.00  0.00    +0.000 A 
ATOM     20  C   UNL     1       0.961   2.630  20.747  0.00  0.00    +0.000 A 
ATOM     21  C   UNL     1       0.888   2.912  19.388  0.00  0.00    +0.000 A 
ATOM     22  F   UNL     1       0.105   2.161  18.602  0.00  0.00    +0.000 F 
ATOM     23  C   UNL     1       1.610   3.964  18.830  0.00  0.00    +0.000 A 
ENDBRANCH  16  17
ENDBRANCH  15  16
ENDBRANCH   2  15
TORSDOF 5
ENDMDL
MODEL 4
REMARK VINA RESULT:      -7.9      1.552      1.861
REMARK  Name = 
REMARK  5 active torsions:
REMARK  status: ('A' for Active; 'I' for Inactive)
REMARK    1  A    between atoms: S_2  and  C_4
REMARK    2  A    between atoms: S_2  and  N_13
REMARK    3  A    between atoms: C_4  and  C_5
REMARK    4  A    between atoms: C_5  and  C_6
REMARK    5  A    between atoms: C_17  and  C_18
REMARK                            x       y       z     vdW  Elec       q    Type
REMARK                         _______ _______ _______ _____ _____    ______ ____
ROOT
ATOM      1  O   UNL     1       5.557   5.063  19.973  0.00  0.00    +0.000 OA
ATOM      2  S   UNL     1       5.137   4.556  18.685  0.00  0.00    +0.000 S 
ATOM      3  O   UNL     1       4.639   3.206  18.544  0.00  0.00    +0.000 OA
ENDROOT
BRANCH   2   4
ATOM      4  N   UNL     1       6.423   4.757  17.602  0.00  0.00    +0.000 NA
ATOM      5  C   UNL     1       7.747   5.092  18.168  0.00  0.00    +0.000 C 
ATOM      6  C   UNL     1       7.817   6.601  18.079  0.00  0.00    +0.000 C 
ATOM      7  C   UNL     1       7.178   6.904  16.736  0.00  0.00    +0.000 C 
ATOM      8  C   UNL     1       6.182   5.749  16.481  0.00  0.00    +0.000 C 
BRANCH   8   9
ATOM      9  C   UNL     1       6.431   5.139  15.099  0.00  0.00    +0.000 A 
ATOM     10  N   UNL     1       7.555   5.511  14.439  0.00  0.00    +0.000 NA
ATOM     11  C   UNL     1       7.762   4.963  13.228  0.00  0.00    +0.000 A 
ATOM     12  C   UNL     1       6.902   4.065  12.648  0.00  0.00    +0.000 A 
ATOM     13  C   UNL     1       5.784   3.755  13.386  0.00  0.00    +0.000 A 
ATOM     14  N   UNL     1       5.518   4.279  14.599  0.00  0.00    +0.000 NA
ENDBRANCH   8   9
ENDBRANCH   2   4
BRANCH   2  15
ATOM     15  C   UNL     1       3.938   5.693  18.008  0.00  0.00    +0.000 C 
BRANCH  15  16
ATOM     16  C   UNL     1       2.835   6.003  19.007  0.00  0.00    +0.000 C 
BRANCH  16  17
ATOM     17  C   UNL     1       2.042   4.754  19.322  0.00  0.00    +0.000 A 
ATOM     18  C   UNL     1       1.449   4.014  18.287  0.00  0.00    +0.000 A 
ATOM     19  C   UNL     1       0.751   2.836  18.563  0.00  0.00    +0.000 A 
ATOM     20  C   UNL     1       0.641   2.382  19.876  0.00  0.00    +0.000 A 
ATOM     21  C   UNL     1       1.233   3.111  20.900  0.00  0.00    +0.000 A 
ATOM     22  F   UNL     1       1.135   2.670  22.162  0.00  0.00    +0.000 F 
ATOM     23  C   UNL     1       1.931   4.287  20.638  0.00  0.00    +0.000 A 
ENDBRANCH  16  17
ENDBRANCH  15  16
ENDBRANCH   2  15
TORSDOF 5
ENDMDL
MODEL 5
REMARK VINA RESULT:      -7.9      0.960      1.667
REMARK  Name = 
REMARK  5 active torsions:
REMARK  status: ('A' for Active; 'I' for Inactive)
REMARK    1  A    between atoms: S_2  and  C_4
REMARK    2  A    between atoms: S_2  and  N_13
REMARK    3  A    between atoms: C_4  and  C_5
REMARK    4  A    between atoms: C_5  and  C_6
REMARK    5  A    between atoms: C_17  and  C_18
REMARK                            x       y       z     vdW  Elec       q    Type
REMARK                         _______ _______ _______ _____ _____    ______ ____
ROOT
ATOM      1  O   UNL     1       7.570   5.929  19.279  0.00  0.00    +0.000 OA
ATOM      2  S   UNL     1       7.510   4.935  18.230  0.00  0.00    +0.000 S 
ATOM      3  O   UNL     1       8.599   4.005  18.024  0.00  0.00    +0.000 OA
ENDROOT
BRANCH   2   4
ATOM      4  N   UNL     1       7.222   5.738  16.768  0.00  0.00    +0.000 NA
ATOM      5  C   UNL     1       6.997   7.198  16.823  0.00  0.00    +0.000 C 
ATOM      6  C   UNL     1       5.492   7.341  16.863  0.00  0.00    +0.000 C 
ATOM      7  C   UNL     1       5.012   6.274  15.898  0.00  0.00    +0.000 C 
ATOM      8  C   UNL     1       6.096   5.172  15.924  0.00  0.00    +0.000 C 
BRANCH   8   9
ATOM      9  C   UNL     1       6.545   4.845  14.497  0.00  0.00    +0.000 A 
ATOM     10  N   UNL     1       5.848   3.899  13.820  0.00  0.00    +0.000 NA
ATOM     11  C   UNL     1       6.252   3.625  12.566  0.00  0.00    +0.000 A 
ATOM     12  C   UNL     1       7.314   4.248  11.961  0.00  0.00    +0.000 A 
ATOM     13  C   UNL     1       7.965   5.185  12.728  0.00  0.00    +0.000 A 
ATOM     14  N   UNL     1       7.615   5.494  13.992  0.00  0.00    +0.000 NA
ENDBRANCH   8   9
ENDBRANCH   2   4
BRANCH   2  15
ATOM     15  C   UNL     1       5.989   4.019  18.423  0.00  0.00    +0.000 C 
BRANCH  15  16
ATOM     16  C   UNL     1       5.112   4.614  19.514  0.00  0.00    +0.000 C 
BRANCH  16  17
ATOM     17  C   UNL     1       3.687   4.132  19.366  0.00  0.00    +0.000 A 
ATOM     18  C   UNL     1       3.107   3.325  20.358  0.00  0.00    +0.000 A 
ATOM     19  C   UNL     1       1.778   2.910  20.253  0.00  0.00    +0.000 A 
ATOM     20  C   UNL     1       1.011   3.298  19.156  0.00  0.00    +0.000 A 
ATOM     21  C   UNL     1       1.582   4.101  18.176  0.00  0.00    +0.000 A 
ATOM     22  F   UNL     1       0.843   4.483  17.126  0.00  0.00    +0.000 F 
ATOM     23  C   UNL     1       2.906   4.522  18.270  0.00  0.00    +0.000 A 
ENDBRANCH  16  17
ENDBRANCH  15  16
ENDBRANCH   2  15
TORSDOF 5
ENDMDL
MODEL 6
REMARK VINA RESULT:      -7.7      1.609      2.250
REMARK  Name = 
REMARK  5 active torsions:
REMARK  status: ('A' for Active; 'I' for Inactive)
REMARK    1  A    between atoms: S_2  and  C_4
REMARK    2  A    between atoms: S_2  and  N_13
REMARK    3  A    between atoms: C_4  and  C_5
REMARK    4  A    between atoms: C_5  and  C_6
REMARK    5  A    between atoms: C_17  and  C_18
REMARK                            x       y       z     vdW  Elec       q    Type
REMARK                         _______ _______ _______ _____ _____    ______ ____
ROOT
ATOM      1  O   UNL     1       5.441   3.976  19.476  0.00  0.00    +0.000 OA
ATOM      2  S   UNL     1       4.990   4.095  18.107  0.00  0.00    +0.000 S 
ATOM      3  O   UNL     1       4.243   3.029  17.475  0.00  0.00    +0.000 OA
ENDROOT
BRANCH   2   4
ATOM      4  N   UNL     1       6.340   4.432  17.142  0.00  0.00    +0.000 NA
ATOM      5  C   UNL     1       7.601   4.781  17.829  0.00  0.00    +0.000 C 
ATOM      6  C   UNL     1       7.604   6.293  17.855  0.00  0.00    +0.000 C 
ATOM      7  C   UNL     1       7.050   6.669  16.494  0.00  0.00    +0.000 C 
ATOM      8  C   UNL     1       6.133   5.496  16.081  0.00  0.00    +0.000 C 
BRANCH   8   9
ATOM      9  C   UNL     1       6.510   5.003  14.680  0.00  0.00    +0.000 A 
ATOM     10  N   UNL     1       5.728   4.049  14.117  0.00  0.00    +0.000 NA
ATOM     11  C   UNL     1       6.070   3.630  12.885  0.00  0.00    +0.000 A 
ATOM     12  C   UNL     1       7.151   4.115  12.194  0.00  0.00    +0.000 A 
ATOM     13  C   UNL     1       7.891   5.071  12.849  0.00  0.00    +0.000 A 
ATOM     14  N   UNL     1       7.605   5.523  14.086  0.00  0.00    +0.000 NA
ENDBRANCH   8   9
ENDBRANCH   2   4
BRANCH   2  15
ATOM     15  C   UNL     1       4.072   5.619  17.957  0.00  0.00    +0.000 C 
BRANCH  15  16
ATOM     16  C   UNL     1       2.591   5.360  17.726  0.00  0.00    +0.000 C 
BRANCH  16  17
ATOM     17  C   UNL     1       2.032   4.482  18.823  0.00  0.00    +0.000 A 
ATOM     18  C   UNL     1       1.139   3.445  18.512  0.00  0.00    +0.000 A 
ATOM     19  C   UNL     1       0.649   2.601  19.512  0.00  0.00    +0.000 A 
ATOM     20  C   UNL     1       1.050   2.783  20.834  0.00  0.00    +0.000 A 
ATOM     21  C   UNL     1       1.939   3.806  21.143  0.00  0.00    +0.000 A 
ATOM     22  F   UNL     1       2.332   3.975  22.412  0.00  0.00    +0.000 F 
ATOM     23  C   UNL     1       2.434   4.654  20.154  0.00  0.00    +0.000 A 
ENDBRANCH  16  17
ENDBRANCH  15  16
ENDBRANCH   2  15
TORSDOF 5
ENDMDL
MODEL 7
REMARK VINA RESULT:      -7.6      4.241      5.667
REMARK  Name = 
REMARK  5 active torsions:
REMARK  status: ('A' for Active; 'I' for Inactive)
REMARK    1  A    between atoms: S_2  and  C_4
REMARK    2  A    between atoms: S_2  and  N_13
REMARK    3  A    between atoms: C_4  and  C_5
REMARK    4  A    between atoms: C_5  and  C_6
REMARK    5  A    between atoms: C_17  and  C_18
REMARK                            x       y       z     vdW  Elec       q    Type
REMARK                         _______ _______ _______ _____ _____    ______ ____
ROOT
ATOM      1  O   UNL     1       2.536   3.474  21.457  0.00  0.00    +0.000 OA
ATOM      2  S   UNL     1       1.814   4.133  20.391  0.00  0.00    +0.000 S 
ATOM      3  O   UNL     1       0.467   3.732  20.047  0.00  0.00    +0.000 OA
ENDROOT
BRANCH   2   4
ATOM      4  N   UNL     1       2.761   4.048  18.990  0.00  0.00    +0.000 NA
ATOM      5  C   UNL     1       2.123   3.521  17.765  0.00  0.00    +0.000 C 
ATOM      6  C   UNL     1       2.492   2.054  17.755  0.00  0.00    +0.000 C 
ATOM      7  C   UNL     1       3.932   2.051  18.234  0.00  0.00    +0.000 C 
ATOM      8  C   UNL     1       4.072   3.299  19.134  0.00  0.00    +0.000 C 
BRANCH   8   9
ATOM      9  C   UNL     1       5.274   4.137  18.686  0.00  0.00    +0.000 A 
ATOM     10  N   UNL     1       5.928   4.855  19.632  0.00  0.00    +0.000 NA
ATOM     11  C   UNL     1       6.984   5.582  19.223  0.00  0.00    +0.000 A 
ATOM     12  C   UNL     1       7.413   5.626  17.921  0.00  0.00    +0.000 A 
ATOM     13  C   UNL     1       6.682   4.875  17.032  0.00  0.00    +0.000 A 
ATOM     14  N   UNL     1       5.610   4.136  17.379  0.00  0.00    +0.000 NA
ENDBRANCH   8   9
ENDBRANCH   2   4
BRANCH   2  15
ATOM     15  C   UNL     1       1.835   5.890  20.712  0.00  0.00    +0.000 C 
BRANCH  15  16
ATOM     16  C   UNL     1       2.626   6.642  19.652  0.00  0.00    +0.000 C 
BRANCH  16  17
ATOM     17  C   UNL     1       1.997   7.991  19.384  0.00  0.00    +0.000 A 
ATOM     18  C   UNL     1       2.134   8.596  18.125  0.00  0.00    +0.000 A 
ATOM     19  C   UNL     1       1.521   9.822  17.853  0.00  0.00    +0.000 A 
ATOM     20  C   UNL     1       0.763  10.455  18.836  0.00  0.00    +0.000 A 
ATOM     21  C   UNL     1       0.622   9.854  20.081  0.00  0.00    +0.000 A 
ATOM     22  F   UNL     1      -0.114  10.458  21.023  0.00  0.00    +0.000 F 
ATOM     23  C   UNL     1       1.228   8.632  20.364  0.00  0.00    +0.000 A 
ENDBRANCH  16  17
ENDBRANCH  15  16
ENDBRANCH   2  15
TORSDOF 5
ENDMDL
MODEL 8
REMARK VINA RESULT:      -7.6      0.814      1.309
REMARK  Name = 
REMARK  5 active torsions:
REMARK  status: ('A' for Active; 'I' for Inactive)
REMARK    1  A    between atoms: S_2  and  C_4
REMARK    2  A    between atoms: S_2  and  N_13
REMARK    3  A    between atoms: C_4  and  C_5
REMARK    4  A    between atoms: C_5  and  C_6
REMARK    5  A    between atoms: C_17  and  C_18
REMARK                            x       y       z     vdW  Elec       q    Type
REMARK                         _______ _______ _______ _____ _____    ______ ____
ROOT
ATOM      1  O   UNL     1       8.183   6.489  18.937  0.00  0.00    +0.000 OA
ATOM      2  S   UNL     1       7.445   5.404  18.329  0.00  0.00    +0.000 S 
ATOM      3  O   UNL     1       8.064   4.116  18.109  0.00  0.00    +0.000 OA
ENDROOT
BRANCH   2   4
ATOM      4  N   UNL     1       6.837   5.954  16.847  0.00  0.00    +0.000 NA
ATOM      5  C   UNL     1       6.045   7.202  16.854  0.00  0.00    +0.000 C 
ATOM      6  C   UNL     1       4.610   6.731  16.937  0.00  0.00    +0.000 C 
ATOM      7  C   UNL     1       4.586   5.515  16.029  0.00  0.00    +0.000 C 
ATOM      8  C   UNL     1       6.022   4.944  16.062  0.00  0.00    +0.000 C 
BRANCH   8   9
ATOM      9  C   UNL     1       6.545   4.756  14.635  0.00  0.00    +0.000 A 
ATOM     10  N   UNL     1       5.915   3.848  13.849  0.00  0.00    +0.000 NA
ATOM     11  C   UNL     1       6.383   3.697  12.597  0.00  0.00    +0.000 A 
ATOM     12  C   UNL     1       7.445   4.407  12.096  0.00  0.00    +0.000 A 
ATOM     13  C   UNL     1       8.026   5.296  12.968  0.00  0.00    +0.000 A 
ATOM     14  N   UNL     1       7.609   5.484  14.236  0.00  0.00    +0.000 NA
ENDBRANCH   8   9
ENDBRANCH   2   4
BRANCH   2  15
ATOM     15  C   UNL     1       5.935   5.176  19.254  0.00  0.00    +0.000 C 
BRANCH  15  16
ATOM     16  C   UNL     1       5.534   3.710  19.317  0.00  0.00    +0.000 C 
BRANCH  16  17
ATOM     17  C   UNL     1       4.050   3.558  19.071  0.00  0.00    +0.000 A 
ATOM     18  C   UNL     1       3.586   2.707  18.055  0.00  0.00    +0.000 A 
ATOM     19  C   UNL     1       2.216   2.526  17.847  0.00  0.00    +0.000 A 
ATOM     20  C   UNL     1       1.295   3.191  18.654  0.00  0.00    +0.000 A 
ATOM     21  C   UNL     1       1.753   4.029  19.664  0.00  0.00    +0.000 A 
ATOM     22  F   UNL     1       0.868   4.661  20.446  0.00  0.00    +0.000 F 
ATOM     23  C   UNL     1       3.116   4.217  19.881  0.00  0.00    +0.000 A 
ENDBRANCH  16  17
ENDBRANCH  15  16
ENDBRANCH   2  15
TORSDOF 5
ENDMDL
MODEL 9
REMARK VINA RESULT:      -7.5      3.115      3.515
REMARK  Name = 
REMARK  5 active torsions:
REMARK  status: ('A' for Active; 'I' for Inactive)
REMARK    1  A    between atoms: S_2  and  C_4
REMARK    2  A    between atoms: S_2  and  N_13
REMARK    3  A    between atoms: C_4  and  C_5
REMARK    4  A    between atoms: C_5  and  C_6
REMARK    5  A    between atoms: C_17  and  C_18
REMARK                            x       y       z     vdW  Elec       q    Type
REMARK                         _______ _______ _______ _____ _____    ______ ____
ROOT
ATOM      1  O   UNL     1       5.469   3.495  19.540  0.00  0.00    +0.000 OA
ATOM      2  S   UNL     1       4.985   4.000  18.274  0.00  0.00    +0.000 S 
ATOM      3  O   UNL     1       4.030   3.248  17.490  0.00  0.00    +0.000 OA
ENDROOT
BRANCH   2   4
ATOM      4  N   UNL     1       6.327   4.326  17.295  0.00  0.00    +0.000 NA
ATOM      5  C   UNL     1       7.608   4.626  17.969  0.00  0.00    +0.000 C 
ATOM      6  C   UNL     1       7.650   6.137  18.030  0.00  0.00    +0.000 C 
ATOM      7  C   UNL     1       7.083   6.559  16.687  0.00  0.00    +0.000 C 
ATOM      8  C   UNL     1       6.130   5.419  16.262  0.00  0.00    +0.000 C 
BRANCH   8   9
ATOM      9  C   UNL     1       6.472   4.950  14.845  0.00  0.00    +0.000 A 
ATOM     10  N   UNL     1       7.564   5.490  14.249  0.00  0.00    +0.000 NA
ATOM     11  C   UNL     1       7.854   5.065  13.007  0.00  0.00    +0.000 A 
ATOM     12  C   UNL     1       7.107   4.131  12.334  0.00  0.00    +0.000 A 
ATOM     13  C   UNL     1       6.013   3.648  13.012  0.00  0.00    +0.000 A 
ATOM     14  N   UNL     1       5.666   4.043  14.253  0.00  0.00    +0.000 NA
ENDBRANCH   8   9
ENDBRANCH   2   4
BRANCH   2  15
ATOM     15  C   UNL     1       4.349   5.648  18.543  0.00  0.00    +0.000 C 
BRANCH  15  16
ATOM     16  C   UNL     1       2.875   5.745  18.179  0.00  0.00    +0.000 C 
BRANCH  16  17
ATOM     17  C   UNL     1       2.255   6.969  18.814  0.00  0.00    +0.000 A 
ATOM     18  C   UNL     1       1.906   6.960  20.174  0.00  0.00    +0.000 A 
ATOM     19  C   UNL     1       1.372   8.099  20.781  0.00  0.00    +0.000 A 
ATOM     20  C   UNL     1       1.183   9.261  20.035  0.00  0.00    +0.000 A 
ATOM     21  C   UNL     1       1.533   9.273  18.691  0.00  0.00    +0.000 A 
ATOM     22  F   UNL     1       1.360  10.393  17.976  0.00  0.00    +0.000 F 
ATOM     23  C   UNL     1       2.066   8.144  18.074  0.00  0.00    +0.000 A 
ENDBRANCH  16  17
ENDBRANCH  15  16
ENDBRANCH   2  15
TORSDOF 5
ENDMDL
