MODEL 1
REMARK VINA RESULT:      -6.8      0.000      0.000
REMARK  Name = 
REMARK  5 active torsions:
REMARK  status: ('A' for Active; 'I' for Inactive)
REMARK    1  A    between atoms: C_1  and  N_2
REMARK    2  A    between atoms: N_2  and  C_3
REMARK    3  A    between atoms: C_3  and  C_4
REMARK    4  A    between atoms: C_10  and  C_12
REMARK    5  A    between atoms: N_15  and  C_16
REMARK                            x       y       z     vdW  Elec       q    Type
REMARK                         _______ _______ _______ _____ _____    ______ ____
ROOT
ATOM      1  C   UNL     1       3.654   1.901  17.831  0.00  0.00    +0.000 C 
ATOM      2  N   UNL     1       3.594   3.213  18.463  0.00  0.00    +0.000 N 
ATOM      3  C   UNL     1       2.397   3.911  18.314  0.00  0.00    +0.000 C 
ATOM      4  O   UNL     1       1.475   3.447  17.633  0.00  0.00    +0.000 OA
ENDROOT
BRANCH   3   5
ATOM      5  C   UNL     1       2.188   5.285  18.891  0.00  0.00    +0.000 A 
ATOM      6  C   UNL     1       1.773   5.393  20.284  0.00  0.00    +0.000 A 
ATOM      7  C   UNL     1       1.575   6.590  20.851  0.00  0.00    +0.000 A 
ATOM      8  N   UNL     1       1.742   7.752  20.125  0.00  0.00    +0.000 N 
ATOM      9  C   UNL     1       1.449   9.041  20.718  0.00  0.00    +0.000 C 
ATOM     10  C   UNL     1       2.183   7.738  18.809  0.00  0.00    +0.000 A 
ATOM     11  O   UNL     1       2.333   8.739  18.108  0.00  0.00    +0.000 OA
ATOM     12  C   UNL     1       2.497   6.409  18.231  0.00  0.00    +0.000 A 
ENDBRANCH   3   5
BRANCH   2  13
ATOM     13  C   UNL     1       4.821   3.622  19.166  0.00  0.00    +0.000 C 
BRANCH  13  14
ATOM     14  C   UNL     1       5.705   4.613  18.453  0.00  0.00    +0.000 A 
ATOM     15  C   UNL     1       6.663   5.341  19.183  0.00  0.00    +0.000 A 
ATOM     16  C   UNL     1       7.480   6.278  18.550  0.00  0.00    +0.000 A 
ATOM     17  C   UNL     1       7.372   6.477  17.176  0.00  0.00    +0.000 A 
ATOM     18  C   UNL     1       6.459   5.731  16.435  0.00  0.00    +0.000 A 
ATOM     19  C   UNL     1       5.637   4.794  17.068  0.00  0.00    +0.000 A 
ENDBRANCH  13  14
ENDBRANCH   2  13
TORSDOF 3
ENDMDL
MODEL 2
REMARK VINA RESULT:      -6.8      2.384      4.150
REMARK  Name = 
REMARK  5 active torsions:
REMARK  status: ('A' for Active; 'I' for Inactive)
REMARK    1  A    between atoms: C_1  and  N_2
REMARK    2  A    between atoms: N_2  and  C_3
REMARK    3  A    between atoms: C_3  and  C_4
REMARK    4  A    between atoms: C_10  and  C_12
REMARK    5  A    between atoms: N_15  and  C_16
REMARK                            x       y       z     vdW  Elec       q    Type
REMARK                         _______ _______ _______ _____ _____    ______ ____
ROOT
ATOM      1  C   UNL     1       4.833   4.122  16.718  0.00  0.00    +0.000 C 
ATOM      2  N   UNL     1       3.768   4.910  17.325  0.00  0.00    +0.000 N 
ATOM      3  C   UNL     1       4.084   6.231  17.634  0.00  0.00    +0.000 C 
ATOM      4  O   UNL     1       5.226   6.669  17.446  0.00  0.00    +0.000 OA
ENDROOT
BRANCH   3   5
ATOM      5  C   UNL     1       3.099   7.165  18.282  0.00  0.00    +0.000 A 
ATOM      6  C   UNL     1       2.512   8.224  17.469  0.00  0.00    +0.000 A 
ATOM      7  C   UNL     1       1.627   9.082  17.993  0.00  0.00    +0.000 A 
ATOM      8  N   UNL     1       1.262   8.997  19.321  0.00  0.00    +0.000 N 
ATOM      9  C   UNL     1       0.366   9.975  19.903  0.00  0.00    +0.000 C 
ATOM     10  C   UNL     1       1.736   7.990  20.150  0.00  0.00    +0.000 A 
ATOM     11  O   UNL     1       1.458   7.874  21.343  0.00  0.00    +0.000 OA
ATOM     12  C   UNL     1       2.633   6.987  19.526  0.00  0.00    +0.000 A 
ENDBRANCH   3   5
BRANCH   2  13
ATOM     13  C   UNL     1       2.503   4.188  17.537  0.00  0.00    +0.000 C 
BRANCH  13  14
ATOM     14  C   UNL     1       2.260   3.651  18.924  0.00  0.00    +0.000 A 
ATOM     15  C   UNL     1       3.347   3.204  19.697  0.00  0.00    +0.000 A 
ATOM     16  C   UNL     1       3.146   2.685  20.977  0.00  0.00    +0.000 A 
ATOM     17  C   UNL     1       1.862   2.633  21.510  0.00  0.00    +0.000 A 
ATOM     18  C   UNL     1       0.782   3.112  20.772  0.00  0.00    +0.000 A 
ATOM     19  C   UNL     1       0.982   3.630  19.489  0.00  0.00    +0.000 A 
ENDBRANCH  13  14
ENDBRANCH   2  13
TORSDOF 3
ENDMDL
MODEL 3
REMARK VINA RESULT:      -6.7      2.347      4.194
REMARK  Name = 
REMARK  5 active torsions:
REMARK  status: ('A' for Active; 'I' for Inactive)
REMARK    1  A    between atoms: C_1  and  N_2
REMARK    2  A    between atoms: N_2  and  C_3
REMARK    3  A    between atoms: C_3  and  C_4
REMARK    4  A    between atoms: C_10  and  C_12
REMARK    5  A    between atoms: N_15  and  C_16
REMARK                            x       y       z     vdW  Elec       q    Type
REMARK                         _______ _______ _______ _____ _____    ______ ____
ROOT
ATOM      1  C   UNL     1       5.052   4.132  16.750  0.00  0.00    +0.000 C 
ATOM      2  N   UNL     1       3.953   4.893  17.332  0.00  0.00    +0.000 N 
ATOM      3  C   UNL     1       4.229   6.221  17.651  0.00  0.00    +0.000 C 
ATOM      4  O   UNL     1       5.363   6.687  17.491  0.00  0.00    +0.000 OA
ENDROOT
BRANCH   3   5
ATOM      5  C   UNL     1       3.205   7.129  18.277  0.00  0.00    +0.000 A 
ATOM      6  C   UNL     1       2.606   8.169  17.449  0.00  0.00    +0.000 A 
ATOM      7  C   UNL     1       1.688   9.004  17.952  0.00  0.00    +0.000 A 
ATOM      8  N   UNL     1       1.298   8.912  19.272  0.00  0.00    +0.000 N 
ATOM      9  C   UNL     1       0.364   9.867  19.834  0.00  0.00    +0.000 C 
ATOM     10  C   UNL     1       1.782   7.919  20.113  0.00  0.00    +0.000 A 
ATOM     11  O   UNL     1       1.483   7.799  21.301  0.00  0.00    +0.000 OA
ATOM     12  C   UNL     1       2.719   6.941  19.511  0.00  0.00    +0.000 A 
ENDBRANCH   3   5
BRANCH   2  13
ATOM     13  C   UNL     1       2.702   4.140  17.512  0.00  0.00    +0.000 C 
BRANCH  13  14
ATOM     14  C   UNL     1       2.422   3.623  18.901  0.00  0.00    +0.000 A 
ATOM     15  C   UNL     1       1.111   3.668  19.408  0.00  0.00    +0.000 A 
ATOM     16  C   UNL     1       0.829   3.214  20.697  0.00  0.00    +0.000 A 
ATOM     17  C   UNL     1       1.848   2.682  21.483  0.00  0.00    +0.000 A 
ATOM     18  C   UNL     1       3.142   2.592  20.976  0.00  0.00    +0.000 A 
ATOM     19  C   UNL     1       3.426   3.049  19.686  0.00  0.00    +0.000 A 
ENDBRANCH  13  14
ENDBRANCH   2  13
TORSDOF 3
ENDMDL
MODEL 4
REMARK VINA RESULT:      -6.7      2.330      3.974
REMARK  Name = 
REMARK  5 active torsions:
REMARK  status: ('A' for Active; 'I' for Inactive)
REMARK    1  A    between atoms: C_1  and  N_2
REMARK    2  A    between atoms: N_2  and  C_3
REMARK    3  A    between atoms: C_3  and  C_4
REMARK    4  A    between atoms: C_10  and  C_12
REMARK    5  A    between atoms: N_15  and  C_16
REMARK                            x       y       z     vdW  Elec       q    Type
REMARK                         _______ _______ _______ _____ _____    ______ ____
ROOT
ATOM      1  C   UNL     1       4.530   4.116  16.565  0.00  0.00    +0.000 C 
ATOM      2  N   UNL     1       3.529   4.900  17.277  0.00  0.00    +0.000 N 
ATOM      3  C   UNL     1       3.858   6.230  17.530  0.00  0.00    +0.000 C 
ATOM      4  O   UNL     1       4.964   6.680  17.208  0.00  0.00    +0.000 OA
ENDROOT
BRANCH   3   5
ATOM      5  C   UNL     1       2.938   7.161  18.272  0.00  0.00    +0.000 A 
ATOM      6  C   UNL     1       2.683   6.900  19.684  0.00  0.00    +0.000 A 
ATOM      7  C   UNL     1       1.875   7.697  20.395  0.00  0.00    +0.000 A 
ATOM      8  N   UNL     1       1.249   8.775  19.805  0.00  0.00    +0.000 N 
ATOM      9  C   UNL     1       0.314   9.587  20.556  0.00  0.00    +0.000 C 
ATOM     10  C   UNL     1       1.476   9.121  18.480  0.00  0.00    +0.000 A 
ATOM     11  O   UNL     1       0.934  10.060  17.897  0.00  0.00    +0.000 OA
ATOM     12  C   UNL     1       2.454   8.290  17.737  0.00  0.00    +0.000 A 
ENDBRANCH   3   5
BRANCH   2  13
ATOM     13  C   UNL     1       2.307   4.164  17.642  0.00  0.00    +0.000 C 
BRANCH  13  14
ATOM     14  C   UNL     1       2.255   3.596  19.037  0.00  0.00    +0.000 A 
ATOM     15  C   UNL     1       1.020   3.500  19.704  0.00  0.00    +0.000 A 
ATOM     16  C   UNL     1       0.949   2.995  21.003  0.00  0.00    +0.000 A 
ATOM     17  C   UNL     1       2.104   2.552  21.639  0.00  0.00    +0.000 A 
ATOM     18  C   UNL     1       3.327   2.601  20.974  0.00  0.00    +0.000 A 
ATOM     19  C   UNL     1       3.401   3.109  19.674  0.00  0.00    +0.000 A 
ENDBRANCH  13  14
ENDBRANCH   2  13
TORSDOF 3
ENDMDL
MODEL 5
REMARK VINA RESULT:      -6.7      2.135      5.146
REMARK  Name = 
REMARK  5 active torsions:
REMARK  status: ('A' for Active; 'I' for Inactive)
REMARK    1  A    between atoms: C_1  and  N_2
REMARK    2  A    between atoms: N_2  and  C_3
REMARK    3  A    between atoms: C_3  and  C_4
REMARK    4  A    between atoms: C_10  and  C_12
REMARK    5  A    between atoms: N_15  and  C_16
REMARK                            x       y       z     vdW  Elec       q    Type
REMARK                         _______ _______ _______ _____ _____    ______ ____
ROOT
ATOM      1  C   UNL     1       0.944   3.968  20.434  0.00  0.00    +0.000 C 
ATOM      2  N   UNL     1       2.181   4.421  19.810  0.00  0.00    +0.000 N 
ATOM      3  C   UNL     1       2.686   3.615  18.793  0.00  0.00    +0.000 C 
ATOM      4  O   UNL     1       2.128   2.553  18.492  0.00  0.00    +0.000 OA
ENDROOT
BRANCH   3   5
ATOM      5  C   UNL     1       3.964   3.938  18.067  0.00  0.00    +0.000 A 
ATOM      6  C   UNL     1       3.917   4.084  16.617  0.00  0.00    +0.000 A 
ATOM      7  C   UNL     1       5.023   4.374  15.919  0.00  0.00    +0.000 A 
ATOM      8  N   UNL     1       6.239   4.524  16.554  0.00  0.00    +0.000 N 
ATOM      9  C   UNL     1       7.446   4.758  15.789  0.00  0.00    +0.000 C 
ATOM     10  C   UNL     1       6.360   4.451  17.935  0.00  0.00    +0.000 A 
ATOM     11  O   UNL     1       7.419   4.559  18.553  0.00  0.00    +0.000 OA
ATOM     12  C   UNL     1       5.108   4.233  18.699  0.00  0.00    +0.000 A 
ENDBRANCH   3   5
BRANCH   2  13
ATOM     13  C   UNL     1       2.732   5.672  20.358  0.00  0.00    +0.000 C 
BRANCH  13  14
ATOM     14  C   UNL     1       2.269   6.951  19.710  0.00  0.00    +0.000 A 
ATOM     15  C   UNL     1       1.587   7.913  20.477  0.00  0.00    +0.000 A 
ATOM     16  C   UNL     1       1.133   9.097  19.895  0.00  0.00    +0.000 A 
ATOM     17  C   UNL     1       1.380   9.348  18.549  0.00  0.00    +0.000 A 
ATOM     18  C   UNL     1       2.092   8.424  17.788  0.00  0.00    +0.000 A 
ATOM     19  C   UNL     1       2.546   7.236  18.369  0.00  0.00    +0.000 A 
ENDBRANCH  13  14
ENDBRANCH   2  13
TORSDOF 3
ENDMDL
MODEL 6
REMARK VINA RESULT:      -6.6      2.503      4.530
REMARK  Name = 
REMARK  5 active torsions:
REMARK  status: ('A' for Active; 'I' for Inactive)
REMARK    1  A    between atoms: C_1  and  N_2
REMARK    2  A    between atoms: N_2  and  C_3
REMARK    3  A    between atoms: C_3  and  C_4
REMARK    4  A    between atoms: C_10  and  C_12
REMARK    5  A    between atoms: N_15  and  C_16
REMARK                            x       y       z     vdW  Elec       q    Type
REMARK                         _______ _______ _______ _____ _____    ______ ____
ROOT
ATOM      1  C   UNL     1       7.809   6.855  18.137  0.00  0.00    +0.000 C 
ATOM      2  N   UNL     1       6.501   6.218  18.055  0.00  0.00    +0.000 N 
ATOM      3  C   UNL     1       6.149   5.400  19.127  0.00  0.00    +0.000 C 
ATOM      4  O   UNL     1       6.941   5.199  20.055  0.00  0.00    +0.000 OA
ENDROOT
BRANCH   3   5
ATOM      5  C   UNL     1       4.841   4.658  19.179  0.00  0.00    +0.000 A 
ATOM      6  C   UNL     1       3.649   5.388  19.595  0.00  0.00    +0.000 A 
ATOM      7  C   UNL     1       2.458   4.779  19.657  0.00  0.00    +0.000 A 
ATOM      8  N   UNL     1       2.332   3.440  19.346  0.00  0.00    +0.000 N 
ATOM      9  C   UNL     1       1.058   2.766  19.492  0.00  0.00    +0.000 C 
ATOM     10  C   UNL     1       3.407   2.687  18.894  0.00  0.00    +0.000 A 
ATOM     11  O   UNL     1       3.357   1.489  18.619  0.00  0.00    +0.000 OA
ATOM     12  C   UNL     1       4.695   3.404  18.732  0.00  0.00    +0.000 A 
ENDBRANCH   3   5
BRANCH   2  13
ATOM     13  C   UNL     1       5.736   6.522  16.834  0.00  0.00    +0.000 C 
BRANCH  13  14
ATOM     14  C   UNL     1       5.919   5.578  15.673  0.00  0.00    +0.000 A 
ATOM     15  C   UNL     1       7.091   5.647  14.899  0.00  0.00    +0.000 A 
ATOM     16  C   UNL     1       7.276   4.797  13.807  0.00  0.00    +0.000 A 
ATOM     17  C   UNL     1       6.306   3.849  13.495  0.00  0.00    +0.000 A 
ATOM     18  C   UNL     1       5.161   3.741  14.280  0.00  0.00    +0.000 A 
ATOM     19  C   UNL     1       4.973   4.593  15.372  0.00  0.00    +0.000 A 
ENDBRANCH  13  14
ENDBRANCH   2  13
TORSDOF 3
ENDMDL
MODEL 7
REMARK VINA RESULT:      -6.6      2.191      3.865
REMARK  Name = 
REMARK  5 active torsions:
REMARK  status: ('A' for Active; 'I' for Inactive)
REMARK    1  A    between atoms: C_1  and  N_2
REMARK    2  A    between atoms: N_2  and  C_3
REMARK    3  A    between atoms: C_3  and  C_4
REMARK    4  A    between atoms: C_10  and  C_12
REMARK    5  A    between atoms: N_15  and  C_16
REMARK                            x       y       z     vdW  Elec       q    Type
REMARK                         _______ _______ _______ _____ _____    ______ ____
ROOT
ATOM      1  C   UNL     1       4.948   3.572  16.595  0.00  0.00    +0.000 C 
ATOM      2  N   UNL     1       3.933   4.439  17.182  0.00  0.00    +0.000 N 
ATOM      3  C   UNL     1       4.320   5.754  17.430  0.00  0.00    +0.000 C 
ATOM      4  O   UNL     1       5.479   6.125  17.209  0.00  0.00    +0.000 OA
ENDROOT
BRANCH   3   5
ATOM      5  C   UNL     1       3.393   6.763  18.051  0.00  0.00    +0.000 A 
ATOM      6  C   UNL     1       2.961   6.549  19.428  0.00  0.00    +0.000 A 
ATOM      7  C   UNL     1       2.139   7.416  20.032  0.00  0.00    +0.000 A 
ATOM      8  N   UNL     1       1.665   8.525  19.361  0.00  0.00    +0.000 N 
ATOM      9  C   UNL     1       0.713   9.417  19.991  0.00  0.00    +0.000 C 
ATOM     10  C   UNL     1       2.067   8.828  18.068  0.00  0.00    +0.000 A 
ATOM     11  O   UNL     1       1.665   9.791  17.416  0.00  0.00    +0.000 OA
ATOM     12  C   UNL     1       3.058   7.913  17.452  0.00  0.00    +0.000 A 
ENDBRANCH   3   5
BRANCH   2  13
ATOM     13  C   UNL     1       2.637   3.792  17.442  0.00  0.00    +0.000 C 
BRANCH  13  14
ATOM     14  C   UNL     1       2.366   3.377  18.865  0.00  0.00    +0.000 A 
ATOM     15  C   UNL     1       3.424   2.921  19.671  0.00  0.00    +0.000 A 
ATOM     16  C   UNL     1       3.196   2.514  20.986  0.00  0.00    +0.000 A 
ATOM     17  C   UNL     1       1.913   2.586  21.521  0.00  0.00    +0.000 A 
ATOM     18  C   UNL     1       0.864   3.077  20.748  0.00  0.00    +0.000 A 
ATOM     19  C   UNL     1       1.091   3.483  19.429  0.00  0.00    +0.000 A 
ENDBRANCH  13  14
ENDBRANCH   2  13
TORSDOF 3
ENDMDL
MODEL 8
REMARK VINA RESULT:      -6.6      1.297      1.873
REMARK  Name = 
REMARK  5 active torsions:
REMARK  status: ('A' for Active; 'I' for Inactive)
REMARK    1  A    between atoms: C_1  and  N_2
REMARK    2  A    between atoms: N_2  and  C_3
REMARK    3  A    between atoms: C_3  and  C_4
REMARK    4  A    between atoms: C_10  and  C_12
REMARK    5  A    between atoms: N_15  and  C_16
REMARK                            x       y       z     vdW  Elec       q    Type
REMARK                         _______ _______ _______ _____ _____    ______ ____
ROOT
ATOM      1  C   UNL     1       4.028   2.576  19.544  0.00  0.00    +0.000 C 
ATOM      2  N   UNL     1       3.878   4.022  19.434  0.00  0.00    +0.000 N 
ATOM      3  C   UNL     1       2.588   4.519  19.598  0.00  0.00    +0.000 C 
ATOM      4  O   UNL     1       1.632   3.753  19.770  0.00  0.00    +0.000 OA
ENDROOT
BRANCH   3   5
ATOM      5  C   UNL     1       2.270   5.986  19.494  0.00  0.00    +0.000 A 
ATOM      6  C   UNL     1       1.750   6.667  20.674  0.00  0.00    +0.000 A 
ATOM      7  C   UNL     1       1.453   7.972  20.640  0.00  0.00    +0.000 A 
ATOM      8  N   UNL     1       1.613   8.702  19.480  0.00  0.00    +0.000 N 
ATOM      9  C   UNL     1       1.215  10.094  19.424  0.00  0.00    +0.000 C 
ATOM     10  C   UNL     1       2.148   8.143  18.328  0.00  0.00    +0.000 A 
ATOM     11  O   UNL     1       2.298   8.740  17.263  0.00  0.00    +0.000 OA
ATOM     12  C   UNL     1       2.568   6.724  18.416  0.00  0.00    +0.000 A 
ENDBRANCH   3   5
BRANCH   2  13
ATOM     13  C   UNL     1       5.123   4.756  19.152  0.00  0.00    +0.000 C 
BRANCH  13  14
ATOM     14  C   UNL     1       5.660   4.654  17.747  0.00  0.00    +0.000 A 
ATOM     15  C   UNL     1       4.768   4.485  16.672  0.00  0.00    +0.000 A 
ATOM     16  C   UNL     1       5.241   4.369  15.365  0.00  0.00    +0.000 A 
ATOM     17  C   UNL     1       6.607   4.451  15.111  0.00  0.00    +0.000 A 
ATOM     18  C   UNL     1       7.497   4.662  16.161  0.00  0.00    +0.000 A 
ATOM     19  C   UNL     1       7.025   4.775  17.473  0.00  0.00    +0.000 A 
ENDBRANCH  13  14
ENDBRANCH   2  13
TORSDOF 3
ENDMDL
MODEL 9
REMARK VINA RESULT:      -6.5      2.294      4.931
REMARK  Name = 
REMARK  5 active torsions:
REMARK  status: ('A' for Active; 'I' for Inactive)
REMARK    1  A    between atoms: C_1  and  N_2
REMARK    2  A    between atoms: N_2  and  C_3
REMARK    3  A    between atoms: C_3  and  C_4
REMARK    4  A    between atoms: C_10  and  C_12
REMARK    5  A    between atoms: N_15  and  C_16
REMARK                            x       y       z     vdW  Elec       q    Type
REMARK                         _______ _______ _______ _____ _____    ______ ____
ROOT
ATOM      1  C   UNL     1       2.118   2.351  21.201  0.00  0.00    +0.000 C 
ATOM      2  N   UNL     1       2.687   3.040  20.049  0.00  0.00    +0.000 N 
ATOM      3  C   UNL     1       4.059   2.889  19.862  0.00  0.00    +0.000 C 
ATOM      4  O   UNL     1       4.741   2.250  20.671  0.00  0.00    +0.000 OA
ENDROOT
BRANCH   3   5
ATOM      5  C   UNL     1       4.795   3.554  18.730  0.00  0.00    +0.000 A 
ATOM      6  C   UNL     1       4.444   3.183  17.365  0.00  0.00    +0.000 A 
ATOM      7  C   UNL     1       5.064   3.744  16.319  0.00  0.00    +0.000 A 
ATOM      8  N   UNL     1       6.064   4.677  16.508  0.00  0.00    +0.000 N 
ATOM      9  C   UNL     1       6.788   5.222  15.378  0.00  0.00    +0.000 C 
ATOM     10  C   UNL     1       6.424   5.121  17.773  0.00  0.00    +0.000 A 
ATOM     11  O   UNL     1       7.317   5.936  18.003  0.00  0.00    +0.000 OA
ATOM     12  C   UNL     1       5.655   4.566  18.913  0.00  0.00    +0.000 A 
ENDBRANCH   3   5
BRANCH   2  13
ATOM     13  C   UNL     1       1.723   3.812  19.249  0.00  0.00    +0.000 C 
BRANCH  13  14
ATOM     14  C   UNL     1       1.879   5.311  19.271  0.00  0.00    +0.000 A 
ATOM     15  C   UNL     1       1.701   6.012  20.477  0.00  0.00    +0.000 A 
ATOM     16  C   UNL     1       1.821   7.401  20.520  0.00  0.00    +0.000 A 
ATOM     17  C   UNL     1       2.151   8.104  19.365  0.00  0.00    +0.000 A 
ATOM     18  C   UNL     1       2.373   7.419  18.173  0.00  0.00    +0.000 A 
ATOM     19  C   UNL     1       2.251   6.027  18.128  0.00  0.00    +0.000 A 
ENDBRANCH  13  14
ENDBRANCH   2  13
TORSDOF 3
ENDMDL
