MODEL 1
REMARK VINA RESULT:      -6.8      0.000      0.000
REMARK  Name = 
REMARK  6 active torsions:
REMARK  status: ('A' for Active; 'I' for Inactive)
REMARK    1  A    between atoms: C_2  and  C_3
REMARK    2  A    between atoms: C_3  and  N_4
REMARK    3  A    between atoms: N_4  and  N_5
REMARK    4  A    between atoms: C_6  and  C_7
REMARK    5  A    between atoms: C_7  and  C_8
REMARK    6  A    between atoms: C_13  and  C_14
REMARK                            x       y       z     vdW  Elec       q    Type
REMARK                         _______ _______ _______ _____ _____    ______ ____
ROOT
ATOM      1  C   UNL     1       2.280   4.716  18.459  0.00  0.00    +0.000 A 
ATOM      2  C   UNL     1       2.604   6.084  18.372  0.00  0.00    +0.000 A 
ATOM      3  C   UNL     1       2.381   6.956  19.443  0.00  0.00    +0.000 A 
ATOM      4  C   UNL     1       1.810   6.479  20.609  0.00  0.00    +0.000 A 
ATOM      5  C   UNL     1       1.465   5.134  20.713  0.00  0.00    +0.000 A 
ATOM      6  C   UNL     1       1.686   4.229  19.651  0.00  0.00    +0.000 A 
ENDROOT
BRANCH   6   7
ATOM      7  C   UNL     1       1.285   2.787  19.902  0.00  0.00    +0.000 C 
ATOM      8  F   UNL     1       2.239   1.860  19.628  0.00  0.00    +0.000 F 
ATOM      9  F   UNL     1       0.911   2.579  21.196  0.00  0.00    +0.000 F 
ATOM     10  F   UNL     1       0.205   2.422  19.145  0.00  0.00    +0.000 F 
ENDBRANCH   6   7
BRANCH   1  11
ATOM     11  C   UNL     1       2.606   3.863  17.250  0.00  0.00    +0.000 C 
BRANCH  11  13
ATOM     12  N   UNL     1       4.817   4.258  16.310  0.00  0.00    +0.000 NA
ATOM     13  C   UNL     1       4.073   3.545  17.100  0.00  0.00    +0.000 C 
BRANCH  12  14
ATOM     14  N   UNL     1       6.132   3.930  16.316  0.00  0.00    +0.000 N 
ATOM     15  H   UNL     1       6.325   2.939  16.475  0.00  0.00    +0.000 HD
BRANCH  14  16
ATOM     16  C   UNL     1       6.933   4.429  15.198  0.00  0.00    +0.000 C 
BRANCH  16  18
ATOM     17  C   UNL     1       5.808   3.546  12.763  0.00  0.00    +0.000 C 
ATOM     18  C   UNL     1       6.327   3.954  13.887  0.00  0.00    +0.000 C 
ENDBRANCH  16  18
ENDBRANCH  14  16
ENDBRANCH  12  14
ENDBRANCH  11  13
ENDBRANCH   1  11
TORSDOF 6
ENDMDL
MODEL 2
REMARK VINA RESULT:      -6.8      1.211      2.149
REMARK  Name = 
REMARK  6 active torsions:
REMARK  status: ('A' for Active; 'I' for Inactive)
REMARK    1  A    between atoms: C_2  and  C_3
REMARK    2  A    between atoms: C_3  and  N_4
REMARK    3  A    between atoms: N_4  and  N_5
REMARK    4  A    between atoms: C_6  and  C_7
REMARK    5  A    between atoms: C_7  and  C_8
REMARK    6  A    between atoms: C_13  and  C_14
REMARK                            x       y       z     vdW  Elec       q    Type
REMARK                         _______ _______ _______ _____ _____    ______ ____
ROOT
ATOM      1  C   UNL     1       2.256   4.783  18.495  0.00  0.00    +0.000 A 
ATOM      2  C   UNL     1       2.595   6.142  18.352  0.00  0.00    +0.000 A 
ATOM      3  C   UNL     1       2.379   7.061  19.385  0.00  0.00    +0.000 A 
ATOM      4  C   UNL     1       1.800   6.638  20.568  0.00  0.00    +0.000 A 
ATOM      5  C   UNL     1       1.441   5.303  20.727  0.00  0.00    +0.000 A 
ATOM      6  C   UNL     1       1.655   4.352  19.704  0.00  0.00    +0.000 A 
ENDROOT
BRANCH   6   7
ATOM      7  C   UNL     1       1.237   2.927  20.013  0.00  0.00    +0.000 C 
ATOM      8  F   UNL     1       0.223   2.439  19.254  0.00  0.00    +0.000 F 
ATOM      9  F   UNL     1       2.272   2.050  19.875  0.00  0.00    +0.000 F 
ATOM     10  F   UNL     1       0.813   2.791  21.307  0.00  0.00    +0.000 F 
ENDBRANCH   6   7
BRANCH   1  11
ATOM     11  C   UNL     1       2.576   3.877  17.323  0.00  0.00    +0.000 C 
BRANCH  11  13
ATOM     12  N   UNL     1       4.797   4.001  16.334  0.00  0.00    +0.000 NA
ATOM     13  C   UNL     1       4.027   3.474  17.237  0.00  0.00    +0.000 C 
BRANCH  12  14
ATOM     14  N   UNL     1       6.097   3.622  16.402  0.00  0.00    +0.000 N 
ATOM     15  H   UNL     1       6.352   2.855  15.777  0.00  0.00    +0.000 HD
BRANCH  14  16
ATOM     16  C   UNL     1       7.092   4.692  16.324  0.00  0.00    +0.000 C 
BRANCH  16  18
ATOM     17  C   UNL     1       7.661   5.643  18.922  0.00  0.00    +0.000 C 
ATOM     18  C   UNL     1       7.399   5.203  17.723  0.00  0.00    +0.000 C 
ENDBRANCH  16  18
ENDBRANCH  14  16
ENDBRANCH  12  14
ENDBRANCH  11  13
ENDBRANCH   1  11
TORSDOF 6
ENDMDL
MODEL 3
REMARK VINA RESULT:      -6.7      1.024      1.661
REMARK  Name = 
REMARK  6 active torsions:
REMARK  status: ('A' for Active; 'I' for Inactive)
REMARK    1  A    between atoms: C_2  and  C_3
REMARK    2  A    between atoms: C_3  and  N_4
REMARK    3  A    between atoms: N_4  and  N_5
REMARK    4  A    between atoms: C_6  and  C_7
REMARK    5  A    between atoms: C_7  and  C_8
REMARK    6  A    between atoms: C_13  and  C_14
REMARK                            x       y       z     vdW  Elec       q    Type
REMARK                         _______ _______ _______ _____ _____    ______ ____
ROOT
ATOM      1  C   UNL     1       2.308   4.792  18.459  0.00  0.00    +0.000 A 
ATOM      2  C   UNL     1       2.651   6.140  18.239  0.00  0.00    +0.000 A 
ATOM      3  C   UNL     1       2.463   7.111  19.228  0.00  0.00    +0.000 A 
ATOM      4  C   UNL     1       1.909   6.754  20.444  0.00  0.00    +0.000 A 
ATOM      5  C   UNL     1       1.547   5.431  20.679  0.00  0.00    +0.000 A 
ATOM      6  C   UNL     1       1.733   4.428  19.702  0.00  0.00    +0.000 A 
ENDROOT
BRANCH   6   7
ATOM      7  C   UNL     1       1.315   3.023  20.094  0.00  0.00    +0.000 C 
ATOM      8  F   UNL     1       2.278   2.073  19.974  0.00  0.00    +0.000 F 
ATOM      9  F   UNL     1       0.877   2.960  21.384  0.00  0.00    +0.000 F 
ATOM     10  F   UNL     1       0.271   2.572  19.331  0.00  0.00    +0.000 F 
ENDBRANCH   6   7
BRANCH   1  11
ATOM     11  C   UNL     1       2.597   3.825  17.328  0.00  0.00    +0.000 C 
BRANCH  11  13
ATOM     12  N   UNL     1       4.745   3.938  16.189  0.00  0.00    +0.000 NA
ATOM     13  C   UNL     1       4.055   3.468  17.183  0.00  0.00    +0.000 C 
BRANCH  12  14
ATOM     14  N   UNL     1       6.061   3.613  16.205  0.00  0.00    +0.000 N 
ATOM     15  H   UNL     1       6.289   2.728  15.748  0.00  0.00    +0.000 HD
BRANCH  14  16
ATOM     16  C   UNL     1       6.995   4.657  15.782  0.00  0.00    +0.000 C 
BRANCH  16  18
ATOM     17  C   UNL     1       6.644   6.947  17.397  0.00  0.00    +0.000 C 
ATOM     18  C   UNL     1       6.806   5.890  16.652  0.00  0.00    +0.000 C 
ENDBRANCH  16  18
ENDBRANCH  14  16
ENDBRANCH  12  14
ENDBRANCH  11  13
ENDBRANCH   1  11
TORSDOF 6
ENDMDL
MODEL 4
REMARK VINA RESULT:      -6.7      1.622      2.255
REMARK  Name = 
REMARK  6 active torsions:
REMARK  status: ('A' for Active; 'I' for Inactive)
REMARK    1  A    between atoms: C_2  and  C_3
REMARK    2  A    between atoms: C_3  and  N_4
REMARK    3  A    between atoms: N_4  and  N_5
REMARK    4  A    between atoms: C_6  and  C_7
REMARK    5  A    between atoms: C_7  and  C_8
REMARK    6  A    between atoms: C_13  and  C_14
REMARK                            x       y       z     vdW  Elec       q    Type
REMARK                         _______ _______ _______ _____ _____    ______ ____
ROOT
ATOM      1  C   UNL     1       2.375   4.872  18.465  0.00  0.00    +0.000 A 
ATOM      2  C   UNL     1       2.683   6.218  18.190  0.00  0.00    +0.000 A 
ATOM      3  C   UNL     1       2.459   7.225  19.135  0.00  0.00    +0.000 A 
ATOM      4  C   UNL     1       1.905   6.905  20.361  0.00  0.00    +0.000 A 
ATOM      5  C   UNL     1       1.577   5.583  20.650  0.00  0.00    +0.000 A 
ATOM      6  C   UNL     1       1.799   4.545  19.718  0.00  0.00    +0.000 A 
ENDROOT
BRANCH   6   7
ATOM      7  C   UNL     1       1.417   3.146  20.166  0.00  0.00    +0.000 C 
ATOM      8  F   UNL     1       0.947   3.049  21.436  0.00  0.00    +0.000 F 
ATOM      9  F   UNL     1       0.462   2.595  19.364  0.00  0.00    +0.000 F 
ATOM     10  F   UNL     1       2.481   2.287  20.112  0.00  0.00    +0.000 F 
ENDBRANCH   6   7
BRANCH   1  11
ATOM     11  C   UNL     1       2.701   3.866  17.379  0.00  0.00    +0.000 C 
BRANCH  11  13
ATOM     12  N   UNL     1       5.119   4.001  17.620  0.00  0.00    +0.000 NA
ATOM     13  C   UNL     1       4.096   3.994  16.821  0.00  0.00    +0.000 C 
BRANCH  12  14
ATOM     14  N   UNL     1       6.325   4.042  17.002  0.00  0.00    +0.000 N 
ATOM     15  H   UNL     1       6.307   4.424  16.055  0.00  0.00    +0.000 HD
BRANCH  14  16
ATOM     16  C   UNL     1       7.428   4.628  17.764  0.00  0.00    +0.000 C 
BRANCH  16  18
ATOM     17  C   UNL     1       7.378   7.438  17.489  0.00  0.00    +0.000 C 
ATOM     18  C   UNL     1       7.401   6.141  17.616  0.00  0.00    +0.000 C 
ENDBRANCH  16  18
ENDBRANCH  14  16
ENDBRANCH  12  14
ENDBRANCH  11  13
ENDBRANCH   1  11
TORSDOF 6
ENDMDL
MODEL 5
REMARK VINA RESULT:      -6.7      2.247      3.034
REMARK  Name = 
REMARK  6 active torsions:
REMARK  status: ('A' for Active; 'I' for Inactive)
REMARK    1  A    between atoms: C_2  and  C_3
REMARK    2  A    between atoms: C_3  and  N_4
REMARK    3  A    between atoms: N_4  and  N_5
REMARK    4  A    between atoms: C_6  and  C_7
REMARK    5  A    between atoms: C_7  and  C_8
REMARK    6  A    between atoms: C_13  and  C_14
REMARK                            x       y       z     vdW  Elec       q    Type
REMARK                         _______ _______ _______ _____ _____    ______ ____
ROOT
ATOM      1  C   UNL     1       3.211   4.625  18.266  0.00  0.00    +0.000 A 
ATOM      2  C   UNL     1       3.130   5.975  18.657  0.00  0.00    +0.000 A 
ATOM      3  C   UNL     1       2.375   6.368  19.766  0.00  0.00    +0.000 A 
ATOM      4  C   UNL     1       1.671   5.421  20.488  0.00  0.00    +0.000 A 
ATOM      5  C   UNL     1       1.722   4.082  20.111  0.00  0.00    +0.000 A 
ATOM      6  C   UNL     1       2.483   3.655  19.000  0.00  0.00    +0.000 A 
ENDROOT
BRANCH   6   7
ATOM      7  C   UNL     1       2.470   2.166  18.709  0.00  0.00    +0.000 C 
ATOM      8  F   UNL     1       1.560   1.443  19.410  0.00  0.00    +0.000 F 
ATOM      9  F   UNL     1       2.233   1.904  17.392  0.00  0.00    +0.000 F 
ATOM     10  F   UNL     1       3.678   1.584  18.985  0.00  0.00    +0.000 F 
ENDBRANCH   6   7
BRANCH   1  11
ATOM     11  C   UNL     1       4.094   4.316  17.073  0.00  0.00    +0.000 C 
BRANCH  11  13
ATOM     12  N   UNL     1       6.224   4.273  18.252  0.00  0.00    +0.000 NA
ATOM     13  C   UNL     1       5.534   4.729  17.251  0.00  0.00    +0.000 C 
BRANCH  12  14
ATOM     14  N   UNL     1       7.526   4.650  18.265  0.00  0.00    +0.000 N 
ATOM     15  H   UNL     1       7.943   4.778  17.341  0.00  0.00    +0.000 HD
BRANCH  14  16
ATOM     16  C   UNL     1       7.868   5.774  19.136  0.00  0.00    +0.000 C 
BRANCH  16  18
ATOM     17  C   UNL     1       7.901   8.162  17.629  0.00  0.00    +0.000 C 
ATOM     18  C   UNL     1       7.886   7.060  18.324  0.00  0.00    +0.000 C 
ENDBRANCH  16  18
ENDBRANCH  14  16
ENDBRANCH  12  14
ENDBRANCH  11  13
ENDBRANCH   1  11
TORSDOF 6
ENDMDL
MODEL 6
REMARK VINA RESULT:      -6.6      1.770      2.317
REMARK  Name = 
REMARK  6 active torsions:
REMARK  status: ('A' for Active; 'I' for Inactive)
REMARK    1  A    between atoms: C_2  and  C_3
REMARK    2  A    between atoms: C_3  and  N_4
REMARK    3  A    between atoms: N_4  and  N_5
REMARK    4  A    between atoms: C_6  and  C_7
REMARK    5  A    between atoms: C_7  and  C_8
REMARK    6  A    between atoms: C_13  and  C_14
REMARK                            x       y       z     vdW  Elec       q    Type
REMARK                         _______ _______ _______ _____ _____    ______ ____
ROOT
ATOM      1  C   UNL     1       2.651   4.862  18.701  0.00  0.00    +0.000 A 
ATOM      2  C   UNL     1       2.822   6.246  18.511  0.00  0.00    +0.000 A 
ATOM      3  C   UNL     1       2.333   7.174  19.437  0.00  0.00    +0.000 A 
ATOM      4  C   UNL     1       1.647   6.733  20.554  0.00  0.00    +0.000 A 
ATOM      5  C   UNL     1       1.451   5.369  20.755  0.00  0.00    +0.000 A 
ATOM      6  C   UNL     1       1.941   4.410  19.841  0.00  0.00    +0.000 A 
ENDROOT
BRANCH   6   7
ATOM      7  C   UNL     1       1.678   2.956  20.188  0.00  0.00    +0.000 C 
ATOM      8  F   UNL     1       0.977   2.253  19.261  0.00  0.00    +0.000 F 
ATOM      9  F   UNL     1       2.833   2.263  20.398  0.00  0.00    +0.000 F 
ATOM     10  F   UNL     1       0.961   2.832  21.347  0.00  0.00    +0.000 F 
ENDBRANCH   6   7
BRANCH   1  11
ATOM     11  C   UNL     1       3.261   3.953  17.651  0.00  0.00    +0.000 C 
BRANCH  11  13
ATOM     12  N   UNL     1       5.505   4.113  18.581  0.00  0.00    +0.000 NA
ATOM     13  C   UNL     1       4.758   4.084  17.520  0.00  0.00    +0.000 C 
BRANCH  12  14
ATOM     14  N   UNL     1       6.838   4.154  18.338  0.00  0.00    +0.000 N 
ATOM     15  H   UNL     1       7.316   3.255  18.421  0.00  0.00    +0.000 HD
BRANCH  14  16
ATOM     16  C   UNL     1       7.255   4.840  17.114  0.00  0.00    +0.000 C 
BRANCH  16  18
ATOM     17  C   UNL     1       7.619   7.588  17.648  0.00  0.00    +0.000 C 
ATOM     18  C   UNL     1       7.451   6.320  17.402  0.00  0.00    +0.000 C 
ENDBRANCH  16  18
ENDBRANCH  14  16
ENDBRANCH  12  14
ENDBRANCH  11  13
ENDBRANCH   1  11
TORSDOF 6
ENDMDL
MODEL 7
REMARK VINA RESULT:      -6.6      2.761      3.619
REMARK  Name = 
REMARK  6 active torsions:
REMARK  status: ('A' for Active; 'I' for Inactive)
REMARK    1  A    between atoms: C_2  and  C_3
REMARK    2  A    between atoms: C_3  and  N_4
REMARK    3  A    between atoms: N_4  and  N_5
REMARK    4  A    between atoms: C_6  and  C_7
REMARK    5  A    between atoms: C_7  and  C_8
REMARK    6  A    between atoms: C_13  and  C_14
REMARK                            x       y       z     vdW  Elec       q    Type
REMARK                         _______ _______ _______ _____ _____    ______ ____
ROOT
ATOM      1  C   UNL     1       2.519   3.923  18.483  0.00  0.00    +0.000 A 
ATOM      2  C   UNL     1       2.180   2.650  18.980  0.00  0.00    +0.000 A 
ATOM      3  C   UNL     1       1.538   2.497  20.214  0.00  0.00    +0.000 A 
ATOM      4  C   UNL     1       1.245   3.612  20.978  0.00  0.00    +0.000 A 
ATOM      5  C   UNL     1       1.586   4.880  20.515  0.00  0.00    +0.000 A 
ATOM      6  C   UNL     1       2.227   5.065  19.270  0.00  0.00    +0.000 A 
ENDROOT
BRANCH   6   7
ATOM      7  C   UNL     1       2.525   6.499  18.874  0.00  0.00    +0.000 C 
ATOM      8  F   UNL     1       3.831   6.778  18.630  0.00  0.00    +0.000 F 
ATOM      9  F   UNL     1       1.840   6.873  17.756  0.00  0.00    +0.000 F 
ATOM     10  F   UNL     1       2.147   7.384  19.848  0.00  0.00    +0.000 F 
ENDBRANCH   6   7
BRANCH   1  11
ATOM     11  C   UNL     1       3.174   3.965  17.116  0.00  0.00    +0.000 C 
BRANCH  11  13
ATOM     12  N   UNL     1       5.300   4.161  18.287  0.00  0.00    +0.000 NA
ATOM     13  C   UNL     1       4.682   3.988  17.158  0.00  0.00    +0.000 C 
BRANCH  12  14
ATOM     14  N   UNL     1       6.651   4.086  18.213  0.00  0.00    +0.000 N 
ATOM     15  H   UNL     1       7.033   3.145  18.322  0.00  0.00    +0.000 HD
BRANCH  14  16
ATOM     16  C   UNL     1       7.279   4.762  17.078  0.00  0.00    +0.000 C 
BRANCH  16  18
ATOM     17  C   UNL     1       7.582   7.508  17.663  0.00  0.00    +0.000 C 
ATOM     18  C   UNL     1       7.443   6.241  17.393  0.00  0.00    +0.000 C 
ENDBRANCH  16  18
ENDBRANCH  14  16
ENDBRANCH  12  14
ENDBRANCH  11  13
ENDBRANCH   1  11
TORSDOF 6
ENDMDL
MODEL 8
REMARK VINA RESULT:      -6.5      2.141      2.815
REMARK  Name = 
REMARK  6 active torsions:
REMARK  status: ('A' for Active; 'I' for Inactive)
REMARK    1  A    between atoms: C_2  and  C_3
REMARK    2  A    between atoms: C_3  and  N_4
REMARK    3  A    between atoms: N_4  and  N_5
REMARK    4  A    between atoms: C_6  and  C_7
REMARK    5  A    between atoms: C_7  and  C_8
REMARK    6  A    between atoms: C_13  and  C_14
REMARK                            x       y       z     vdW  Elec       q    Type
REMARK                         _______ _______ _______ _____ _____    ______ ____
ROOT
ATOM      1  C   UNL     1       2.983   4.680  18.556  0.00  0.00    +0.000 A 
ATOM      2  C   UNL     1       3.019   5.962  19.139  0.00  0.00    +0.000 A 
ATOM      3  C   UNL     1       2.130   6.325  20.156  0.00  0.00    +0.000 A 
ATOM      4  C   UNL     1       1.178   5.421  20.591  0.00  0.00    +0.000 A 
ATOM      5  C   UNL     1       1.113   4.153  20.018  0.00  0.00    +0.000 A 
ATOM      6  C   UNL     1       2.003   3.756  18.996  0.00  0.00    +0.000 A 
ENDROOT
BRANCH   6   7
ATOM      7  C   UNL     1       1.838   2.341  18.473  0.00  0.00    +0.000 C 
ATOM      8  F   UNL     1       2.162   2.161  17.167  0.00  0.00    +0.000 F 
ATOM      9  F   UNL     1       2.585   1.445  19.179  0.00  0.00    +0.000 F 
ATOM     10  F   UNL     1       0.545   1.906  18.583  0.00  0.00    +0.000 F 
ENDBRANCH   6   7
BRANCH   1  11
ATOM     11  C   UNL     1       4.024   4.389  17.493  0.00  0.00    +0.000 C 
BRANCH  11  13
ATOM     12  N   UNL     1       6.439   4.692  17.431  0.00  0.00    +0.000 NA
ATOM     13  C   UNL     1       5.414   4.173  18.036  0.00  0.00    +0.000 C 
BRANCH  12  14
ATOM     14  N   UNL     1       7.627   4.496  18.053  0.00  0.00    +0.000 N 
ATOM     15  H   UNL     1       8.392   4.220  17.436  0.00  0.00    +0.000 HD
BRANCH  14  16
ATOM     16  C   UNL     1       8.066   5.554  18.964  0.00  0.00    +0.000 C 
BRANCH  16  18
ATOM     17  C   UNL     1       7.787   8.064  17.702  0.00  0.00    +0.000 C 
ATOM     18  C   UNL     1       7.916   6.905  18.285  0.00  0.00    +0.000 C 
ENDBRANCH  16  18
ENDBRANCH  14  16
ENDBRANCH  12  14
ENDBRANCH  11  13
ENDBRANCH   1  11
TORSDOF 6
ENDMDL
MODEL 9
REMARK VINA RESULT:      -6.4      3.220      4.229
REMARK  Name = 
REMARK  6 active torsions:
REMARK  status: ('A' for Active; 'I' for Inactive)
REMARK    1  A    between atoms: C_2  and  C_3
REMARK    2  A    between atoms: C_3  and  N_4
REMARK    3  A    between atoms: N_4  and  N_5
REMARK    4  A    between atoms: C_6  and  C_7
REMARK    5  A    between atoms: C_7  and  C_8
REMARK    6  A    between atoms: C_13  and  C_14
REMARK                            x       y       z     vdW  Elec       q    Type
REMARK                         _______ _______ _______ _____ _____    ______ ____
ROOT
ATOM      1  C   UNL     1       4.170   4.208  17.063  0.00  0.00    +0.000 A 
ATOM      2  C   UNL     1       3.388   3.059  17.290  0.00  0.00    +0.000 A 
ATOM      3  C   UNL     1       2.112   3.146  17.856  0.00  0.00    +0.000 A 
ATOM      4  C   UNL     1       1.606   4.381  18.223  0.00  0.00    +0.000 A 
ATOM      5  C   UNL     1       2.367   5.529  18.023  0.00  0.00    +0.000 A 
ATOM      6  C   UNL     1       3.656   5.472  17.447  0.00  0.00    +0.000 A 
ENDROOT
BRANCH   6   7
ATOM      7  C   UNL     1       4.370   6.798  17.267  0.00  0.00    +0.000 C 
ATOM      8  F   UNL     1       3.708   7.887  17.736  0.00  0.00    +0.000 F 
ATOM      9  F   UNL     1       5.593   6.807  17.870  0.00  0.00    +0.000 F 
ATOM     10  F   UNL     1       4.612   7.070  15.947  0.00  0.00    +0.000 F 
ENDBRANCH   6   7
BRANCH   1  11
ATOM     11  C   UNL     1       5.519   3.992  16.407  0.00  0.00    +0.000 C 
BRANCH  11  13
ATOM     12  N   UNL     1       6.610   4.136  14.236  0.00  0.00    +0.000 NA
ATOM     13  C   UNL     1       5.497   4.113  14.904  0.00  0.00    +0.000 C 
BRANCH  12  14
ATOM     14  N   UNL     1       6.465   4.169  12.888  0.00  0.00    +0.000 N 
ATOM     15  H   UNL     1       7.255   4.575  12.383  0.00  0.00    +0.000 HD
BRANCH  14  16
ATOM     16  C   UNL     1       6.040   2.923  12.249  0.00  0.00    +0.000 C 
BRANCH  16  18
ATOM     17  C   UNL     1       3.608   3.347  10.879  0.00  0.00    +0.000 C 
ATOM     18  C   UNL     1       4.730   3.151  11.512  0.00  0.00    +0.000 C 
ENDBRANCH  16  18
ENDBRANCH  14  16
ENDBRANCH  12  14
ENDBRANCH  11  13
ENDBRANCH   1  11
TORSDOF 6
ENDMDL
