MODEL 1
REMARK VINA RESULT:      -7.7      0.000      0.000
REMARK  Name = 
REMARK  7 active torsions:
REMARK  status: ('A' for Active; 'I' for Inactive)
REMARK    1  A    between atoms: C_1  and  C_2
REMARK    2  A    between atoms: C_4  and  S_5
REMARK    3  A    between atoms: S_5  and  C_6
REMARK    4  A    between atoms: C_6  and  C_7
REMARK    5  A    between atoms: N_13  and  N_14
REMARK    6  A    between atoms: N_14  and  C_15
REMARK    7  A    between atoms: C_22  and  C_23
REMARK                            x       y       z     vdW  Elec       q    Type
REMARK                         _______ _______ _______ _____ _____    ______ ____
ROOT
ATOM      1  C   UNL     1       7.475   4.863  14.718  0.00  0.00    +0.000 C 
ATOM      2  C   UNL     1       6.311   4.881  15.642  0.00  0.00    +0.000 A 
ATOM      3  N   UNL     1       5.256   4.033  15.385  0.00  0.00    +0.000 NA
ATOM      4  C   UNL     1       4.428   4.198  16.383  0.00  0.00    +0.000 A 
ATOM      5  N   UNL     1       4.859   5.182  17.269  0.00  0.00    +0.000 N 
ATOM      6  C   UNL     1       6.108   5.619  16.812  0.00  0.00    +0.000 A 
ENDROOT
BRANCH   6   7
ATOM      7  C   UNL     1       6.969   6.632  17.468  0.00  0.00    +0.000 A 
ATOM      8  C   UNL     1       7.784   6.332  18.571  0.00  0.00    +0.000 A 
ATOM      9  C   UNL     1       8.554   7.318  19.204  0.00  0.00    +0.000 A 
ATOM     10  C   UNL     1       8.556   8.621  18.724  0.00  0.00    +0.000 A 
ATOM     11  C   UNL     1       7.792   8.937  17.607  0.00  0.00    +0.000 A 
ATOM     12  C   UNL     1       7.003   7.955  16.995  0.00  0.00    +0.000 A 
ENDBRANCH   6   7
BRANCH   5  13
ATOM     13  N   UNL     1       4.279   5.541  18.500  0.00  0.00    +0.000 N 
ATOM     14  H   UNL     1       3.947   4.690  18.946  0.00  0.00    +0.000 HD
BRANCH  13  15
ATOM     15  C   UNL     1       3.342   6.587  18.689  0.00  0.00    +0.000 A 
ATOM     16  C   UNL     1       3.191   7.536  17.665  0.00  0.00    +0.000 A 
ATOM     17  C   UNL     1       2.353   8.642  17.825  0.00  0.00    +0.000 A 
ATOM     18  C   UNL     1       1.637   8.801  19.007  0.00  0.00    +0.000 A 
ATOM     19  C   UNL     1       1.726   7.827  20.000  0.00  0.00    +0.000 A 
ATOM     20 CL   UNL     1       0.861   8.040  21.474  0.00  0.00    +0.000 Cl
ATOM     21  C   UNL     1       2.537   6.703  19.828  0.00  0.00    +0.000 A 
ENDBRANCH  13  15
ENDBRANCH   5  13
BRANCH   4  22
ATOM     22  S   UNL     1       2.939   3.326  16.619  0.00  0.00    +0.000 S 
BRANCH  22  23
ATOM     23  C   UNL     1       3.319   2.140  17.918  0.00  0.00    +0.000 C 
BRANCH  23  24
ATOM     24  C   UNL     1       2.652   2.500  19.221  0.00  0.00    +0.000 A 
ATOM     25  C   UNL     1       3.318   2.325  20.444  0.00  0.00    +0.000 A 
ATOM     26  C   UNL     1       2.676   2.624  21.644  0.00  0.00    +0.000 A 
ATOM     27  C   UNL     1       1.365   3.094  21.632  0.00  0.00    +0.000 A 
ATOM     28  C   UNL     1       0.689   3.265  20.426  0.00  0.00    +0.000 A 
ATOM     29  C   UNL     1       1.334   2.971  19.220  0.00  0.00    +0.000 A 
ENDBRANCH  23  24
ENDBRANCH  22  23
ENDBRANCH   4  22
TORSDOF 6
ENDMDL
MODEL 2
REMARK VINA RESULT:      -7.5      0.894      1.575
REMARK  Name = 
REMARK  7 active torsions:
REMARK  status: ('A' for Active; 'I' for Inactive)
REMARK    1  A    between atoms: C_1  and  C_2
REMARK    2  A    between atoms: C_4  and  S_5
REMARK    3  A    between atoms: S_5  and  C_6
REMARK    4  A    between atoms: C_6  and  C_7
REMARK    5  A    between atoms: N_13  and  N_14
REMARK    6  A    between atoms: N_14  and  C_15
REMARK    7  A    between atoms: C_22  and  C_23
REMARK                            x       y       z     vdW  Elec       q    Type
REMARK                         _______ _______ _______ _____ _____    ______ ____
ROOT
ATOM      1  C   UNL     1       7.245   5.021  14.518  0.00  0.00    +0.000 C 
ATOM      2  C   UNL     1       6.178   4.898  15.545  0.00  0.00    +0.000 A 
ATOM      3  N   UNL     1       5.131   4.036  15.304  0.00  0.00    +0.000 NA
ATOM      4  C   UNL     1       4.400   4.066  16.388  0.00  0.00    +0.000 A 
ATOM      5  N   UNL     1       4.884   4.977  17.324  0.00  0.00    +0.000 N 
ATOM      6  C   UNL     1       6.067   5.509  16.797  0.00  0.00    +0.000 A 
ENDROOT
BRANCH   6   7
ATOM      7  C   UNL     1       6.954   6.489  17.468  0.00  0.00    +0.000 A 
ATOM      8  C   UNL     1       7.739   6.158  18.584  0.00  0.00    +0.000 A 
ATOM      9  C   UNL     1       8.535   7.115  19.230  0.00  0.00    +0.000 A 
ATOM     10  C   UNL     1       8.594   8.417  18.751  0.00  0.00    +0.000 A 
ATOM     11  C   UNL     1       7.861   8.761  17.622  0.00  0.00    +0.000 A 
ATOM     12  C   UNL     1       7.045   7.809  16.996  0.00  0.00    +0.000 A 
ENDBRANCH   6   7
BRANCH   5  13
ATOM     13  N   UNL     1       4.417   5.189  18.635  0.00  0.00    +0.000 N 
ATOM     14  H   UNL     1       4.145   4.287  19.017  0.00  0.00    +0.000 HD
BRANCH  13  15
ATOM     15  C   UNL     1       3.483   6.182  19.019  0.00  0.00    +0.000 A 
ATOM     16  C   UNL     1       2.790   6.010  20.229  0.00  0.00    +0.000 A 
ATOM     17  C   UNL     1       1.792   6.904  20.621  0.00  0.00    +0.000 A 
ATOM     18  C   UNL     1       1.487   7.996  19.815  0.00  0.00    +0.000 A 
ATOM     19  C   UNL     1       2.217   8.214  18.648  0.00  0.00    +0.000 A 
ATOM     20 CL   UNL     1       1.818   9.550  17.637  0.00  0.00    +0.000 Cl
ATOM     21  C   UNL     1       3.240   7.340  18.272  0.00  0.00    +0.000 A 
ENDBRANCH  13  15
ENDBRANCH   5  13
BRANCH   4  22
ATOM     22  S   UNL     1       2.971   3.112  16.675  0.00  0.00    +0.000 S 
BRANCH  22  23
ATOM     23  C   UNL     1       3.432   2.017  18.026  0.00  0.00    +0.000 C 
BRANCH  23  24
ATOM     24  C   UNL     1       2.669   2.329  19.288  0.00  0.00    +0.000 A 
ATOM     25  C   UNL     1       1.316   2.701  19.240  0.00  0.00    +0.000 A 
ATOM     26  C   UNL     1       0.634   3.026  20.410  0.00  0.00    +0.000 A 
ATOM     27  C   UNL     1       1.297   2.986  21.635  0.00  0.00    +0.000 A 
ATOM     28  C   UNL     1       2.641   2.627  21.697  0.00  0.00    +0.000 A 
ATOM     29  C   UNL     1       3.327   2.295  20.524  0.00  0.00    +0.000 A 
ENDBRANCH  23  24
ENDBRANCH  22  23
ENDBRANCH   4  22
TORSDOF 6
ENDMDL
MODEL 3
REMARK VINA RESULT:      -7.2      4.922      8.054
REMARK  Name = 
REMARK  7 active torsions:
REMARK  status: ('A' for Active; 'I' for Inactive)
REMARK    1  A    between atoms: C_1  and  C_2
REMARK    2  A    between atoms: C_4  and  S_5
REMARK    3  A    between atoms: S_5  and  C_6
REMARK    4  A    between atoms: C_6  and  C_7
REMARK    5  A    between atoms: N_13  and  N_14
REMARK    6  A    between atoms: N_14  and  C_15
REMARK    7  A    between atoms: C_22  and  C_23
REMARK                            x       y       z     vdW  Elec       q    Type
REMARK                         _______ _______ _______ _____ _____    ______ ____
ROOT
ATOM      1  C   UNL     1       0.423   9.353  23.674  0.00  0.00    +0.000 C 
ATOM      2  C   UNL     1       0.489   9.656  22.221  0.00  0.00    +0.000 A 
ATOM      3  N   UNL     1       1.150   8.773  21.395  0.00  0.00    +0.000 NA
ATOM      4  C   UNL     1       0.982   9.237  20.185  0.00  0.00    +0.000 A 
ATOM      5  N   UNL     1       0.289  10.445  20.176  0.00  0.00    +0.000 N 
ATOM      6  C   UNL     1      -0.067  10.718  21.502  0.00  0.00    +0.000 A 
ENDROOT
BRANCH   6   7
ATOM      7  C   UNL     1      -0.858  11.882  21.969  0.00  0.00    +0.000 A 
ATOM      8  C   UNL     1      -2.165  11.758  22.465  0.00  0.00    +0.000 A 
ATOM      9  C   UNL     1      -2.911  12.879  22.858  0.00  0.00    +0.000 A 
ATOM     10  C   UNL     1      -2.350  14.149  22.797  0.00  0.00    +0.000 A 
ATOM     11  C   UNL     1      -1.043  14.296  22.351  0.00  0.00    +0.000 A 
ATOM     12  C   UNL     1      -0.312  13.176  21.934  0.00  0.00    +0.000 A 
ENDBRANCH   6   7
BRANCH   5  13
ATOM     13  N   UNL     1      -0.162  11.167  19.054  0.00  0.00    +0.000 N 
ATOM     14  H   UNL     1      -0.020  12.156  19.244  0.00  0.00    +0.000 HD
BRANCH  13  15
ATOM     15  C   UNL     1      -1.402  10.970  18.399  0.00  0.00    +0.000 A 
ATOM     16  C   UNL     1      -1.449  10.074  17.320  0.00  0.00    +0.000 A 
ATOM     17  C   UNL     1      -2.617   9.902  16.574  0.00  0.00    +0.000 A 
ATOM     18  C   UNL     1      -3.764  10.614  16.914  0.00  0.00    +0.000 A 
ATOM     19  C   UNL     1      -3.747  11.452  18.027  0.00  0.00    +0.000 A 
ATOM     20 CL   UNL     1      -5.159  12.354  18.428  0.00  0.00    +0.000 Cl
ATOM     21  C   UNL     1      -2.589  11.598  18.795  0.00  0.00    +0.000 A 
ENDBRANCH  13  15
ENDBRANCH   5  13
BRANCH   4  22
ATOM     22  S   UNL     1       1.550   8.483  18.722  0.00  0.00    +0.000 S 
BRANCH  22  23
ATOM     23  C   UNL     1       2.742   7.259  19.286  0.00  0.00    +0.000 C 
BRANCH  23  24
ATOM     24  C   UNL     1       2.171   5.864  19.260  0.00  0.00    +0.000 A 
ATOM     25  C   UNL     1       2.021   5.169  18.051  0.00  0.00    +0.000 A 
ATOM     26  C   UNL     1       1.455   3.896  18.037  0.00  0.00    +0.000 A 
ATOM     27  C   UNL     1       1.030   3.310  19.228  0.00  0.00    +0.000 A 
ATOM     28  C   UNL     1       1.165   3.993  20.435  0.00  0.00    +0.000 A 
ATOM     29  C   UNL     1       1.738   5.269  20.452  0.00  0.00    +0.000 A 
ENDBRANCH  23  24
ENDBRANCH  22  23
ENDBRANCH   4  22
TORSDOF 6
ENDMDL
MODEL 4
REMARK VINA RESULT:      -7.0      0.910      1.585
REMARK  Name = 
REMARK  7 active torsions:
REMARK  status: ('A' for Active; 'I' for Inactive)
REMARK    1  A    between atoms: C_1  and  C_2
REMARK    2  A    between atoms: C_4  and  S_5
REMARK    3  A    between atoms: S_5  and  C_6
REMARK    4  A    between atoms: C_6  and  C_7
REMARK    5  A    between atoms: N_13  and  N_14
REMARK    6  A    between atoms: N_14  and  C_15
REMARK    7  A    between atoms: C_22  and  C_23
REMARK                            x       y       z     vdW  Elec       q    Type
REMARK                         _______ _______ _______ _____ _____    ______ ____
ROOT
ATOM      1  C   UNL     1       7.495   5.324  14.505  0.00  0.00    +0.000 C 
ATOM      2  C   UNL     1       6.428   5.121  15.519  0.00  0.00    +0.000 A 
ATOM      3  N   UNL     1       5.443   4.195  15.259  0.00  0.00    +0.000 NA
ATOM      4  C   UNL     1       4.701   4.166  16.335  0.00  0.00    +0.000 A 
ATOM      5  N   UNL     1       5.114   5.098  17.285  0.00  0.00    +0.000 N 
ATOM      6  C   UNL     1       6.264   5.711  16.776  0.00  0.00    +0.000 A 
ENDROOT
BRANCH   6   7
ATOM      7  C   UNL     1       7.078   6.742  17.466  0.00  0.00    +0.000 A 
ATOM      8  C   UNL     1       7.077   8.090  17.077  0.00  0.00    +0.000 A 
ATOM      9  C   UNL     1       7.890   9.038  17.714  0.00  0.00    +0.000 A 
ATOM     10  C   UNL     1       8.696   8.665  18.782  0.00  0.00    +0.000 A 
ATOM     11  C   UNL     1       8.684   7.345  19.216  0.00  0.00    +0.000 A 
ATOM     12  C   UNL     1       7.891   6.396  18.558  0.00  0.00    +0.000 A 
ENDBRANCH   6   7
BRANCH   5  13
ATOM     13  N   UNL     1       4.620   5.266  18.592  0.00  0.00    +0.000 N 
ATOM     14  H   UNL     1       4.414   4.343  18.967  0.00  0.00    +0.000 HD
BRANCH  13  15
ATOM     15  C   UNL     1       3.609   6.182  18.973  0.00  0.00    +0.000 A 
ATOM     16  C   UNL     1       2.935   5.962  20.185  0.00  0.00    +0.000 A 
ATOM     17  C   UNL     1       1.868   6.775  20.574  0.00  0.00    +0.000 A 
ATOM     18  C   UNL     1       1.475   7.835  19.763  0.00  0.00    +0.000 A 
ATOM     19  C   UNL     1       2.184   8.104  18.594  0.00  0.00    +0.000 A 
ATOM     20 CL   UNL     1       1.678   9.399  17.577  0.00  0.00    +0.000 Cl
ATOM     21  C   UNL     1       3.273   7.314  18.221  0.00  0.00    +0.000 A 
ENDBRANCH  13  15
ENDBRANCH   5  13
BRANCH   4  22
ATOM     22  S   UNL     1       3.335   3.118  16.598  0.00  0.00    +0.000 S 
BRANCH  22  23
ATOM     23  C   UNL     1       3.792   2.146  18.041  0.00  0.00    +0.000 C 
BRANCH  23  24
ATOM     24  C   UNL     1       2.901   2.438  19.222  0.00  0.00    +0.000 A 
ATOM     25  C   UNL     1       3.394   2.363  20.533  0.00  0.00    +0.000 A 
ATOM     26  C   UNL     1       2.550   2.597  21.617  0.00  0.00    +0.000 A 
ATOM     27  C   UNL     1       1.208   2.902  21.400  0.00  0.00    +0.000 A 
ATOM     28  C   UNL     1       0.703   2.972  20.103  0.00  0.00    +0.000 A 
ATOM     29  C   UNL     1       1.550   2.743  19.014  0.00  0.00    +0.000 A 
ENDBRANCH  23  24
ENDBRANCH  22  23
ENDBRANCH   4  22
TORSDOF 6
ENDMDL
MODEL 5
REMARK VINA RESULT:      -7.0      2.798      6.180
REMARK  Name = 
REMARK  7 active torsions:
REMARK  status: ('A' for Active; 'I' for Inactive)
REMARK    1  A    between atoms: C_1  and  C_2
REMARK    2  A    between atoms: C_4  and  S_5
REMARK    3  A    between atoms: S_5  and  C_6
REMARK    4  A    between atoms: C_6  and  C_7
REMARK    5  A    between atoms: N_13  and  N_14
REMARK    6  A    between atoms: N_14  and  C_15
REMARK    7  A    between atoms: C_22  and  C_23
REMARK                            x       y       z     vdW  Elec       q    Type
REMARK                         _______ _______ _______ _____ _____    ______ ____
ROOT
ATOM      1  C   UNL     1       6.788   8.296  17.700  0.00  0.00    +0.000 C 
ATOM      2  C   UNL     1       6.156   7.076  17.134  0.00  0.00    +0.000 A 
ATOM      3  N   UNL     1       6.930   6.230  16.370  0.00  0.00    +0.000 NA
ATOM      4  C   UNL     1       6.154   5.218  16.080  0.00  0.00    +0.000 A 
ATOM      5  N   UNL     1       4.860   5.391  16.564  0.00  0.00    +0.000 N 
ATOM      6  C   UNL     1       4.854   6.591  17.284  0.00  0.00    +0.000 A 
ENDROOT
BRANCH   6   7
ATOM      7  C   UNL     1       3.697   7.159  18.018  0.00  0.00    +0.000 A 
ATOM      8  C   UNL     1       2.920   8.210  17.507  0.00  0.00    +0.000 A 
ATOM      9  C   UNL     1       1.859   8.762  18.239  0.00  0.00    +0.000 A 
ATOM     10  C   UNL     1       1.528   8.249  19.487  0.00  0.00    +0.000 A 
ATOM     11  C   UNL     1       2.253   7.180  19.998  0.00  0.00    +0.000 A 
ATOM     12  C   UNL     1       3.329   6.650  19.275  0.00  0.00    +0.000 A 
ENDBRANCH   6   7
BRANCH   5  13
ATOM     13  N   UNL     1       3.802   4.462  16.533  0.00  0.00    +0.000 N 
ATOM     14  H   UNL     1       3.048   4.870  15.987  0.00  0.00    +0.000 HD
BRANCH  13  15
ATOM     15  C   UNL     1       3.276   3.783  17.659  0.00  0.00    +0.000 A 
ATOM     16  C   UNL     1       1.884   3.781  17.843  0.00  0.00    +0.000 A 
ATOM     17  C   UNL     1       1.308   3.208  18.979  0.00  0.00    +0.000 A 
ATOM     18  C   UNL     1       2.119   2.610  19.938  0.00  0.00    +0.000 A 
ATOM     19  C   UNL     1       3.495   2.545  19.729  0.00  0.00    +0.000 A 
ATOM     20 CL   UNL     1       4.500   1.830  20.932  0.00  0.00    +0.000 Cl
ATOM     21  C   UNL     1       4.070   3.086  18.577  0.00  0.00    +0.000 A 
ENDBRANCH  13  15
ENDBRANCH   5  13
BRANCH   4  22
ATOM     22  S   UNL     1       6.627   3.803  15.181  0.00  0.00    +0.000 S 
BRANCH  22  23
ATOM     23  C   UNL     1       6.828   4.394  13.494  0.00  0.00    +0.000 C 
BRANCH  23  24
ATOM     24  C   UNL     1       6.088   3.531  12.504  0.00  0.00    +0.000 A 
ATOM     25  C   UNL     1       4.773   3.837  12.123  0.00  0.00    +0.000 A 
ATOM     26  C   UNL     1       4.087   3.008  11.237  0.00  0.00    +0.000 A 
ATOM     27  C   UNL     1       4.706   1.868  10.730  0.00  0.00    +0.000 A 
ATOM     28  C   UNL     1       6.009   1.548  11.106  0.00  0.00    +0.000 A 
ATOM     29  C   UNL     1       6.701   2.381  11.991  0.00  0.00    +0.000 A 
ENDBRANCH  23  24
ENDBRANCH  22  23
ENDBRANCH   4  22
TORSDOF 6
ENDMDL
MODEL 6
REMARK VINA RESULT:      -6.9      6.833     10.406
REMARK  Name = 
REMARK  7 active torsions:
REMARK  status: ('A' for Active; 'I' for Inactive)
REMARK    1  A    between atoms: C_1  and  C_2
REMARK    2  A    between atoms: C_4  and  S_5
REMARK    3  A    between atoms: S_5  and  C_6
REMARK    4  A    between atoms: C_6  and  C_7
REMARK    5  A    between atoms: N_13  and  N_14
REMARK    6  A    between atoms: N_14  and  C_15
REMARK    7  A    between atoms: C_22  and  C_23
REMARK                            x       y       z     vdW  Elec       q    Type
REMARK                         _______ _______ _______ _____ _____    ______ ____
ROOT
ATOM      1  C   UNL     1      -3.490   9.651  16.027  0.00  0.00    +0.000 C 
ATOM      2  C   UNL     1      -2.919  10.470  17.128  0.00  0.00    +0.000 A 
ATOM      3  N   UNL     1      -1.567  10.381  17.378  0.00  0.00    +0.000 NA
ATOM      4  C   UNL     1      -1.332  11.253  18.324  0.00  0.00    +0.000 A 
ATOM      5  N   UNL     1      -2.496  11.875  18.768  0.00  0.00    +0.000 N 
ATOM      6  C   UNL     1      -3.541  11.393  17.973  0.00  0.00    +0.000 A 
ENDROOT
BRANCH   6   7
ATOM      7  C   UNL     1      -4.962  11.811  18.055  0.00  0.00    +0.000 A 
ATOM      8  C   UNL     1      -5.568  12.626  17.086  0.00  0.00    +0.000 A 
ATOM      9  C   UNL     1      -6.900  13.047  17.209  0.00  0.00    +0.000 A 
ATOM     10  C   UNL     1      -7.669  12.630  18.288  0.00  0.00    +0.000 A 
ATOM     11  C   UNL     1      -7.108  11.788  19.240  0.00  0.00    +0.000 A 
ATOM     12  C   UNL     1      -5.768  11.393  19.127  0.00  0.00    +0.000 A 
ENDBRANCH   6   7
BRANCH   5  13
ATOM     13  N   UNL     1      -2.604  12.935  19.689  0.00  0.00    +0.000 N 
ATOM     14  H   UNL     1      -1.776  13.517  19.591  0.00  0.00    +0.000 HD
BRANCH  13  15
ATOM     15  C   UNL     1      -2.944  12.798  21.057  0.00  0.00    +0.000 A 
ATOM     16  C   UNL     1      -1.999  12.222  21.922  0.00  0.00    +0.000 A 
ATOM     17  C   UNL     1      -2.305  11.976  23.262  0.00  0.00    +0.000 A 
ATOM     18  C   UNL     1      -3.557  12.322  23.761  0.00  0.00    +0.000 A 
ATOM     19  C   UNL     1      -4.475  12.960  22.928  0.00  0.00    +0.000 A 
ATOM     20 CL   UNL     1      -6.034  13.362  23.539  0.00  0.00    +0.000 Cl
ATOM     21  C   UNL     1      -4.158  13.238  21.596  0.00  0.00    +0.000 A 
ENDBRANCH  13  15
ENDBRANCH   5  13
BRANCH   4  22
ATOM     22  S   UNL     1       0.232  11.622  18.997  0.00  0.00    +0.000 S 
BRANCH  22  23
ATOM     23  C   UNL     1       0.543  10.283  20.158  0.00  0.00    +0.000 C 
BRANCH  23  24
ATOM     24  C   UNL     1       1.352   9.174  19.535  0.00  0.00    +0.000 A 
ATOM     25  C   UNL     1       1.792   9.263  18.206  0.00  0.00    +0.000 A 
ATOM     26  C   UNL     1       2.506   8.213  17.630  0.00  0.00    +0.000 A 
ATOM     27  C   UNL     1       2.781   7.068  18.375  0.00  0.00    +0.000 A 
ATOM     28  C   UNL     1       2.343   6.964  19.693  0.00  0.00    +0.000 A 
ATOM     29  C   UNL     1       1.631   8.018  20.275  0.00  0.00    +0.000 A 
ENDBRANCH  23  24
ENDBRANCH  22  23
ENDBRANCH   4  22
TORSDOF 6
ENDMDL
MODEL 7
REMARK VINA RESULT:      -6.9      1.148      1.826
REMARK  Name = 
REMARK  7 active torsions:
REMARK  status: ('A' for Active; 'I' for Inactive)
REMARK    1  A    between atoms: C_1  and  C_2
REMARK    2  A    between atoms: C_4  and  S_5
REMARK    3  A    between atoms: S_5  and  C_6
REMARK    4  A    between atoms: C_6  and  C_7
REMARK    5  A    between atoms: N_13  and  N_14
REMARK    6  A    between atoms: N_14  and  C_15
REMARK    7  A    between atoms: C_22  and  C_23
REMARK                            x       y       z     vdW  Elec       q    Type
REMARK                         _______ _______ _______ _____ _____    ______ ____
ROOT
ATOM      1  C   UNL     1       5.905   3.840  15.400  0.00  0.00    +0.000 C 
ATOM      2  C   UNL     1       4.871   4.388  16.317  0.00  0.00    +0.000 A 
ATOM      3  N   UNL     1       3.590   3.888  16.235  0.00  0.00    +0.000 NA
ATOM      4  C   UNL     1       2.926   4.478  17.193  0.00  0.00    +0.000 A 
ATOM      5  N   UNL     1       3.701   5.414  17.872  0.00  0.00    +0.000 N 
ATOM      6  C   UNL     1       4.988   5.345  17.328  0.00  0.00    +0.000 A 
ENDROOT
BRANCH   6   7
ATOM      7  C   UNL     1       6.164   6.132  17.773  0.00  0.00    +0.000 A 
ATOM      8  C   UNL     1       6.498   7.374  17.210  0.00  0.00    +0.000 A 
ATOM      9  C   UNL     1       7.642   8.079  17.614  0.00  0.00    +0.000 A 
ATOM     10  C   UNL     1       8.457   7.574  18.619  0.00  0.00    +0.000 A 
ATOM     11  C   UNL     1       8.126   6.368  19.223  0.00  0.00    +0.000 A 
ATOM     12  C   UNL     1       6.998   5.654  18.797  0.00  0.00    +0.000 A 
ENDBRANCH   6   7
BRANCH   5  13
ATOM     13  N   UNL     1       3.347   6.150  19.020  0.00  0.00    +0.000 N 
ATOM     14  H   UNL     1       2.999   5.493  19.714  0.00  0.00    +0.000 HD
BRANCH  13  15
ATOM     15  C   UNL     1       2.561   7.327  19.027  0.00  0.00    +0.000 A 
ATOM     16  C   UNL     1       2.523   8.108  17.860  0.00  0.00    +0.000 A 
ATOM     17  C   UNL     1       1.840   9.326  17.829  0.00  0.00    +0.000 A 
ATOM     18  C   UNL     1       1.169   9.770  18.964  0.00  0.00    +0.000 A 
ATOM     19  C   UNL     1       1.141   8.969  20.104  0.00  0.00    +0.000 A 
ATOM     20 CL   UNL     1       0.333   9.534  21.516  0.00  0.00    +0.000 Cl
ATOM     21  C   UNL     1       1.793   7.734  20.125  0.00  0.00    +0.000 A 
ENDBRANCH  13  15
ENDBRANCH   5  13
BRANCH   4  22
ATOM     22  S   UNL     1       1.260   4.179  17.605  0.00  0.00    +0.000 S 
BRANCH  22  23
ATOM     23  C   UNL     1       1.260   2.508  18.271  0.00  0.00    +0.000 C 
BRANCH  23  24
ATOM     24  C   UNL     1       2.284   2.337  19.364  0.00  0.00    +0.000 A 
ATOM     25  C   UNL     1       3.587   1.907  19.070  0.00  0.00    +0.000 A 
ATOM     26  C   UNL     1       4.511   1.715  20.094  0.00  0.00    +0.000 A 
ATOM     27  C   UNL     1       4.142   1.946  21.418  0.00  0.00    +0.000 A 
ATOM     28  C   UNL     1       2.849   2.365  21.724  0.00  0.00    +0.000 A 
ATOM     29  C   UNL     1       1.920   2.564  20.697  0.00  0.00    +0.000 A 
ENDBRANCH  23  24
ENDBRANCH  22  23
ENDBRANCH   4  22
TORSDOF 6
ENDMDL
MODEL 8
REMARK VINA RESULT:      -6.9      2.562      6.728
REMARK  Name = 
REMARK  7 active torsions:
REMARK  status: ('A' for Active; 'I' for Inactive)
REMARK    1  A    between atoms: C_1  and  C_2
REMARK    2  A    between atoms: C_4  and  S_5
REMARK    3  A    between atoms: S_5  and  C_6
REMARK    4  A    between atoms: C_6  and  C_7
REMARK    5  A    between atoms: N_13  and  N_14
REMARK    6  A    between atoms: N_14  and  C_15
REMARK    7  A    between atoms: C_22  and  C_23
REMARK                            x       y       z     vdW  Elec       q    Type
REMARK                         _______ _______ _______ _____ _____    ______ ____
ROOT
ATOM      1  C   UNL     1       1.614  10.638  17.865  0.00  0.00    +0.000 C 
ATOM      2  C   UNL     1       1.847   9.250  18.343  0.00  0.00    +0.000 A 
ATOM      3  N   UNL     1       2.522   8.376  17.520  0.00  0.00    +0.000 NA
ATOM      4  C   UNL     1       2.654   7.276  18.215  0.00  0.00    +0.000 A 
ATOM      5  N   UNL     1       2.024   7.358  19.454  0.00  0.00    +0.000 N 
ATOM      6  C   UNL     1       1.515   8.657  19.565  0.00  0.00    +0.000 A 
ENDROOT
BRANCH   6   7
ATOM      7  C   UNL     1       0.801   9.215  20.739  0.00  0.00    +0.000 A 
ATOM      8  C   UNL     1      -0.327  10.040  20.616  0.00  0.00    +0.000 A 
ATOM      9  C   UNL     1      -0.958  10.594  21.739  0.00  0.00    +0.000 A 
ATOM     10  C   UNL     1      -0.496  10.303  23.016  0.00  0.00    +0.000 A 
ATOM     11  C   UNL     1       0.593   9.454  23.170  0.00  0.00    +0.000 A 
ATOM     12  C   UNL     1       1.237   8.925  22.043  0.00  0.00    +0.000 A 
ENDBRANCH   6   7
BRANCH   5  13
ATOM     13  N   UNL     1       2.055   6.411  20.496  0.00  0.00    +0.000 N 
ATOM     14  H   UNL     1       2.783   6.691  21.148  0.00  0.00    +0.000 HD
BRANCH  13  15
ATOM     15  C   UNL     1       2.070   5.005  20.323  0.00  0.00    +0.000 A 
ATOM     16  C   UNL     1       0.855   4.356  20.051  0.00  0.00    +0.000 A 
ATOM     17  C   UNL     1       0.786   2.964  19.960  0.00  0.00    +0.000 A 
ATOM     18  C   UNL     1       1.940   2.203  20.120  0.00  0.00    +0.000 A 
ATOM     19  C   UNL     1       3.162   2.843  20.319  0.00  0.00    +0.000 A 
ATOM     20 CL   UNL     1       4.584   1.898  20.546  0.00  0.00    +0.000 Cl
ATOM     21  C   UNL     1       3.238   4.236  20.376  0.00  0.00    +0.000 A 
ENDBRANCH  13  15
ENDBRANCH   5  13
BRANCH   4  22
ATOM     22  S   UNL     1       3.493   5.842  17.694  0.00  0.00    +0.000 S 
BRANCH  22  23
ATOM     23  C   UNL     1       4.842   6.461  16.676  0.00  0.00    +0.000 C 
BRANCH  23  24
ATOM     24  C   UNL     1       6.120   6.606  17.462  0.00  0.00    +0.000 A 
ATOM     25  C   UNL     1       6.494   5.644  18.412  0.00  0.00    +0.000 A 
ATOM     26  C   UNL     1       7.658   5.810  19.160  0.00  0.00    +0.000 A 
ATOM     27  C   UNL     1       8.453   6.938  18.969  0.00  0.00    +0.000 A 
ATOM     28  C   UNL     1       8.089   7.905  18.034  0.00  0.00    +0.000 A 
ATOM     29  C   UNL     1       6.924   7.738  17.279  0.00  0.00    +0.000 A 
ENDBRANCH  23  24
ENDBRANCH  22  23
ENDBRANCH   4  22
TORSDOF 6
ENDMDL
MODEL 9
REMARK VINA RESULT:      -6.8      4.723      7.879
REMARK  Name = 
REMARK  7 active torsions:
REMARK  status: ('A' for Active; 'I' for Inactive)
REMARK    1  A    between atoms: C_1  and  C_2
REMARK    2  A    between atoms: C_4  and  S_5
REMARK    3  A    between atoms: S_5  and  C_6
REMARK    4  A    between atoms: C_6  and  C_7
REMARK    5  A    between atoms: N_13  and  N_14
REMARK    6  A    between atoms: N_14  and  C_15
REMARK    7  A    between atoms: C_22  and  C_23
REMARK                            x       y       z     vdW  Elec       q    Type
REMARK                         _______ _______ _______ _____ _____    ______ ____
ROOT
ATOM      1  C   UNL     1       1.229   9.150  22.939  0.00  0.00    +0.000 C 
ATOM      2  C   UNL     1       1.050   9.530  21.514  0.00  0.00    +0.000 A 
ATOM      3  N   UNL     1       1.596   8.719  20.544  0.00  0.00    +0.000 NA
ATOM      4  C   UNL     1       1.220   9.239  19.405  0.00  0.00    +0.000 A 
ATOM      5  N   UNL     1       0.497  10.416  19.577  0.00  0.00    +0.000 N 
ATOM      6  C   UNL     1       0.351  10.605  20.955  0.00  0.00    +0.000 A 
ENDROOT
BRANCH   6   7
ATOM      7  C   UNL     1      -0.391  11.710  21.609  0.00  0.00    +0.000 A 
ATOM      8  C   UNL     1      -1.585  11.503  22.317  0.00  0.00    +0.000 A 
ATOM      9  C   UNL     1      -2.294  12.571  22.887  0.00  0.00    +0.000 A 
ATOM     10  C   UNL     1      -1.803  13.867  22.795  0.00  0.00    +0.000 A 
ATOM     11  C   UNL     1      -0.600  14.094  22.138  0.00  0.00    +0.000 A 
ATOM     12  C   UNL     1       0.090  13.028  21.546  0.00  0.00    +0.000 A 
ENDBRANCH   6   7
BRANCH   5  13
ATOM     13  N   UNL     1      -0.152  11.176  18.584  0.00  0.00    +0.000 N 
ATOM     14  H   UNL     1       0.024  12.158  18.781  0.00  0.00    +0.000 HD
BRANCH  13  15
ATOM     15  C   UNL     1      -1.492  10.997  18.162  0.00  0.00    +0.000 A 
ATOM     16  C   UNL     1      -1.745  10.083  17.127  0.00  0.00    +0.000 A 
ATOM     17  C   UNL     1      -3.030   9.926  16.602  0.00  0.00    +0.000 A 
ATOM     18  C   UNL     1      -4.085  10.669  17.123  0.00  0.00    +0.000 A 
ATOM     19  C   UNL     1      -3.856  11.526  18.198  0.00  0.00    +0.000 A 
ATOM     20 CL   UNL     1      -5.157  12.466  18.822  0.00  0.00    +0.000 Cl
ATOM     21  C   UNL     1      -2.578  11.658  18.747  0.00  0.00    +0.000 A 
ENDBRANCH  13  15
ENDBRANCH   5  13
BRANCH   4  22
ATOM     22  S   UNL     1       1.569   8.586  17.828  0.00  0.00    +0.000 S 
BRANCH  22  23
ATOM     23  C   UNL     1       3.205   7.858  18.000  0.00  0.00    +0.000 C 
BRANCH  23  24
ATOM     24  C   UNL     1       3.196   6.378  17.711  0.00  0.00    +0.000 A 
ATOM     25  C   UNL     1       2.087   5.586  18.044  0.00  0.00    +0.000 A 
ATOM     26  C   UNL     1       2.107   4.213  17.808  0.00  0.00    +0.000 A 
ATOM     27  C   UNL     1       3.236   3.621  17.244  0.00  0.00    +0.000 A 
ATOM     28  C   UNL     1       4.347   4.394  16.916  0.00  0.00    +0.000 A 
ATOM     29  C   UNL     1       4.326   5.774  17.147  0.00  0.00    +0.000 A 
ENDBRANCH  23  24
ENDBRANCH  22  23
ENDBRANCH   4  22
TORSDOF 6
ENDMDL
