MODEL 1
REMARK VINA RESULT:      -7.9      0.000      0.000
REMARK  Name = 
REMARK  9 active torsions:
REMARK  status: ('A' for Active; 'I' for Inactive)
REMARK    1  A    between atoms: C_1  and  O_2
REMARK    2  A    between atoms: O_2  and  C_3
REMARK    3  A    between atoms: C_7  and  C_8
REMARK    4  A    between atoms: C_8  and  C_9
REMARK    5  A    between atoms: C_8  and  O_10
REMARK    6  A    between atoms: C_8  and  C_11
REMARK    7  A    between atoms: C_13  and  C_14
REMARK    8  A    between atoms: C_17  and  O_18
REMARK    9  A    between atoms: O_18  and  C_19
REMARK                            x       y       z     vdW  Elec       q    Type
REMARK                         _______ _______ _______ _____ _____    ______ ____
ROOT
ATOM      1  C   UNL     1       3.375   4.361  19.133  0.00  0.00    +0.000 A 
ATOM      2  N   UNL     1       3.119   5.569  18.656  0.00  0.00    +0.000 NA
ATOM      3  C   UNL     1       2.310   6.273  19.532  0.00  0.00    +0.000 A 
ATOM      4  C   UNL     1       1.875   5.551  20.624  0.00  0.00    +0.000 A 
ATOM      5  S   UNL     1       2.553   3.983  20.603  0.00  0.00    +0.000 S 
ENDROOT
BRANCH   3   6
ATOM      6  C   UNL     1       1.957   7.662  19.293  0.00  0.00    +0.000 A 
ATOM      7  C   UNL     1       2.207   8.275  18.063  0.00  0.00    +0.000 A 
ATOM      8  C   UNL     1       1.844   9.609  17.870  0.00  0.00    +0.000 A 
ATOM      9  C   UNL     1       1.246  10.290  18.919  0.00  0.00    +0.000 A 
ATOM     10  N   UNL     1       1.006   9.738  20.127  0.00  0.00    +0.000 NA
ATOM     11  C   UNL     1       1.374   8.446  20.284  0.00  0.00    +0.000 A 
BRANCH   9  12
ATOM     12  O   UNL     1       0.892  11.604  18.691  0.00  0.00    +0.000 OA
ATOM     13  C   UNL     1       1.647  12.518  19.484  0.00  0.00    +0.000 C 
ENDBRANCH   9  12
ENDBRANCH   3   6
BRANCH   1  14
ATOM     14  C   UNL     1       4.331   3.371  18.465  0.00  0.00    +0.000 C 
ATOM     15  C   UNL     1       3.547   2.120  18.035  0.00  0.00    +0.000 C 
BRANCH  14  20
ATOM     16  C   UNL     1       6.729   5.738  16.603  0.00  0.00    +0.000 A 
ATOM     17  C   UNL     1       6.443   5.432  15.275  0.00  0.00    +0.000 A 
ATOM     18  C   UNL     1       5.496   4.461  14.959  0.00  0.00    +0.000 A 
ATOM     19  C   UNL     1       4.826   3.782  15.977  0.00  0.00    +0.000 A 
ATOM     20  C   UNL     1       5.101   4.055  17.327  0.00  0.00    +0.000 A 
ATOM     21  C   UNL     1       6.058   5.055  17.621  0.00  0.00    +0.000 A 
BRANCH  16  23
ATOM     22  C   UNL     1       7.874   7.198  18.092  0.00  0.00    +0.000 C 
ATOM     23  O   UNL     1       7.660   6.725  16.769  0.00  0.00    +0.000 OA
ENDBRANCH  16  23
ENDBRANCH  14  20
BRANCH  14  24
ATOM     24  O   UNL     1       5.284   2.891  19.436  0.00  0.00    +0.000 OA
ATOM     25  H   UNL     1       6.020   2.506  18.931  0.00  0.00    +0.000 HD
ENDBRANCH  14  24
ENDBRANCH   1  14
TORSDOF 6
ENDMDL
MODEL 2
REMARK VINA RESULT:      -7.7      1.041      1.857
REMARK  Name = 
REMARK  9 active torsions:
REMARK  status: ('A' for Active; 'I' for Inactive)
REMARK    1  A    between atoms: C_1  and  O_2
REMARK    2  A    between atoms: O_2  and  C_3
REMARK    3  A    between atoms: C_7  and  C_8
REMARK    4  A    between atoms: C_8  and  C_9
REMARK    5  A    between atoms: C_8  and  O_10
REMARK    6  A    between atoms: C_8  and  C_11
REMARK    7  A    between atoms: C_13  and  C_14
REMARK    8  A    between atoms: C_17  and  O_18
REMARK    9  A    between atoms: O_18  and  C_19
REMARK                            x       y       z     vdW  Elec       q    Type
REMARK                         _______ _______ _______ _____ _____    ______ ____
ROOT
ATOM      1  C   UNL     1       3.324   4.339  19.264  0.00  0.00    +0.000 A 
ATOM      2  N   UNL     1       3.100   5.543  18.762  0.00  0.00    +0.000 NA
ATOM      3  C   UNL     1       2.282   6.274  19.605  0.00  0.00    +0.000 A 
ATOM      4  C   UNL     1       1.808   5.578  20.698  0.00  0.00    +0.000 A 
ATOM      5  S   UNL     1       2.461   3.999  20.720  0.00  0.00    +0.000 S 
ENDROOT
BRANCH   3   6
ATOM      6  C   UNL     1       1.957   7.665  19.335  0.00  0.00    +0.000 A 
ATOM      7  C   UNL     1       2.244   8.252  18.100  0.00  0.00    +0.000 A 
ATOM      8  C   UNL     1       1.908   9.588  17.877  0.00  0.00    +0.000 A 
ATOM      9  C   UNL     1       1.299  10.297  18.901  0.00  0.00    +0.000 A 
ATOM     10  N   UNL     1       1.023   9.770  20.113  0.00  0.00    +0.000 NA
ATOM     11  C   UNL     1       1.366   8.475  20.300  0.00  0.00    +0.000 A 
BRANCH   9  12
ATOM     12  O   UNL     1       0.972  11.613  18.642  0.00  0.00    +0.000 OA
ATOM     13  C   UNL     1       0.713  12.355  19.833  0.00  0.00    +0.000 C 
ENDBRANCH   9  12
ENDBRANCH   3   6
BRANCH   1  14
ATOM     14  C   UNL     1       4.280   3.323  18.637  0.00  0.00    +0.000 C 
ATOM     15  C   UNL     1       3.467   2.157  18.049  0.00  0.00    +0.000 C 
BRANCH  14  20
ATOM     16  C   UNL     1       5.746   4.579  15.306  0.00  0.00    +0.000 A 
ATOM     17  C   UNL     1       6.943   5.149  15.729  0.00  0.00    +0.000 A 
ATOM     18  C   UNL     1       7.290   5.153  17.078  0.00  0.00    +0.000 A 
ATOM     19  C   UNL     1       6.433   4.584  18.020  0.00  0.00    +0.000 A 
ATOM     20  C   UNL     1       5.210   4.014  17.630  0.00  0.00    +0.000 A 
ATOM     21  C   UNL     1       4.887   4.012  16.252  0.00  0.00    +0.000 A 
BRANCH  16  23
ATOM     22  C   UNL     1       6.145   3.600  13.174  0.00  0.00    +0.000 C 
ATOM     23  O   UNL     1       5.542   4.624  13.955  0.00  0.00    +0.000 OA
ENDBRANCH  16  23
ENDBRANCH  14  20
BRANCH  14  24
ATOM     24  O   UNL     1       5.090   2.721  19.668  0.00  0.00    +0.000 OA
ATOM     25  H   UNL     1       5.508   1.940  19.267  0.00  0.00    +0.000 HD
ENDBRANCH  14  24
ENDBRANCH   1  14
TORSDOF 6
ENDMDL
MODEL 3
REMARK VINA RESULT:      -7.6      1.049      2.073
REMARK  Name = 
REMARK  9 active torsions:
REMARK  status: ('A' for Active; 'I' for Inactive)
REMARK    1  A    between atoms: C_1  and  O_2
REMARK    2  A    between atoms: O_2  and  C_3
REMARK    3  A    between atoms: C_7  and  C_8
REMARK    4  A    between atoms: C_8  and  C_9
REMARK    5  A    between atoms: C_8  and  O_10
REMARK    6  A    between atoms: C_8  and  C_11
REMARK    7  A    between atoms: C_13  and  C_14
REMARK    8  A    between atoms: C_17  and  O_18
REMARK    9  A    between atoms: O_18  and  C_19
REMARK                            x       y       z     vdW  Elec       q    Type
REMARK                         _______ _______ _______ _____ _____    ______ ____
ROOT
ATOM      1  C   UNL     1       3.407   4.404  19.485  0.00  0.00    +0.000 A 
ATOM      2  N   UNL     1       3.130   5.666  19.199  0.00  0.00    +0.000 NA
ATOM      3  C   UNL     1       2.158   6.154  20.056  0.00  0.00    +0.000 A 
ATOM      4  C   UNL     1       1.631   5.219  20.925  0.00  0.00    +0.000 A 
ATOM      5  S   UNL     1       2.422   3.717  20.725  0.00  0.00    +0.000 S 
ENDROOT
BRANCH   3   6
ATOM      6  C   UNL     1       1.738   7.545  20.020  0.00  0.00    +0.000 A 
ATOM      7  C   UNL     1       1.177   8.165  21.138  0.00  0.00    +0.000 A 
ATOM      8  C   UNL     1       0.795   9.505  21.065  0.00  0.00    +0.000 A 
ATOM      9  C   UNL     1       0.985  10.182  19.870  0.00  0.00    +0.000 A 
ATOM     10  N   UNL     1       1.506   9.613  18.764  0.00  0.00    +0.000 NA
ATOM     11  C   UNL     1       1.860   8.311  18.864  0.00  0.00    +0.000 A 
BRANCH   9  12
ATOM     12  O   UNL     1       0.605  11.509  19.837  0.00  0.00    +0.000 OA
ATOM     13  C   UNL     1       1.413  12.286  18.955  0.00  0.00    +0.000 C 
ENDBRANCH   9  12
ENDBRANCH   3   6
BRANCH   1  14
ATOM     14  C   UNL     1       4.517   3.604  18.801  0.00  0.00    +0.000 C 
ATOM     15  C   UNL     1       3.899   2.701  17.719  0.00  0.00    +0.000 C 
BRANCH  14  20
ATOM     16  C   UNL     1       6.963   5.378  16.415  0.00  0.00    +0.000 A 
ATOM     17  C   UNL     1       7.704   6.151  17.305  0.00  0.00    +0.000 A 
ATOM     18  C   UNL     1       7.423   6.128  18.669  0.00  0.00    +0.000 A 
ATOM     19  C   UNL     1       6.391   5.327  19.155  0.00  0.00    +0.000 A 
ATOM     20  C   UNL     1       5.614   4.545  18.285  0.00  0.00    +0.000 A 
ATOM     21  C   UNL     1       5.928   4.577  16.905  0.00  0.00    +0.000 A 
BRANCH  16  23
ATOM     22  C   UNL     1       6.695   4.650  14.166  0.00  0.00    +0.000 C 
ATOM     23  O   UNL     1       7.360   5.478  15.111  0.00  0.00    +0.000 OA
ENDBRANCH  16  23
ENDBRANCH  14  20
BRANCH  14  24
ATOM     24  O   UNL     1       5.107   2.690  19.748  0.00  0.00    +0.000 OA
ATOM     25  H   UNL     1       5.086   3.138  20.611  0.00  0.00    +0.000 HD
ENDBRANCH  14  24
ENDBRANCH   1  14
TORSDOF 6
ENDMDL
MODEL 4
REMARK VINA RESULT:      -7.6      1.237      2.105
REMARK  Name = 
REMARK  9 active torsions:
REMARK  status: ('A' for Active; 'I' for Inactive)
REMARK    1  A    between atoms: C_1  and  O_2
REMARK    2  A    between atoms: O_2  and  C_3
REMARK    3  A    between atoms: C_7  and  C_8
REMARK    4  A    between atoms: C_8  and  C_9
REMARK    5  A    between atoms: C_8  and  O_10
REMARK    6  A    between atoms: C_8  and  C_11
REMARK    7  A    between atoms: C_13  and  C_14
REMARK    8  A    between atoms: C_17  and  O_18
REMARK    9  A    between atoms: O_18  and  C_19
REMARK                            x       y       z     vdW  Elec       q    Type
REMARK                         _______ _______ _______ _____ _____    ______ ____
ROOT
ATOM      1  C   UNL     1       3.329   4.328  19.307  0.00  0.00    +0.000 A 
ATOM      2  N   UNL     1       3.122   5.522  18.776  0.00  0.00    +0.000 NA
ATOM      3  C   UNL     1       2.305   6.281  19.596  0.00  0.00    +0.000 A 
ATOM      4  C   UNL     1       1.815   5.614  20.701  0.00  0.00    +0.000 A 
ATOM      5  S   UNL     1       2.451   4.029  20.763  0.00  0.00    +0.000 S 
ENDROOT
BRANCH   3   6
ATOM      6  C   UNL     1       1.997   7.669  19.292  0.00  0.00    +0.000 A 
ATOM      7  C   UNL     1       1.361   8.493  20.222  0.00  0.00    +0.000 A 
ATOM      8  C   UNL     1       1.092   9.824  19.895  0.00  0.00    +0.000 A 
ATOM      9  C   UNL     1       1.466  10.285  18.642  0.00  0.00    +0.000 A 
ATOM     10  N   UNL     1       2.065   9.514  17.710  0.00  0.00    +0.000 NA
ATOM     11  C   UNL     1       2.307   8.228  18.055  0.00  0.00    +0.000 A 
BRANCH   9  12
ATOM     12  O   UNL     1       1.193  11.607  18.356  0.00  0.00    +0.000 OA
ATOM     13  C   UNL     1       1.258  12.440  19.511  0.00  0.00    +0.000 C 
ENDBRANCH   9  12
ENDBRANCH   3   6
BRANCH   1  14
ATOM     14  C   UNL     1       4.279   3.288  18.710  0.00  0.00    +0.000 C 
ATOM     15  C   UNL     1       3.465   2.077  18.224  0.00  0.00    +0.000 C 
BRANCH  14  20
ATOM     16  C   UNL     1       5.619   4.339  15.257  0.00  0.00    +0.000 A 
ATOM     17  C   UNL     1       6.813   4.966  15.604  0.00  0.00    +0.000 A 
ATOM     18  C   UNL     1       7.196   5.074  16.939  0.00  0.00    +0.000 A 
ATOM     19  C   UNL     1       6.380   4.553  17.943  0.00  0.00    +0.000 A 
ATOM     20  C   UNL     1       5.162   3.927  17.630  0.00  0.00    +0.000 A 
ATOM     21  C   UNL     1       4.802   3.820  16.266  0.00  0.00    +0.000 A 
BRANCH  16  23
ATOM     22  C   UNL     1       6.436   3.821  13.083  0.00  0.00    +0.000 C 
ATOM     23  O   UNL     1       5.378   4.282  13.913  0.00  0.00    +0.000 OA
ENDBRANCH  16  23
ENDBRANCH  14  20
BRANCH  14  24
ATOM     24  O   UNL     1       5.133   2.763  19.747  0.00  0.00    +0.000 OA
ATOM     25  H   UNL     1       4.560   2.245  20.337  0.00  0.00    +0.000 HD
ENDBRANCH  14  24
ENDBRANCH   1  14
TORSDOF 6
ENDMDL
MODEL 5
REMARK VINA RESULT:      -7.5      2.522      3.303
REMARK  Name = 
REMARK  9 active torsions:
REMARK  status: ('A' for Active; 'I' for Inactive)
REMARK    1  A    between atoms: C_1  and  O_2
REMARK    2  A    between atoms: O_2  and  C_3
REMARK    3  A    between atoms: C_7  and  C_8
REMARK    4  A    between atoms: C_8  and  C_9
REMARK    5  A    between atoms: C_8  and  O_10
REMARK    6  A    between atoms: C_8  and  C_11
REMARK    7  A    between atoms: C_13  and  C_14
REMARK    8  A    between atoms: C_17  and  O_18
REMARK    9  A    between atoms: O_18  and  C_19
REMARK                            x       y       z     vdW  Elec       q    Type
REMARK                         _______ _______ _______ _____ _____    ______ ____
ROOT
ATOM      1  C   UNL     1       2.713   6.518  18.907  0.00  0.00    +0.000 A 
ATOM      2  N   UNL     1       2.131   7.048  19.971  0.00  0.00    +0.000 NA
ATOM      3  C   UNL     1       1.744   8.352  19.712  0.00  0.00    +0.000 A 
ATOM      4  C   UNL     1       2.129   8.835  18.478  0.00  0.00    +0.000 A 
ATOM      5  S   UNL     1       2.922   7.611  17.587  0.00  0.00    +0.000 S 
ENDROOT
BRANCH   3   6
ATOM      6  C   UNL     1       0.995   9.132  20.684  0.00  0.00    +0.000 A 
ATOM      7  C   UNL     1       0.007  10.034  20.286  0.00  0.00    +0.000 A 
ATOM      8  C   UNL     1      -0.696  10.758  21.251  0.00  0.00    +0.000 A 
ATOM      9  C   UNL     1      -0.383  10.556  22.586  0.00  0.00    +0.000 A 
ATOM     10  N   UNL     1       0.578   9.708  23.008  0.00  0.00    +0.000 NA
ATOM     11  C   UNL     1       1.245   9.026  22.049  0.00  0.00    +0.000 A 
BRANCH   9  12
ATOM     12  O   UNL     1      -1.104  11.281  23.513  0.00  0.00    +0.000 OA
ATOM     13  C   UNL     1      -1.587  12.515  22.986  0.00  0.00    +0.000 C 
ENDBRANCH   9  12
ENDBRANCH   3   6
BRANCH   1  14
ATOM     14  C   UNL     1       3.155   5.056  18.822  0.00  0.00    +0.000 C 
ATOM     15  C   UNL     1       2.105   4.253  18.036  0.00  0.00    +0.000 C 
BRANCH  14  20
ATOM     16  C   UNL     1       6.079   4.257  16.449  0.00  0.00    +0.000 A 
ATOM     17  C   UNL     1       7.173   4.637  17.223  0.00  0.00    +0.000 A 
ATOM     18  C   UNL     1       6.991   5.163  18.499  0.00  0.00    +0.000 A 
ATOM     19  C   UNL     1       5.704   5.318  19.013  0.00  0.00    +0.000 A 
ATOM     20  C   UNL     1       4.577   4.959  18.256  0.00  0.00    +0.000 A 
ATOM     21  C   UNL     1       4.790   4.415  16.966  0.00  0.00    +0.000 A 
BRANCH  16  23
ATOM     22  C   UNL     1       6.721   4.655  14.193  0.00  0.00    +0.000 C 
ATOM     23  O   UNL     1       6.401   3.735  15.228  0.00  0.00    +0.000 OA
ENDBRANCH  16  23
ENDBRANCH  14  20
BRANCH  14  24
ATOM     24  O   UNL     1       3.148   4.473  20.142  0.00  0.00    +0.000 OA
ATOM     25  H   UNL     1       2.214   4.380  20.396  0.00  0.00    +0.000 HD
ENDBRANCH  14  24
ENDBRANCH   1  14
TORSDOF 6
ENDMDL
MODEL 6
REMARK VINA RESULT:      -7.5      0.831      1.196
REMARK  Name = 
REMARK  9 active torsions:
REMARK  status: ('A' for Active; 'I' for Inactive)
REMARK    1  A    between atoms: C_1  and  O_2
REMARK    2  A    between atoms: O_2  and  C_3
REMARK    3  A    between atoms: C_7  and  C_8
REMARK    4  A    between atoms: C_8  and  C_9
REMARK    5  A    between atoms: C_8  and  O_10
REMARK    6  A    between atoms: C_8  and  C_11
REMARK    7  A    between atoms: C_13  and  C_14
REMARK    8  A    between atoms: C_17  and  O_18
REMARK    9  A    between atoms: O_18  and  C_19
REMARK                            x       y       z     vdW  Elec       q    Type
REMARK                         _______ _______ _______ _____ _____    ______ ____
ROOT
ATOM      1  C   UNL     1       3.347   4.351  19.350  0.00  0.00    +0.000 A 
ATOM      2  N   UNL     1       3.091   5.566  18.892  0.00  0.00    +0.000 NA
ATOM      3  C   UNL     1       2.248   6.241  19.757  0.00  0.00    +0.000 A 
ATOM      4  C   UNL     1       1.789   5.490  20.820  0.00  0.00    +0.000 A 
ATOM      5  S   UNL     1       2.487   3.931  20.786  0.00  0.00    +0.000 S 
ENDROOT
BRANCH   3   6
ATOM      6  C   UNL     1       1.885   7.631  19.538  0.00  0.00    +0.000 A 
ATOM      7  C   UNL     1       1.240   8.379  20.525  0.00  0.00    +0.000 A 
ATOM      8  C   UNL     1       0.917   9.715  20.278  0.00  0.00    +0.000 A 
ATOM      9  C   UNL     1       1.247  10.258  19.046  0.00  0.00    +0.000 A 
ATOM     10  N   UNL     1       1.852   9.563  18.061  0.00  0.00    +0.000 NA
ATOM     11  C   UNL     1       2.147   8.270  18.329  0.00  0.00    +0.000 A 
BRANCH   9  12
ATOM     12  O   UNL     1       0.921  11.584  18.840  0.00  0.00    +0.000 OA
ATOM     13  C   UNL     1       0.294  12.174  19.977  0.00  0.00    +0.000 C 
ENDBRANCH   9  12
ENDBRANCH   3   6
BRANCH   1  14
ATOM     14  C   UNL     1       4.335   3.387  18.689  0.00  0.00    +0.000 C 
ATOM     15  C   UNL     1       3.554   2.298  17.934  0.00  0.00    +0.000 C 
BRANCH  14  20
ATOM     16  C   UNL     1       7.098   5.857  17.647  0.00  0.00    +0.000 A 
ATOM     17  C   UNL     1       7.104   5.696  16.264  0.00  0.00    +0.000 A 
ATOM     18  C   UNL     1       6.240   4.792  15.651  0.00  0.00    +0.000 A 
ATOM     19  C   UNL     1       5.361   4.034  16.423  0.00  0.00    +0.000 A 
ATOM     20  C   UNL     1       5.338   4.160  17.822  0.00  0.00    +0.000 A 
ATOM     21  C   UNL     1       6.217   5.095  18.419  0.00  0.00    +0.000 A 
BRANCH  16  23
ATOM     22  C   UNL     1       7.816   8.126  17.645  0.00  0.00    +0.000 C 
ATOM     23  O   UNL     1       7.978   6.793  18.113  0.00  0.00    +0.000 OA
ENDBRANCH  16  23
ENDBRANCH  14  20
BRANCH  14  24
ATOM     24  O   UNL     1       5.066   2.674  19.708  0.00  0.00    +0.000 OA
ATOM     25  H   UNL     1       6.005   2.726  19.459  0.00  0.00    +0.000 HD
ENDBRANCH  14  24
ENDBRANCH   1  14
TORSDOF 6
ENDMDL
MODEL 7
REMARK VINA RESULT:      -7.5      3.804      6.391
REMARK  Name = 
REMARK  9 active torsions:
REMARK  status: ('A' for Active; 'I' for Inactive)
REMARK    1  A    between atoms: C_1  and  O_2
REMARK    2  A    between atoms: O_2  and  C_3
REMARK    3  A    between atoms: C_7  and  C_8
REMARK    4  A    between atoms: C_8  and  C_9
REMARK    5  A    between atoms: C_8  and  O_10
REMARK    6  A    between atoms: C_8  and  C_11
REMARK    7  A    between atoms: C_13  and  C_14
REMARK    8  A    between atoms: C_17  and  O_18
REMARK    9  A    between atoms: O_18  and  C_19
REMARK                            x       y       z     vdW  Elec       q    Type
REMARK                         _______ _______ _______ _____ _____    ______ ____
ROOT
ATOM      1  C   UNL     1       6.666   6.569  17.236  0.00  0.00    +0.000 A 
ATOM      2  N   UNL     1       6.919   7.868  17.222  0.00  0.00    +0.000 NA
ATOM      3  C   UNL     1       7.916   8.175  18.132  0.00  0.00    +0.000 A 
ATOM      4  C   UNL     1       8.341   7.113  18.905  0.00  0.00    +0.000 A 
ATOM      5  S   UNL     1       7.538   5.681  18.432  0.00  0.00    +0.000 S 
ENDROOT
BRANCH   3   6
ATOM      6  C   UNL     1       8.453   9.521  18.249  0.00  0.00    +0.000 A 
ATOM      7  C   UNL     1       9.480   9.819  19.147  0.00  0.00    +0.000 A 
ATOM      8  C   UNL     1       9.975  11.122  19.222  0.00  0.00    +0.000 A 
ATOM      9  C   UNL     1       9.419  12.088  18.397  0.00  0.00    +0.000 A 
ATOM     10  N   UNL     1       8.414  11.843  17.531  0.00  0.00    +0.000 NA
ATOM     11  C   UNL     1       7.953  10.572  17.486  0.00  0.00    +0.000 A 
BRANCH   9  12
ATOM     12  O   UNL     1       9.938  13.364  18.491  0.00  0.00    +0.000 OA
ATOM     13  C   UNL     1      11.364  13.377  18.447  0.00  0.00    +0.000 C 
ENDBRANCH   9  12
ENDBRANCH   3   6
BRANCH   1  14
ATOM     14  C   UNL     1       5.698   5.884  16.269  0.00  0.00    +0.000 C 
ATOM     15  C   UNL     1       6.415   4.714  15.575  0.00  0.00    +0.000 C 
BRANCH  14  20
ATOM     16  C   UNL     1       2.699   3.798  17.485  0.00  0.00    +0.000 A 
ATOM     17  C   UNL     1       1.974   4.749  18.199  0.00  0.00    +0.000 A 
ATOM     18  C   UNL     1       2.437   6.057  18.312  0.00  0.00    +0.000 A 
ATOM     19  C   UNL     1       3.640   6.426  17.710  0.00  0.00    +0.000 A 
ATOM     20  C   UNL     1       4.405   5.489  16.996  0.00  0.00    +0.000 A 
ATOM     21  C   UNL     1       3.906   4.170  16.886  0.00  0.00    +0.000 A 
BRANCH  16  23
ATOM     22  C   UNL     1       1.461   2.105  18.609  0.00  0.00    +0.000 C 
ATOM     23  O   UNL     1       2.119   2.562  17.434  0.00  0.00    +0.000 OA
ENDBRANCH  16  23
ENDBRANCH  14  20
BRANCH  14  24
ATOM     24  O   UNL     1       5.361   6.793  15.200  0.00  0.00    +0.000 OA
ATOM     25  H   UNL     1       5.106   7.631  15.622  0.00  0.00    +0.000 HD
ENDBRANCH  14  24
ENDBRANCH   1  14
TORSDOF 6
ENDMDL
MODEL 8
REMARK VINA RESULT:      -7.5      3.875      6.298
REMARK  Name = 
REMARK  9 active torsions:
REMARK  status: ('A' for Active; 'I' for Inactive)
REMARK    1  A    between atoms: C_1  and  O_2
REMARK    2  A    between atoms: O_2  and  C_3
REMARK    3  A    between atoms: C_7  and  C_8
REMARK    4  A    between atoms: C_8  and  C_9
REMARK    5  A    between atoms: C_8  and  O_10
REMARK    6  A    between atoms: C_8  and  C_11
REMARK    7  A    between atoms: C_13  and  C_14
REMARK    8  A    between atoms: C_17  and  O_18
REMARK    9  A    between atoms: O_18  and  C_19
REMARK                            x       y       z     vdW  Elec       q    Type
REMARK                         _______ _______ _______ _____ _____    ______ ____
ROOT
ATOM      1  C   UNL     1       6.706   6.662  17.189  0.00  0.00    +0.000 A 
ATOM      2  N   UNL     1       6.960   7.960  17.217  0.00  0.00    +0.000 NA
ATOM      3  C   UNL     1       7.956   8.239  18.137  0.00  0.00    +0.000 A 
ATOM      4  C   UNL     1       8.382   7.153  18.875  0.00  0.00    +0.000 A 
ATOM      5  S   UNL     1       7.579   5.736  18.356  0.00  0.00    +0.000 S 
ENDROOT
BRANCH   3   6
ATOM      6  C   UNL     1       8.492   9.580  18.297  0.00  0.00    +0.000 A 
ATOM      7  C   UNL     1       8.086  10.629  17.469  0.00  0.00    +0.000 A 
ATOM      8  C   UNL     1       8.617  11.906  17.661  0.00  0.00    +0.000 A 
ATOM      9  C   UNL     1       9.543  12.090  18.676  0.00  0.00    +0.000 A 
ATOM     10  N   UNL     1       9.974  11.099  19.484  0.00  0.00    +0.000 NA
ATOM     11  C   UNL     1       9.445   9.872  19.269  0.00  0.00    +0.000 A 
BRANCH   9  12
ATOM     12  O   UNL     1      10.041  13.367  18.844  0.00  0.00    +0.000 OA
ATOM     13  C   UNL     1      10.526  13.928  17.626  0.00  0.00    +0.000 C 
ENDBRANCH   9  12
ENDBRANCH   3   6
BRANCH   1  14
ATOM     14  C   UNL     1       5.739   6.008  16.201  0.00  0.00    +0.000 C 
ATOM     15  C   UNL     1       6.487   4.935  15.392  0.00  0.00    +0.000 C 
BRANCH  14  20
ATOM     16  C   UNL     1       3.033   3.617  17.534  0.00  0.00    +0.000 A 
ATOM     17  C   UNL     1       2.156   4.507  18.147  0.00  0.00    +0.000 A 
ATOM     18  C   UNL     1       2.422   5.874  18.155  0.00  0.00    +0.000 A 
ATOM     19  C   UNL     1       3.579   6.362  17.547  0.00  0.00    +0.000 A 
ATOM     20  C   UNL     1       4.494   5.491  16.933  0.00  0.00    +0.000 A 
ATOM     21  C   UNL     1       4.193   4.108  16.928  0.00  0.00    +0.000 A 
BRANCH  16  23
ATOM     22  C   UNL     1       3.418   1.423  18.371  0.00  0.00    +0.000 C 
ATOM     23  O   UNL     1       2.638   2.309  17.580  0.00  0.00    +0.000 OA
ENDBRANCH  16  23
ENDBRANCH  14  20
BRANCH  14  24
ATOM     24  O   UNL     1       5.321   6.980  15.220  0.00  0.00    +0.000 OA
ATOM     25  H   UNL     1       4.381   7.158  15.393  0.00  0.00    +0.000 HD
ENDBRANCH  14  24
ENDBRANCH   1  14
TORSDOF 6
ENDMDL
MODEL 9
REMARK VINA RESULT:      -7.3      3.792      6.207
REMARK  Name = 
REMARK  9 active torsions:
REMARK  status: ('A' for Active; 'I' for Inactive)
REMARK    1  A    between atoms: C_1  and  O_2
REMARK    2  A    between atoms: O_2  and  C_3
REMARK    3  A    between atoms: C_7  and  C_8
REMARK    4  A    between atoms: C_8  and  C_9
REMARK    5  A    between atoms: C_8  and  O_10
REMARK    6  A    between atoms: C_8  and  C_11
REMARK    7  A    between atoms: C_13  and  C_14
REMARK    8  A    between atoms: C_17  and  O_18
REMARK    9  A    between atoms: O_18  and  C_19
REMARK                            x       y       z     vdW  Elec       q    Type
REMARK                         _______ _______ _______ _____ _____    ______ ____
ROOT
ATOM      1  C   UNL     1       6.691   6.577  17.110  0.00  0.00    +0.000 A 
ATOM      2  N   UNL     1       6.943   7.875  17.153  0.00  0.00    +0.000 NA
ATOM      3  C   UNL     1       7.922   8.147  18.093  0.00  0.00    +0.000 A 
ATOM      4  C   UNL     1       8.334   7.056  18.831  0.00  0.00    +0.000 A 
ATOM      5  S   UNL     1       7.542   5.643  18.287  0.00  0.00    +0.000 S 
ENDROOT
BRANCH   3   6
ATOM      6  C   UNL     1       8.454   9.488  18.273  0.00  0.00    +0.000 A 
ATOM      7  C   UNL     1       9.408   9.766  19.254  0.00  0.00    +0.000 A 
ATOM      8  C   UNL     1       9.901  11.065  19.389  0.00  0.00    +0.000 A 
ATOM      9  C   UNL     1       9.418  12.047  18.538  0.00  0.00    +0.000 A 
ATOM     10  N   UNL     1       8.483  11.821  17.591  0.00  0.00    +0.000 NA
ATOM     11  C   UNL     1       8.021  10.554  17.489  0.00  0.00    +0.000 A 
BRANCH   9  12
ATOM     12  O   UNL     1       9.934  13.318  18.692  0.00  0.00    +0.000 OA
ATOM     13  C   UNL     1      11.008  13.360  19.630  0.00  0.00    +0.000 C 
ENDBRANCH   9  12
ENDBRANCH   3   6
BRANCH   1  14
ATOM     14  C   UNL     1       5.742   5.930  16.099  0.00  0.00    +0.000 C 
ATOM     15  C   UNL     1       6.539   4.976  15.194  0.00  0.00    +0.000 C 
BRANCH  14  20
ATOM     16  C   UNL     1       2.776   5.414  18.498  0.00  0.00    +0.000 A 
ATOM     17  C   UNL     1       2.463   4.077  18.265  0.00  0.00    +0.000 A 
ATOM     18  C   UNL     1       3.181   3.332  17.334  0.00  0.00    +0.000 A 
ATOM     19  C   UNL     1       4.224   3.924  16.622  0.00  0.00    +0.000 A 
ATOM     20  C   UNL     1       4.558   5.273  16.820  0.00  0.00    +0.000 A 
ATOM     21  C   UNL     1       3.820   6.005  17.781  0.00  0.00    +0.000 A 
BRANCH  16  23
ATOM     22  C   UNL     1       1.784   5.298  20.658  0.00  0.00    +0.000 C 
ATOM     23  O   UNL     1       2.007   6.019  19.453  0.00  0.00    +0.000 OA
ENDBRANCH  16  23
ENDBRANCH  14  20
BRANCH  14  24
ATOM     24  O   UNL     1       5.229   6.940  15.205  0.00  0.00    +0.000 OA
ATOM     25  H   UNL     1       6.001   7.327  14.758  0.00  0.00    +0.000 HD
ENDBRANCH  14  24
ENDBRANCH   1  14
TORSDOF 6
ENDMDL
