MODEL 1
REMARK VINA RESULT:      -7.6      0.000      0.000
REMARK  Name = 
REMARK  10 active torsions:
REMARK  status: ('A' for Active; 'I' for Inactive)
REMARK    1  A    between atoms: C_1  and  C_2
REMARK    2  A    between atoms: C_2  and  O_3
REMARK    3  A    between atoms: O_3  and  C_4
REMARK    4  A    between atoms: C_4  and  C_6
REMARK    5  A    between atoms: C_8  and  N_9
REMARK    6  A    between atoms: C_10  and  C_12
REMARK    7  A    between atoms: C_18  and  C_19
REMARK    8  A    between atoms: C_19  and  O_21
REMARK    9  A    between atoms: O_21  and  C_22
REMARK   10  A    between atoms: C_22  and  C_23
REMARK                            x       y       z     vdW  Elec       q    Type
REMARK                         _______ _______ _______ _____ _____    ______ ____
ROOT
ATOM      1  C   UNL     1       5.535   5.648  16.824  0.00  0.00    +0.000 A 
ATOM      2  C   UNL     1       4.809   6.815  17.101  0.00  0.00    +0.000 A 
ATOM      3  C   UNL     1       3.523   6.763  17.641  0.00  0.00    +0.000 A 
ATOM      4  C   UNL     1       2.962   5.514  17.908  0.00  0.00    +0.000 A 
ATOM      5  C   UNL     1       3.670   4.331  17.616  0.00  0.00    +0.000 A 
ATOM      6  C   UNL     1       4.953   4.400  17.064  0.00  0.00    +0.000 A 
ENDROOT
BRANCH   3   7
ATOM      7  N   UNL     1       2.796   7.922  17.979  0.00  0.00    +0.000 N 
ATOM      8  C   UNL     1       2.058   8.119  19.132  0.00  0.00    +0.000 C 
ATOM      9  O   UNL     1       1.997   7.357  20.096  0.00  0.00    +0.000 OA
ATOM     10  H   UNL     1       2.826   8.719  17.345  0.00  0.00    +0.000 HD
BRANCH   8  11
ATOM     11  C   UNL     1       1.285   9.438  19.152  0.00  0.00    +0.000 C 
ATOM     12  C   UNL     1       0.342   9.462  20.343  0.00  0.00    +0.000 C 
ATOM     13  C   UNL     1      -0.653  10.510  19.928  0.00  0.00    +0.000 C 
ATOM     14  C   UNL     1      -0.756  10.288  18.433  0.00  0.00    +0.000 C 
ATOM     15  O   UNL     1       0.474   9.682  17.996  0.00  0.00    +0.000 OA
ENDBRANCH   8  11
ENDBRANCH   3   7
BRANCH   1  16
ATOM     16  C   UNL     1       6.962   5.711  16.411  0.00  0.00    +0.000 C 
ATOM     17  O   UNL     1       7.713   6.630  16.694  0.00  0.00    +0.000 OA
BRANCH  16  18
ATOM     18  O   UNL     1       7.231   4.676  15.580  0.00  0.00    +0.000 OA
BRANCH  18  20
ATOM     19  C   UNL     1       6.172   3.826  13.617  0.00  0.00    +0.000 C 
ATOM     20  C   UNL     1       7.068   4.916  14.178  0.00  0.00    +0.000 C 
ENDBRANCH  18  20
ENDBRANCH  16  18
ENDBRANCH   1  16
BRANCH   5  21
ATOM     21  C   UNL     1       3.050   3.045  18.030  0.00  0.00    +0.000 C 
ATOM     22  O   UNL     1       3.698   2.089  18.426  0.00  0.00    +0.000 OA
BRANCH  21  23
ATOM     23  O   UNL     1       1.723   3.058  17.765  0.00  0.00    +0.000 OA
BRANCH  23  24
ATOM     24  C   UNL     1       0.898   2.443  18.764  0.00  0.00    +0.000 C 
ATOM     25  C   UNL     1       0.854   3.381  19.959  0.00  0.00    +0.000 C 
ENDBRANCH  23  24
ENDBRANCH  21  23
ENDBRANCH   5  21
TORSDOF 8
ENDMDL
MODEL 2
REMARK VINA RESULT:      -7.6      1.032      1.724
REMARK  Name = 
REMARK  10 active torsions:
REMARK  status: ('A' for Active; 'I' for Inactive)
REMARK    1  A    between atoms: C_1  and  C_2
REMARK    2  A    between atoms: C_2  and  O_3
REMARK    3  A    between atoms: O_3  and  C_4
REMARK    4  A    between atoms: C_4  and  C_6
REMARK    5  A    between atoms: C_8  and  N_9
REMARK    6  A    between atoms: C_10  and  C_12
REMARK    7  A    between atoms: C_18  and  C_19
REMARK    8  A    between atoms: C_19  and  O_21
REMARK    9  A    between atoms: O_21  and  C_22
REMARK   10  A    between atoms: C_22  and  C_23
REMARK                            x       y       z     vdW  Elec       q    Type
REMARK                         _______ _______ _______ _____ _____    ______ ____
ROOT
ATOM      1  C   UNL     1       5.406   5.495  17.009  0.00  0.00    +0.000 A 
ATOM      2  C   UNL     1       4.706   6.686  17.247  0.00  0.00    +0.000 A 
ATOM      3  C   UNL     1       3.360   6.679  17.617  0.00  0.00    +0.000 A 
ATOM      4  C   UNL     1       2.712   5.452  17.750  0.00  0.00    +0.000 A 
ATOM      5  C   UNL     1       3.395   4.246  17.495  0.00  0.00    +0.000 A 
ATOM      6  C   UNL     1       4.741   4.270  17.114  0.00  0.00    +0.000 A 
ENDROOT
BRANCH   3   7
ATOM      7  N   UNL     1       2.651   7.859  17.914  0.00  0.00    +0.000 N 
ATOM      8  C   UNL     1       2.054   8.174  19.122  0.00  0.00    +0.000 C 
ATOM      9  O   UNL     1       2.131   7.522  20.163  0.00  0.00    +0.000 OA
ATOM     10  H   UNL     1       2.584   8.582  17.199  0.00  0.00    +0.000 HD
BRANCH   8  11
ATOM     11  C   UNL     1       1.256   9.477  19.095  0.00  0.00    +0.000 C 
ATOM     12  C   UNL     1       0.336   9.541  20.302  0.00  0.00    +0.000 C 
ATOM     13  C   UNL     1      -0.687  10.550  19.859  0.00  0.00    +0.000 C 
ATOM     14  C   UNL     1      -0.814  10.255  18.378  0.00  0.00    +0.000 C 
ATOM     15  O   UNL     1       0.418   9.652  17.945  0.00  0.00    +0.000 OA
ENDBRANCH   8  11
ENDBRANCH   3   7
BRANCH   1  16
ATOM     16  C   UNL     1       6.877   5.500  16.784  0.00  0.00    +0.000 C 
ATOM     17  O   UNL     1       7.408   5.900  15.761  0.00  0.00    +0.000 OA
BRANCH  16  18
ATOM     18  O   UNL     1       7.488   4.876  17.819  0.00  0.00    +0.000 OA
BRANCH  18  20
ATOM     19  C   UNL     1       8.099   7.064  18.552  0.00  0.00    +0.000 C 
ATOM     20  C   UNL     1       7.727   5.660  18.993  0.00  0.00    +0.000 C 
ENDBRANCH  18  20
ENDBRANCH  16  18
ENDBRANCH   1  16
BRANCH   5  21
ATOM     21  C   UNL     1       2.668   2.978  17.764  0.00  0.00    +0.000 C 
ATOM     22  O   UNL     1       3.211   1.885  17.762  0.00  0.00    +0.000 OA
BRANCH  21  23
ATOM     23  O   UNL     1       1.338   3.211  17.859  0.00  0.00    +0.000 OA
BRANCH  23  24
ATOM     24  C   UNL     1       0.680   2.541  18.942  0.00  0.00    +0.000 C 
ATOM     25  C   UNL     1       0.997   3.310  20.214  0.00  0.00    +0.000 C 
ENDBRANCH  23  24
ENDBRANCH  21  23
ENDBRANCH   5  21
TORSDOF 8
ENDMDL
MODEL 3
REMARK VINA RESULT:      -7.5      3.587      5.839
REMARK  Name = 
REMARK  10 active torsions:
REMARK  status: ('A' for Active; 'I' for Inactive)
REMARK    1  A    between atoms: C_1  and  C_2
REMARK    2  A    between atoms: C_2  and  O_3
REMARK    3  A    between atoms: O_3  and  C_4
REMARK    4  A    between atoms: C_4  and  C_6
REMARK    5  A    between atoms: C_8  and  N_9
REMARK    6  A    between atoms: C_10  and  C_12
REMARK    7  A    between atoms: C_18  and  C_19
REMARK    8  A    between atoms: C_19  and  O_21
REMARK    9  A    between atoms: O_21  and  C_22
REMARK   10  A    between atoms: C_22  and  C_23
REMARK                            x       y       z     vdW  Elec       q    Type
REMARK                         _______ _______ _______ _____ _____    ______ ____
ROOT
ATOM      1  C   UNL     1       6.618   4.734  15.317  0.00  0.00    +0.000 A 
ATOM      2  C   UNL     1       5.715   3.983  16.082  0.00  0.00    +0.000 A 
ATOM      3  C   UNL     1       5.563   4.201  17.452  0.00  0.00    +0.000 A 
ATOM      4  C   UNL     1       6.332   5.194  18.059  0.00  0.00    +0.000 A 
ATOM      5  C   UNL     1       7.259   5.944  17.308  0.00  0.00    +0.000 A 
ATOM      6  C   UNL     1       7.408   5.706  15.938  0.00  0.00    +0.000 A 
ENDROOT
BRANCH   3   7
ATOM      7  N   UNL     1       4.623   3.497  18.231  0.00  0.00    +0.000 N 
ATOM      8  C   UNL     1       3.251   3.675  18.218  0.00  0.00    +0.000 C 
ATOM      9  O   UNL     1       2.619   4.404  17.455  0.00  0.00    +0.000 OA
ATOM     10  H   UNL     1       4.956   2.757  18.847  0.00  0.00    +0.000 HD
BRANCH   8  11
ATOM     11  C   UNL     1       2.512   2.842  19.265  0.00  0.00    +0.000 C 
ATOM     12  C   UNL     1       1.330   3.630  19.806  0.00  0.00    +0.000 C 
ATOM     13  C   UNL     1       1.066   2.933  21.112  0.00  0.00    +0.000 C 
ATOM     14  C   UNL     1       2.461   2.564  21.573  0.00  0.00    +0.000 C 
ATOM     15  O   UNL     1       3.295   2.465  20.404  0.00  0.00    +0.000 OA
ENDBRANCH   8  11
ENDBRANCH   3   7
BRANCH   1  16
ATOM     16  C   UNL     1       6.653   4.616  13.835  0.00  0.00    +0.000 C 
ATOM     17  O   UNL     1       7.430   5.229  13.120  0.00  0.00    +0.000 OA
BRANCH  16  18
ATOM     18  O   UNL     1       5.618   3.845  13.425  0.00  0.00    +0.000 OA
BRANCH  18  20
ATOM     19  C   UNL     1       4.380   3.239  11.477  0.00  0.00    +0.000 C 
ATOM     20  C   UNL     1       5.745   3.224  12.142  0.00  0.00    +0.000 C 
ENDBRANCH  18  20
ENDBRANCH  16  18
ENDBRANCH   1  16
BRANCH   5  21
ATOM     21  C   UNL     1       7.960   7.056  18.003  0.00  0.00    +0.000 C 
ATOM     22  O   UNL     1       8.328   6.990  19.164  0.00  0.00    +0.000 OA
BRANCH  21  23
ATOM     23  O   UNL     1       7.989   8.156  17.215  0.00  0.00    +0.000 OA
BRANCH  23  24
ATOM     24  C   UNL     1       7.670   9.387  17.878  0.00  0.00    +0.000 C 
ATOM     25  C   UNL     1       8.980  10.090  18.187  0.00  0.00    +0.000 C 
ENDBRANCH  23  24
ENDBRANCH  21  23
ENDBRANCH   5  21
TORSDOF 8
ENDMDL
MODEL 4
REMARK VINA RESULT:      -7.4      3.827      5.860
REMARK  Name = 
REMARK  10 active torsions:
REMARK  status: ('A' for Active; 'I' for Inactive)
REMARK    1  A    between atoms: C_1  and  C_2
REMARK    2  A    between atoms: C_2  and  O_3
REMARK    3  A    between atoms: O_3  and  C_4
REMARK    4  A    between atoms: C_4  and  C_6
REMARK    5  A    between atoms: C_8  and  N_9
REMARK    6  A    between atoms: C_10  and  C_12
REMARK    7  A    between atoms: C_18  and  C_19
REMARK    8  A    between atoms: C_19  and  O_21
REMARK    9  A    between atoms: O_21  and  C_22
REMARK   10  A    between atoms: C_22  and  C_23
REMARK                            x       y       z     vdW  Elec       q    Type
REMARK                         _______ _______ _______ _____ _____    ______ ____
ROOT
ATOM      1  C   UNL     1       7.003   6.305  17.514  0.00  0.00    +0.000 A 
ATOM      2  C   UNL     1       5.916   5.666  18.126  0.00  0.00    +0.000 A 
ATOM      3  C   UNL     1       5.106   4.772  17.423  0.00  0.00    +0.000 A 
ATOM      4  C   UNL     1       5.400   4.518  16.084  0.00  0.00    +0.000 A 
ATOM      5  C   UNL     1       6.477   5.167  15.448  0.00  0.00    +0.000 A 
ATOM      6  C   UNL     1       7.272   6.069  16.163  0.00  0.00    +0.000 A 
ENDROOT
BRANCH   3   7
ATOM      7  N   UNL     1       4.042   4.076  18.031  0.00  0.00    +0.000 N 
ATOM      8  C   UNL     1       4.143   3.174  19.075  0.00  0.00    +0.000 C 
ATOM      9  O   UNL     1       5.163   2.907  19.709  0.00  0.00    +0.000 OA
ATOM     10  H   UNL     1       3.093   4.261  17.712  0.00  0.00    +0.000 HD
BRANCH   8  11
ATOM     11  C   UNL     1       2.822   2.495  19.433  0.00  0.00    +0.000 C 
ATOM     12  C   UNL     1       1.839   2.645  18.284  0.00  0.00    +0.000 C 
ATOM     13  C   UNL     1       0.522   2.416  18.972  0.00  0.00    +0.000 C 
ATOM     14  C   UNL     1       0.750   3.047  20.330  0.00  0.00    +0.000 C 
ATOM     15  O   UNL     1       2.164   3.021  20.592  0.00  0.00    +0.000 OA
ENDBRANCH   8  11
ENDBRANCH   3   7
BRANCH   1  16
ATOM     16  C   UNL     1       7.961   7.121  18.308  0.00  0.00    +0.000 C 
ATOM     17  O   UNL     1       8.540   6.715  19.302  0.00  0.00    +0.000 OA
BRANCH  16  18
ATOM     18  O   UNL     1       7.967   8.389  17.831  0.00  0.00    +0.000 OA
BRANCH  18  20
ATOM     19  C   UNL     1       8.638  10.679  17.845  0.00  0.00    +0.000 C 
ATOM     20  C   UNL     1       8.680   9.363  18.600  0.00  0.00    +0.000 C 
ENDBRANCH  18  20
ENDBRANCH  16  18
ENDBRANCH   1  16
BRANCH   5  21
ATOM     21  C   UNL     1       6.792   4.761  14.053  0.00  0.00    +0.000 C 
ATOM     22  O   UNL     1       7.629   5.327  13.367  0.00  0.00    +0.000 OA
BRANCH  21  23
ATOM     23  O   UNL     1       5.933   3.801  13.639  0.00  0.00    +0.000 OA
BRANCH  23  24
ATOM     24  C   UNL     1       6.111   3.371  12.283  0.00  0.00    +0.000 C 
ATOM     25  C   UNL     1       4.729   3.184  11.679  0.00  0.00    +0.000 C 
ENDBRANCH  23  24
ENDBRANCH  21  23
ENDBRANCH   5  21
TORSDOF 8
ENDMDL
MODEL 5
REMARK VINA RESULT:      -7.4      1.299      1.369
REMARK  Name = 
REMARK  10 active torsions:
REMARK  status: ('A' for Active; 'I' for Inactive)
REMARK    1  A    between atoms: C_1  and  C_2
REMARK    2  A    between atoms: C_2  and  O_3
REMARK    3  A    between atoms: O_3  and  C_4
REMARK    4  A    between atoms: C_4  and  C_6
REMARK    5  A    between atoms: C_8  and  N_9
REMARK    6  A    between atoms: C_10  and  C_12
REMARK    7  A    between atoms: C_18  and  C_19
REMARK    8  A    between atoms: C_19  and  O_21
REMARK    9  A    between atoms: O_21  and  C_22
REMARK   10  A    between atoms: C_22  and  C_23
REMARK                            x       y       z     vdW  Elec       q    Type
REMARK                         _______ _______ _______ _____ _____    ______ ____
ROOT
ATOM      1  C   UNL     1       4.695   5.889  17.134  0.00  0.00    +0.000 A 
ATOM      2  C   UNL     1       4.041   6.988  17.709  0.00  0.00    +0.000 A 
ATOM      3  C   UNL     1       2.798   6.854  18.328  0.00  0.00    +0.000 A 
ATOM      4  C   UNL     1       2.205   5.593  18.369  0.00  0.00    +0.000 A 
ATOM      5  C   UNL     1       2.839   4.482  17.779  0.00  0.00    +0.000 A 
ATOM      6  C   UNL     1       4.080   4.634  17.152  0.00  0.00    +0.000 A 
ENDROOT
BRANCH   3   7
ATOM      7  N   UNL     1       2.147   7.933  18.960  0.00  0.00    +0.000 N 
ATOM      8  C   UNL     1       1.800   9.137  18.374  0.00  0.00    +0.000 C 
ATOM      9  O   UNL     1       1.910   9.425  17.183  0.00  0.00    +0.000 OA
ATOM     10  H   UNL     1       1.865   7.830  19.934  0.00  0.00    +0.000 HD
BRANCH   8  11
ATOM     11  C   UNL     1       1.213  10.153  19.354  0.00  0.00    +0.000 C 
ATOM     12  C   UNL     1       0.889   9.468  20.671  0.00  0.00    +0.000 C 
ATOM     13  C   UNL     1      -0.107  10.418  21.277  0.00  0.00    +0.000 C 
ATOM     14  C   UNL     1      -0.868  10.910  20.063  0.00  0.00    +0.000 C 
ATOM     15  O   UNL     1      -0.001  10.781  18.922  0.00  0.00    +0.000 OA
ENDBRANCH   8  11
ENDBRANCH   3   7
BRANCH   1  16
ATOM     16  C   UNL     1       6.089   6.002  16.630  0.00  0.00    +0.000 C 
ATOM     17  O   UNL     1       7.054   6.233  17.341  0.00  0.00    +0.000 OA
BRANCH  16  18
ATOM     18  O   UNL     1       6.079   5.945  15.277  0.00  0.00    +0.000 OA
BRANCH  18  20
ATOM     19  C   UNL     1       6.106   3.926  14.005  0.00  0.00    +0.000 C 
ATOM     20  C   UNL     1       6.958   4.994  14.665  0.00  0.00    +0.000 C 
ENDBRANCH  18  20
ENDBRANCH  16  18
ENDBRANCH   1  16
BRANCH   5  21
ATOM     21  C   UNL     1       2.198   3.153  17.960  0.00  0.00    +0.000 C 
ATOM     22  O   UNL     1       2.404   2.206  17.218  0.00  0.00    +0.000 OA
BRANCH  21  23
ATOM     23  O   UNL     1       1.276   3.208  18.950  0.00  0.00    +0.000 OA
BRANCH  23  24
ATOM     24  C   UNL     1       1.538   2.357  20.073  0.00  0.00    +0.000 C 
ATOM     25  C   UNL     1       1.681   3.246  21.296  0.00  0.00    +0.000 C 
ENDBRANCH  23  24
ENDBRANCH  21  23
ENDBRANCH   5  21
TORSDOF 8
ENDMDL
MODEL 6
REMARK VINA RESULT:      -7.3      0.956      4.626
REMARK  Name = 
REMARK  10 active torsions:
REMARK  status: ('A' for Active; 'I' for Inactive)
REMARK    1  A    between atoms: C_1  and  C_2
REMARK    2  A    between atoms: C_2  and  O_3
REMARK    3  A    between atoms: O_3  and  C_4
REMARK    4  A    between atoms: C_4  and  C_6
REMARK    5  A    between atoms: C_8  and  N_9
REMARK    6  A    between atoms: C_10  and  C_12
REMARK    7  A    between atoms: C_18  and  C_19
REMARK    8  A    between atoms: C_19  and  O_21
REMARK    9  A    between atoms: O_21  and  C_22
REMARK   10  A    between atoms: C_22  and  C_23
REMARK                            x       y       z     vdW  Elec       q    Type
REMARK                         _______ _______ _______ _____ _____    ______ ____
ROOT
ATOM      1  C   UNL     1       3.001   4.490  17.946  0.00  0.00    +0.000 A 
ATOM      2  C   UNL     1       2.291   5.684  18.139  0.00  0.00    +0.000 A 
ATOM      3  C   UNL     1       2.878   6.927  17.898  0.00  0.00    +0.000 A 
ATOM      4  C   UNL     1       4.200   6.966  17.455  0.00  0.00    +0.000 A 
ATOM      5  C   UNL     1       4.933   5.776  17.276  0.00  0.00    +0.000 A 
ATOM      6  C   UNL     1       4.334   4.538  17.532  0.00  0.00    +0.000 A 
ENDROOT
BRANCH   3   7
ATOM      7  N   UNL     1       2.169   8.137  18.032  0.00  0.00    +0.000 N 
ATOM      8  C   UNL     1       1.631   8.647  19.200  0.00  0.00    +0.000 C 
ATOM      9  O   UNL     1       1.769   8.179  20.329  0.00  0.00    +0.000 OA
ATOM     10  H   UNL     1       2.055   8.730  17.211  0.00  0.00    +0.000 HD
BRANCH   8  11
ATOM     11  C   UNL     1       0.814   9.923  18.998  0.00  0.00    +0.000 C 
ATOM     12  C   UNL     1      -0.009  10.208  20.243  0.00  0.00    +0.000 C 
ATOM     13  C   UNL     1      -1.078  11.118  19.704  0.00  0.00    +0.000 C 
ATOM     14  C   UNL     1      -1.317  10.556  18.318  0.00  0.00    +0.000 C 
ATOM     15  O   UNL     1      -0.113   9.883  17.907  0.00  0.00    +0.000 OA
ENDBRANCH   8  11
ENDBRANCH   3   7
BRANCH   1  16
ATOM     16  C   UNL     1       2.321   3.170  18.038  0.00  0.00    +0.000 C 
ATOM     17  O   UNL     1       2.269   2.365  17.122  0.00  0.00    +0.000 OA
BRANCH  16  18
ATOM     18  O   UNL     1       1.676   3.083  19.226  0.00  0.00    +0.000 OA
BRANCH  18  20
ATOM     19  C   UNL     1       1.670   2.901  21.606  0.00  0.00    +0.000 C 
ATOM     20  C   UNL     1       2.428   2.573  20.332  0.00  0.00    +0.000 C 
ENDBRANCH  18  20
ENDBRANCH  16  18
ENDBRANCH   1  16
BRANCH   5  21
ATOM     21  C   UNL     1       6.298   5.895  16.698  0.00  0.00    +0.000 C 
ATOM     22  O   UNL     1       6.910   6.949  16.643  0.00  0.00    +0.000 OA
BRANCH  21  23
ATOM     23  O   UNL     1       6.670   4.723  16.132  0.00  0.00    +0.000 OA
BRANCH  23  24
ATOM     24  C   UNL     1       6.979   4.794  14.734  0.00  0.00    +0.000 C 
ATOM     25  C   UNL     1       5.909   4.011  13.991  0.00  0.00    +0.000 C 
ENDBRANCH  23  24
ENDBRANCH  21  23
ENDBRANCH   5  21
TORSDOF 8
ENDMDL
MODEL 7
REMARK VINA RESULT:      -7.3      3.483      6.465
REMARK  Name = 
REMARK  10 active torsions:
REMARK  status: ('A' for Active; 'I' for Inactive)
REMARK    1  A    between atoms: C_1  and  C_2
REMARK    2  A    between atoms: C_2  and  O_3
REMARK    3  A    between atoms: O_3  and  C_4
REMARK    4  A    between atoms: C_4  and  C_6
REMARK    5  A    between atoms: C_8  and  N_9
REMARK    6  A    between atoms: C_10  and  C_12
REMARK    7  A    between atoms: C_18  and  C_19
REMARK    8  A    between atoms: C_19  and  O_21
REMARK    9  A    between atoms: O_21  and  C_22
REMARK   10  A    between atoms: C_22  and  C_23
REMARK                            x       y       z     vdW  Elec       q    Type
REMARK                         _______ _______ _______ _____ _____    ______ ____
ROOT
ATOM      1  C   UNL     1       6.385   4.937  18.292  0.00  0.00    +0.000 A 
ATOM      2  C   UNL     1       6.528   4.550  16.952  0.00  0.00    +0.000 A 
ATOM      3  C   UNL     1       5.452   4.043  16.222  0.00  0.00    +0.000 A 
ATOM      4  C   UNL     1       4.214   3.926  16.852  0.00  0.00    +0.000 A 
ATOM      5  C   UNL     1       4.059   4.291  18.204  0.00  0.00    +0.000 A 
ATOM      6  C   UNL     1       5.149   4.787  18.926  0.00  0.00    +0.000 A 
ENDROOT
BRANCH   3   7
ATOM      7  N   UNL     1       5.558   3.700  14.859  0.00  0.00    +0.000 N 
ATOM      8  C   UNL     1       6.349   4.330  13.914  0.00  0.00    +0.000 C 
ATOM      9  O   UNL     1       7.163   5.227  14.129  0.00  0.00    +0.000 OA
ATOM     10  H   UNL     1       5.038   2.894  14.517  0.00  0.00    +0.000 HD
BRANCH   8  11
ATOM     11  C   UNL     1       6.154   3.800  12.494  0.00  0.00    +0.000 C 
ATOM     12  C   UNL     1       4.671   3.627  12.210  0.00  0.00    +0.000 C 
ATOM     13  C   UNL     1       4.688   2.657  11.060  0.00  0.00    +0.000 C 
ATOM     14  C   UNL     1       5.867   1.769  11.401  0.00  0.00    +0.000 C 
ATOM     15  O   UNL     1       6.762   2.529  12.232  0.00  0.00    +0.000 OA
ENDBRANCH   8  11
ENDBRANCH   3   7
BRANCH   1  16
ATOM     16  C   UNL     1       7.485   5.633  19.012  0.00  0.00    +0.000 C 
ATOM     17  O   UNL     1       7.698   5.516  20.208  0.00  0.00    +0.000 OA
BRANCH  16  18
ATOM     18  O   UNL     1       8.097   6.494  18.165  0.00  0.00    +0.000 OA
BRANCH  18  20
ATOM     19  C   UNL     1       8.216   8.871  17.984  0.00  0.00    +0.000 C 
ATOM     20  C   UNL     1       7.347   7.646  17.765  0.00  0.00    +0.000 C 
ENDBRANCH  18  20
ENDBRANCH  16  18
ENDBRANCH   1  16
BRANCH   5  21
ATOM     21  C   UNL     1       2.685   4.240  18.772  0.00  0.00    +0.000 C 
ATOM     22  O   UNL     1       1.678   4.268  18.084  0.00  0.00    +0.000 OA
BRANCH  21  23
ATOM     23  O   UNL     1       2.735   4.305  20.123  0.00  0.00    +0.000 OA
BRANCH  23  24
ATOM     24  C   UNL     1       1.468   4.190  20.783  0.00  0.00    +0.000 C 
ATOM     25  C   UNL     1       1.390   2.797  21.384  0.00  0.00    +0.000 C 
ENDBRANCH  23  24
ENDBRANCH  21  23
ENDBRANCH   5  21
TORSDOF 8
ENDMDL
MODEL 8
REMARK VINA RESULT:      -7.3      0.952      1.059
REMARK  Name = 
REMARK  10 active torsions:
REMARK  status: ('A' for Active; 'I' for Inactive)
REMARK    1  A    between atoms: C_1  and  C_2
REMARK    2  A    between atoms: C_2  and  O_3
REMARK    3  A    between atoms: O_3  and  C_4
REMARK    4  A    between atoms: C_4  and  C_6
REMARK    5  A    between atoms: C_8  and  N_9
REMARK    6  A    between atoms: C_10  and  C_12
REMARK    7  A    between atoms: C_18  and  C_19
REMARK    8  A    between atoms: C_19  and  O_21
REMARK    9  A    between atoms: O_21  and  C_22
REMARK   10  A    between atoms: C_22  and  C_23
REMARK                            x       y       z     vdW  Elec       q    Type
REMARK                         _______ _______ _______ _____ _____    ______ ____
ROOT
ATOM      1  C   UNL     1       4.827   5.426  17.088  0.00  0.00    +0.000 A 
ATOM      2  C   UNL     1       4.225   6.670  17.329  0.00  0.00    +0.000 A 
ATOM      3  C   UNL     1       2.918   6.765  17.811  0.00  0.00    +0.000 A 
ATOM      4  C   UNL     1       2.210   5.589  18.054  0.00  0.00    +0.000 A 
ATOM      5  C   UNL     1       2.793   4.332  17.799  0.00  0.00    +0.000 A 
ATOM      6  C   UNL     1       4.100   4.253  17.305  0.00  0.00    +0.000 A 
ENDROOT
BRANCH   3   7
ATOM      7  N   UNL     1       2.311   8.000  18.112  0.00  0.00    +0.000 N 
ATOM      8  C   UNL     1       1.782   8.376  19.334  0.00  0.00    +0.000 C 
ATOM      9  O   UNL     1       1.845   7.735  20.382  0.00  0.00    +0.000 OA
ATOM     10  H   UNL     1       2.274   8.716  17.388  0.00  0.00    +0.000 HD
BRANCH   8  11
ATOM     11  C   UNL     1       1.085   9.736  19.311  0.00  0.00    +0.000 C 
ATOM     12  C   UNL     1       0.322   9.943  20.609  0.00  0.00    +0.000 C 
ATOM     13  C   UNL     1      -0.669  11.004  20.219  0.00  0.00    +0.000 C 
ATOM     14  C   UNL     1      -0.993  10.636  18.786  0.00  0.00    +0.000 C 
ATOM     15  O   UNL     1       0.131   9.912  18.256  0.00  0.00    +0.000 OA
ENDBRANCH   8  11
ENDBRANCH   3   7
BRANCH   1  16
ATOM     16  C   UNL     1       6.270   5.327  16.740  0.00  0.00    +0.000 C 
ATOM     17  O   UNL     1       7.134   4.956  17.518  0.00  0.00    +0.000 OA
BRANCH  16  18
ATOM     18  O   UNL     1       6.465   5.834  15.500  0.00  0.00    +0.000 OA
BRANCH  18  20
ATOM     19  C   UNL     1       5.975   4.047  13.995  0.00  0.00    +0.000 C 
ATOM     20  C   UNL     1       7.060   4.962  14.533  0.00  0.00    +0.000 C 
ENDBRANCH  18  20
ENDBRANCH  16  18
ENDBRANCH   1  16
BRANCH   5  21
ATOM     21  C   UNL     1       2.016   3.125  18.186  0.00  0.00    +0.000 C 
ATOM     22  O   UNL     1       2.008   2.097  17.529  0.00  0.00    +0.000 OA
BRANCH  21  23
ATOM     23  O   UNL     1       1.237   3.395  19.260  0.00  0.00    +0.000 OA
BRANCH  23  24
ATOM     24  C   UNL     1       1.527   2.620  20.431  0.00  0.00    +0.000 C 
ATOM     25  C   UNL     1       2.099   3.565  21.473  0.00  0.00    +0.000 C 
ENDBRANCH  23  24
ENDBRANCH  21  23
ENDBRANCH   5  21
TORSDOF 8
ENDMDL
MODEL 9
REMARK VINA RESULT:      -7.3      1.599      2.222
REMARK  Name = 
REMARK  10 active torsions:
REMARK  status: ('A' for Active; 'I' for Inactive)
REMARK    1  A    between atoms: C_1  and  C_2
REMARK    2  A    between atoms: C_2  and  O_3
REMARK    3  A    between atoms: O_3  and  C_4
REMARK    4  A    between atoms: C_4  and  C_6
REMARK    5  A    between atoms: C_8  and  N_9
REMARK    6  A    between atoms: C_10  and  C_12
REMARK    7  A    between atoms: C_18  and  C_19
REMARK    8  A    between atoms: C_19  and  O_21
REMARK    9  A    between atoms: O_21  and  C_22
REMARK   10  A    between atoms: C_22  and  C_23
REMARK                            x       y       z     vdW  Elec       q    Type
REMARK                         _______ _______ _______ _____ _____    ______ ____
ROOT
ATOM      1  C   UNL     1       4.609   6.009  16.884  0.00  0.00    +0.000 A 
ATOM      2  C   UNL     1       3.927   7.061  17.514  0.00  0.00    +0.000 A 
ATOM      3  C   UNL     1       2.795   6.830  18.296  0.00  0.00    +0.000 A 
ATOM      4  C   UNL     1       2.344   5.519  18.447  0.00  0.00    +0.000 A 
ATOM      5  C   UNL     1       3.005   4.453  17.805  0.00  0.00    +0.000 A 
ATOM      6  C   UNL     1       4.133   4.702  17.014  0.00  0.00    +0.000 A 
ENDROOT
BRANCH   3   7
ATOM      7  N   UNL     1       2.126   7.863  18.983  0.00  0.00    +0.000 N 
ATOM      8  C   UNL     1       1.754   9.088  18.459  0.00  0.00    +0.000 C 
ATOM      9  O   UNL     1       1.856   9.438  17.284  0.00  0.00    +0.000 OA
ATOM     10  H   UNL     1       1.849   7.706  19.950  0.00  0.00    +0.000 HD
BRANCH   8  11
ATOM     11  C   UNL     1       1.151  10.042  19.489  0.00  0.00    +0.000 C 
ATOM     12  C   UNL     1       0.601   9.249  20.663  0.00  0.00    +0.000 C 
ATOM     13  C   UNL     1      -0.366  10.227  21.271  0.00  0.00    +0.000 C 
ATOM     14  C   UNL     1      -0.918  10.939  20.053  0.00  0.00    +0.000 C 
ATOM     15  O   UNL     1       0.068  10.848  19.009  0.00  0.00    +0.000 OA
ENDBRANCH   8  11
ENDBRANCH   3   7
BRANCH   1  16
ATOM     16  C   UNL     1       5.907   6.239  16.196  0.00  0.00    +0.000 C 
ATOM     17  O   UNL     1       6.383   5.479  15.368  0.00  0.00    +0.000 OA
BRANCH  16  18
ATOM     18  O   UNL     1       6.509   7.327  16.733  0.00  0.00    +0.000 OA
BRANCH  18  20
ATOM     19  C   UNL     1       8.170   8.420  18.053  0.00  0.00    +0.000 C 
ATOM     20  C   UNL     1       7.554   7.084  17.681  0.00  0.00    +0.000 C 
ENDBRANCH  18  20
ENDBRANCH  16  18
ENDBRANCH   1  16
BRANCH   5  21
ATOM     21  C   UNL     1       2.531   3.076  18.102  0.00  0.00    +0.000 C 
ATOM     22  O   UNL     1       2.704   2.134  17.346  0.00  0.00    +0.000 OA
BRANCH  21  23
ATOM     23  O   UNL     1       1.781   3.072  19.229  0.00  0.00    +0.000 OA
BRANCH  23  24
ATOM     24  C   UNL     1       2.420   2.509  20.382  0.00  0.00    +0.000 C 
ATOM     25  C   UNL     1       1.547   2.821  21.585  0.00  0.00    +0.000 C 
ENDBRANCH  23  24
ENDBRANCH  21  23
ENDBRANCH   5  21
TORSDOF 8
ENDMDL
