MODEL 1
REMARK VINA RESULT:      -7.8      0.000      0.000
REMARK  Name = 
REMARK  7 active torsions:
REMARK  status: ('A' for Active; 'I' for Inactive)
REMARK    1  A    between atoms: C_2  and  C_3
REMARK    2  A    between atoms: C_3  and  N_4
REMARK    3  A    between atoms: C_8  and  C_9
REMARK    4  A    between atoms: C_9  and  C_11
REMARK    5  A    between atoms: N_17  and  C_18
REMARK    6  A    between atoms: C_18  and  C_19
REMARK    7  A    between atoms: C_19  and  C_20
REMARK                            x       y       z     vdW  Elec       q    Type
REMARK                         _______ _______ _______ _____ _____    ______ ____
ROOT
ATOM      1  C   UNL     1       1.741   3.256  18.009  0.00  0.00    +0.000 C 
ENDROOT
BRANCH   1   2
ATOM      2  N   UNL     1       1.815   3.420  19.464  0.00  0.00    +0.000 N 
ATOM      3  C   UNL     1       1.119   2.615  20.339  0.00  0.00    +0.000 A 
ATOM      4  C   UNL     1       1.380   3.010  21.616  0.00  0.00    +0.000 A 
ATOM      5  C   UNL     1       2.248   4.114  21.529  0.00  0.00    +0.000 A 
ATOM      6  C   UNL     1       2.549   4.356  20.192  0.00  0.00    +0.000 A 
BRANCH   6   7
ATOM      7  C   UNL     1       3.418   5.421  19.681  0.00  0.00    +0.000 C 
ATOM      8  O   UNL     1       4.630   5.287  19.537  0.00  0.00    +0.000 OA
BRANCH   7   9
ATOM      9  C   UNL     1       2.796   6.733  19.269  0.00  0.00    +0.000 A 
ATOM     10  C   UNL     1       1.986   7.428  20.178  0.00  0.00    +0.000 A 
ATOM     11  C   UNL     1       1.450   8.677  19.842  0.00  0.00    +0.000 A 
ATOM     12  C   UNL     1       1.717   9.239  18.592  0.00  0.00    +0.000 A 
ATOM     13  C   UNL     1       2.487   8.538  17.664  0.00  0.00    +0.000 A 
ATOM     14  C   UNL     1       3.006   7.283  17.994  0.00  0.00    +0.000 A 
ENDBRANCH   7   9
ENDBRANCH   6   7
ENDBRANCH   1   2
BRANCH   1  16
ATOM     15  O   UNL     1       3.632   1.786  17.578  0.00  0.00    +0.000 OA
ATOM     16  C   UNL     1       3.092   2.870  17.387  0.00  0.00    +0.000 C 
ATOM     17  N   UNL     1       3.668   3.872  16.626  0.00  0.00    +0.000 N 
ATOM     18  H   UNL     1       3.163   4.735  16.493  0.00  0.00    +0.000 HD
BRANCH  17  19
ATOM     19  C   UNL     1       4.959   3.711  15.975  0.00  0.00    +0.000 C 
BRANCH  19  20
ATOM     20  C   UNL     1       5.579   5.069  15.627  0.00  0.00    +0.000 C 
BRANCH  20  21
ATOM     21  C   UNL     1       6.530   5.537  16.698  0.00  0.00    +0.000 C 
ATOM     22  C   UNL     1       7.315   4.664  17.355  0.00  0.00    +0.000 C 
ATOM     23  C   UNL     1       8.209   5.045  18.498  0.00  0.00    +0.000 C 
ATOM     24  C   UNL     1       7.916   6.443  19.043  0.00  0.00    +0.000 C 
ATOM     25  C   UNL     1       7.703   7.439  17.909  0.00  0.00    +0.000 C 
ATOM     26  C   UNL     1       6.538   7.016  17.010  0.00  0.00    +0.000 C 
ENDBRANCH  20  21
ENDBRANCH  19  20
ENDBRANCH  17  19
ENDBRANCH   1  16
TORSDOF 7
ENDMDL
MODEL 2
REMARK VINA RESULT:      -7.8      3.739      6.478
REMARK  Name = 
REMARK  7 active torsions:
REMARK  status: ('A' for Active; 'I' for Inactive)
REMARK    1  A    between atoms: C_2  and  C_3
REMARK    2  A    between atoms: C_3  and  N_4
REMARK    3  A    between atoms: C_8  and  C_9
REMARK    4  A    between atoms: C_9  and  C_11
REMARK    5  A    between atoms: N_17  and  C_18
REMARK    6  A    between atoms: C_18  and  C_19
REMARK    7  A    between atoms: C_19  and  C_20
REMARK                            x       y       z     vdW  Elec       q    Type
REMARK                         _______ _______ _______ _____ _____    ______ ____
ROOT
ATOM      1  C   UNL     1       7.204   5.999  17.825  0.00  0.00    +0.000 C 
ENDROOT
BRANCH   1   2
ATOM      2  N   UNL     1       6.602   5.286  16.694  0.00  0.00    +0.000 N 
ATOM      3  C   UNL     1       7.346   4.803  15.639  0.00  0.00    +0.000 A 
ATOM      4  C   UNL     1       6.515   4.198  14.745  0.00  0.00    +0.000 A 
ATOM      5  C   UNL     1       5.209   4.333  15.250  0.00  0.00    +0.000 A 
ATOM      6  C   UNL     1       5.258   4.982  16.480  0.00  0.00    +0.000 A 
BRANCH   6   7
ATOM      7  C   UNL     1       4.109   5.315  17.328  0.00  0.00    +0.000 C 
ATOM      8  O   UNL     1       3.762   6.469  17.565  0.00  0.00    +0.000 OA
BRANCH   7   9
ATOM      9  C   UNL     1       3.282   4.193  17.906  0.00  0.00    +0.000 A 
ATOM     10  C   UNL     1       1.884   4.276  17.868  0.00  0.00    +0.000 A 
ATOM     11  C   UNL     1       1.095   3.221  18.340  0.00  0.00    +0.000 A 
ATOM     12  C   UNL     1       1.699   2.073  18.857  0.00  0.00    +0.000 A 
ATOM     13  C   UNL     1       3.089   1.996  18.938  0.00  0.00    +0.000 A 
ATOM     14  C   UNL     1       3.875   3.059  18.483  0.00  0.00    +0.000 A 
ENDBRANCH   7   9
ENDBRANCH   6   7
ENDBRANCH   1   2
BRANCH   1  16
ATOM     15  O   UNL     1       6.685   8.106  16.722  0.00  0.00    +0.000 OA
ATOM     16  C   UNL     1       7.340   7.508  17.569  0.00  0.00    +0.000 C 
ATOM     17  N   UNL     1       8.301   8.126  18.350  0.00  0.00    +0.000 N 
ATOM     18  H   UNL     1       8.793   7.581  19.042  0.00  0.00    +0.000 HD
BRANCH  17  19
ATOM     19  C   UNL     1       8.599   9.546  18.239  0.00  0.00    +0.000 C 
BRANCH  19  20
ATOM     20  C   UNL     1       9.289  10.069  19.504  0.00  0.00    +0.000 C 
BRANCH  20  21
ATOM     21  C   UNL     1      10.245  11.191  19.192  0.00  0.00    +0.000 C 
ATOM     22  C   UNL     1      10.870  11.860  20.178  0.00  0.00    +0.000 C 
ATOM     23  C   UNL     1      11.754  13.050  19.946  0.00  0.00    +0.000 C 
ATOM     24  C   UNL     1      11.631  13.616  18.532  0.00  0.00    +0.000 C 
ATOM     25  C   UNL     1      11.612  12.499  17.495  0.00  0.00    +0.000 C 
ATOM     26  C   UNL     1      10.443  11.540  17.735  0.00  0.00    +0.000 C 
ENDBRANCH  20  21
ENDBRANCH  19  20
ENDBRANCH  17  19
ENDBRANCH   1  16
TORSDOF 7
ENDMDL
MODEL 3
REMARK VINA RESULT:      -7.8      3.714      6.379
REMARK  Name = 
REMARK  7 active torsions:
REMARK  status: ('A' for Active; 'I' for Inactive)
REMARK    1  A    between atoms: C_2  and  C_3
REMARK    2  A    between atoms: C_3  and  N_4
REMARK    3  A    between atoms: C_8  and  C_9
REMARK    4  A    between atoms: C_9  and  C_11
REMARK    5  A    between atoms: N_17  and  C_18
REMARK    6  A    between atoms: C_18  and  C_19
REMARK    7  A    between atoms: C_19  and  C_20
REMARK                            x       y       z     vdW  Elec       q    Type
REMARK                         _______ _______ _______ _____ _____    ______ ____
ROOT
ATOM      1  C   UNL     1       7.609   5.820  17.885  0.00  0.00    +0.000 C 
ENDROOT
BRANCH   1   2
ATOM      2  N   UNL     1       6.790   5.049  16.943  0.00  0.00    +0.000 N 
ATOM      3  C   UNL     1       7.014   5.060  15.584  0.00  0.00    +0.000 A 
ATOM      4  C   UNL     1       6.095   4.260  14.973  0.00  0.00    +0.000 A 
ATOM      5  C   UNL     1       5.259   3.757  15.986  0.00  0.00    +0.000 A 
ATOM      6  C   UNL     1       5.705   4.219  17.221  0.00  0.00    +0.000 A 
BRANCH   6   7
ATOM      7  C   UNL     1       5.103   3.922  18.524  0.00  0.00    +0.000 C 
ATOM      8  O   UNL     1       5.723   3.990  19.581  0.00  0.00    +0.000 OA
BRANCH   7   9
ATOM      9  C   UNL     1       3.639   3.556  18.582  0.00  0.00    +0.000 A 
ATOM     10  C   UNL     1       2.693   4.397  17.979  0.00  0.00    +0.000 A 
ATOM     11  C   UNL     1       1.338   4.049  17.965  0.00  0.00    +0.000 A 
ATOM     12  C   UNL     1       0.916   2.856  18.556  0.00  0.00    +0.000 A 
ATOM     13  C   UNL     1       1.842   2.031  19.195  0.00  0.00    +0.000 A 
ATOM     14  C   UNL     1       3.194   2.390  19.224  0.00  0.00    +0.000 A 
ENDBRANCH   7   9
ENDBRANCH   6   7
ENDBRANCH   1   2
BRANCH   1  16
ATOM     15  O   UNL     1       6.727   7.843  16.859  0.00  0.00    +0.000 OA
ATOM     16  C   UNL     1       7.517   7.335  17.648  0.00  0.00    +0.000 C 
ATOM     17  N   UNL     1       8.436   8.074  18.373  0.00  0.00    +0.000 N 
ATOM     18  H   UNL     1       9.046   7.597  19.019  0.00  0.00    +0.000 HD
BRANCH  17  19
ATOM     19  C   UNL     1       8.526   9.522  18.267  0.00  0.00    +0.000 C 
BRANCH  19  20
ATOM     20  C   UNL     1       9.231  10.125  19.487  0.00  0.00    +0.000 C 
BRANCH  20  21
ATOM     21  C   UNL     1      10.169  11.237  19.096  0.00  0.00    +0.000 C 
ATOM     22  C   UNL     1      10.338  11.576  17.805  0.00  0.00    +0.000 C 
ATOM     23  C   UNL     1      11.328  12.602  17.337  0.00  0.00    +0.000 C 
ATOM     24  C   UNL     1      12.333  12.997  18.418  0.00  0.00    +0.000 C 
ATOM     25  C   UNL     1      11.641  13.199  19.761  0.00  0.00    +0.000 C 
ATOM     26  C   UNL     1      10.921  11.925  20.211  0.00  0.00    +0.000 C 
ENDBRANCH  20  21
ENDBRANCH  19  20
ENDBRANCH  17  19
ENDBRANCH   1  16
TORSDOF 7
ENDMDL
MODEL 4
REMARK VINA RESULT:      -7.5      0.903      1.336
REMARK  Name = 
REMARK  7 active torsions:
REMARK  status: ('A' for Active; 'I' for Inactive)
REMARK    1  A    between atoms: C_2  and  C_3
REMARK    2  A    between atoms: C_3  and  N_4
REMARK    3  A    between atoms: C_8  and  C_9
REMARK    4  A    between atoms: C_9  and  C_11
REMARK    5  A    between atoms: N_17  and  C_18
REMARK    6  A    between atoms: C_18  and  C_19
REMARK    7  A    between atoms: C_19  and  C_20
REMARK                            x       y       z     vdW  Elec       q    Type
REMARK                         _______ _______ _______ _____ _____    ______ ____
ROOT
ATOM      1  C   UNL     1       3.709   2.540  18.705  0.00  0.00    +0.000 C 
ENDROOT
BRANCH   1   2
ATOM      2  N   UNL     1       2.631   3.079  19.539  0.00  0.00    +0.000 N 
ATOM      3  C   UNL     1       1.606   2.296  20.026  0.00  0.00    +0.000 A 
ATOM      4  C   UNL     1       0.758   3.073  20.756  0.00  0.00    +0.000 A 
ATOM      5  C   UNL     1       1.260   4.386  20.699  0.00  0.00    +0.000 A 
ATOM      6  C   UNL     1       2.445   4.392  19.969  0.00  0.00    +0.000 A 
BRANCH   6   7
ATOM      7  C   UNL     1       3.274   5.565  19.679  0.00  0.00    +0.000 C 
ATOM      8  O   UNL     1       4.502   5.539  19.691  0.00  0.00    +0.000 OA
BRANCH   7   9
ATOM      9  C   UNL     1       2.597   6.861  19.304  0.00  0.00    +0.000 A 
ATOM     10  C   UNL     1       1.906   7.587  20.284  0.00  0.00    +0.000 A 
ATOM     11  C   UNL     1       1.323   8.822  19.976  0.00  0.00    +0.000 A 
ATOM     12  C   UNL     1       1.425   9.340  18.684  0.00  0.00    +0.000 A 
ATOM     13  C   UNL     1       2.075   8.608  17.691  0.00  0.00    +0.000 A 
ATOM     14  C   UNL     1       2.640   7.366  17.995  0.00  0.00    +0.000 A 
ENDBRANCH   7   9
ENDBRANCH   6   7
ENDBRANCH   1   2
BRANCH   1  16
ATOM     15  O   UNL     1       2.714   3.342  16.634  0.00  0.00    +0.000 OA
ATOM     16  C   UNL     1       3.729   3.149  17.295  0.00  0.00    +0.000 C 
ATOM     17  N   UNL     1       4.999   3.422  16.817  0.00  0.00    +0.000 N 
ATOM     18  H   UNL     1       5.792   3.258  17.418  0.00  0.00    +0.000 HD
BRANCH  17  19
ATOM     19  C   UNL     1       5.230   3.978  15.493  0.00  0.00    +0.000 C 
BRANCH  19  20
ATOM     20  C   UNL     1       6.648   4.545  15.369  0.00  0.00    +0.000 C 
BRANCH  20  21
ATOM     21  C   UNL     1       7.007   5.410  16.549  0.00  0.00    +0.000 C 
ATOM     22  C   UNL     1       6.727   6.726  16.552  0.00  0.00    +0.000 C 
ATOM     23  C   UNL     1       7.144   7.663  17.646  0.00  0.00    +0.000 C 
ATOM     24  C   UNL     1       8.174   7.051  18.594  0.00  0.00    +0.000 C 
ATOM     25  C   UNL     1       7.802   5.617  18.954  0.00  0.00    +0.000 C 
ATOM     26  C   UNL     1       7.712   4.738  17.704  0.00  0.00    +0.000 C 
ENDBRANCH  20  21
ENDBRANCH  19  20
ENDBRANCH  17  19
ENDBRANCH   1  16
TORSDOF 7
ENDMDL
MODEL 5
REMARK VINA RESULT:      -7.5      0.464      1.069
REMARK  Name = 
REMARK  7 active torsions:
REMARK  status: ('A' for Active; 'I' for Inactive)
REMARK    1  A    between atoms: C_2  and  C_3
REMARK    2  A    between atoms: C_3  and  N_4
REMARK    3  A    between atoms: C_8  and  C_9
REMARK    4  A    between atoms: C_9  and  C_11
REMARK    5  A    between atoms: N_17  and  C_18
REMARK    6  A    between atoms: C_18  and  C_19
REMARK    7  A    between atoms: C_19  and  C_20
REMARK                            x       y       z     vdW  Elec       q    Type
REMARK                         _______ _______ _______ _____ _____    ______ ____
ROOT
ATOM      1  C   UNL     1       1.921   3.532  17.589  0.00  0.00    +0.000 C 
ENDROOT
BRANCH   1   2
ATOM      2  N   UNL     1       1.833   3.680  19.045  0.00  0.00    +0.000 N 
ATOM      3  C   UNL     1       1.124   2.805  19.840  0.00  0.00    +0.000 A 
ATOM      4  C   UNL     1       1.220   3.202  21.140  0.00  0.00    +0.000 A 
ATOM      5  C   UNL     1       1.995   4.376  21.149  0.00  0.00    +0.000 A 
ATOM      6  C   UNL     1       2.408   4.663  19.850  0.00  0.00    +0.000 A 
BRANCH   6   7
ATOM      7  C   UNL     1       3.230   5.804  19.438  0.00  0.00    +0.000 C 
ATOM      8  O   UNL     1       4.432   5.715  19.203  0.00  0.00    +0.000 OA
BRANCH   7   9
ATOM      9  C   UNL     1       2.568   7.147  19.247  0.00  0.00    +0.000 A 
ATOM     10  C   UNL     1       2.671   7.797  18.010  0.00  0.00    +0.000 A 
ATOM     11  C   UNL     1       2.014   9.013  17.788  0.00  0.00    +0.000 A 
ATOM     12  C   UNL     1       1.249   9.590  18.804  0.00  0.00    +0.000 A 
ATOM     13  C   UNL     1       1.172   8.973  20.052  0.00  0.00    +0.000 A 
ATOM     14  C   UNL     1       1.845   7.768  20.278  0.00  0.00    +0.000 A 
ENDBRANCH   7   9
ENDBRANCH   6   7
ENDBRANCH   1   2
BRANCH   1  16
ATOM     15  O   UNL     1       3.920   2.147  17.489  0.00  0.00    +0.000 OA
ATOM     16  C   UNL     1       3.334   3.158  17.116  0.00  0.00    +0.000 C 
ATOM     17  N   UNL     1       3.906   4.087  16.264  0.00  0.00    +0.000 N 
ATOM     18  H   UNL     1       3.364   4.889  15.981  0.00  0.00    +0.000 HD
BRANCH  17  19
ATOM     19  C   UNL     1       5.249   3.928  15.728  0.00  0.00    +0.000 C 
BRANCH  19  20
ATOM     20  C   UNL     1       5.925   5.286  15.513  0.00  0.00    +0.000 C 
BRANCH  20  21
ATOM     21  C   UNL     1       6.791   5.668  16.686  0.00  0.00    +0.000 C 
ATOM     22  C   UNL     1       7.475   4.735  17.373  0.00  0.00    +0.000 C 
ATOM     23  C   UNL     1       8.273   5.031  18.608  0.00  0.00    +0.000 C 
ATOM     24  C   UNL     1       7.988   6.417  19.185  0.00  0.00    +0.000 C 
ATOM     25  C   UNL     1       7.923   7.466  18.081  0.00  0.00    +0.000 C 
ATOM     26  C   UNL     1       6.831   7.131  17.062  0.00  0.00    +0.000 C 
ENDBRANCH  20  21
ENDBRANCH  19  20
ENDBRANCH  17  19
ENDBRANCH   1  16
TORSDOF 7
ENDMDL
MODEL 6
REMARK VINA RESULT:      -7.4      3.387      5.927
REMARK  Name = 
REMARK  7 active torsions:
REMARK  status: ('A' for Active; 'I' for Inactive)
REMARK    1  A    between atoms: C_2  and  C_3
REMARK    2  A    between atoms: C_3  and  N_4
REMARK    3  A    between atoms: C_8  and  C_9
REMARK    4  A    between atoms: C_9  and  C_11
REMARK    5  A    between atoms: N_17  and  C_18
REMARK    6  A    between atoms: C_18  and  C_19
REMARK    7  A    between atoms: C_19  and  C_20
REMARK                            x       y       z     vdW  Elec       q    Type
REMARK                         _______ _______ _______ _____ _____    ______ ____
ROOT
ATOM      1  C   UNL     1       5.547   6.885  16.969  0.00  0.00    +0.000 C 
ENDROOT
BRANCH   1   2
ATOM      2  N   UNL     1       5.495   5.560  16.345  0.00  0.00    +0.000 N 
ATOM      3  C   UNL     1       5.663   5.369  14.991  0.00  0.00    +0.000 A 
ATOM      4  C   UNL     1       5.555   4.040  14.709  0.00  0.00    +0.000 A 
ATOM      5  C   UNL     1       5.287   3.388  15.926  0.00  0.00    +0.000 A 
ATOM      6  C   UNL     1       5.279   4.325  16.955  0.00  0.00    +0.000 A 
BRANCH   6   7
ATOM      7  C   UNL     1       5.035   4.047  18.374  0.00  0.00    +0.000 C 
ATOM      8  O   UNL     1       5.936   3.884  19.191  0.00  0.00    +0.000 OA
BRANCH   7   9
ATOM      9  C   UNL     1       3.610   4.000  18.871  0.00  0.00    +0.000 A 
ATOM     10  C   UNL     1       2.591   3.580  18.006  0.00  0.00    +0.000 A 
ATOM     11  C   UNL     1       1.272   3.468  18.461  0.00  0.00    +0.000 A 
ATOM     12  C   UNL     1       0.961   3.777  19.787  0.00  0.00    +0.000 A 
ATOM     13  C   UNL     1       1.960   4.235  20.646  0.00  0.00    +0.000 A 
ATOM     14  C   UNL     1       3.273   4.365  20.184  0.00  0.00    +0.000 A 
ENDBRANCH   7   9
ENDBRANCH   6   7
ENDBRANCH   1   2
BRANCH   1  16
ATOM     15  O   UNL     1       7.749   6.390  17.881  0.00  0.00    +0.000 OA
ATOM     16  C   UNL     1       6.946   7.235  17.501  0.00  0.00    +0.000 C 
ATOM     17  N   UNL     1       7.204   8.594  17.553  0.00  0.00    +0.000 N 
ATOM     18  H   UNL     1       6.508   9.237  17.207  0.00  0.00    +0.000 HD
BRANCH  17  19
ATOM     19  C   UNL     1       8.462   9.128  18.051  0.00  0.00    +0.000 C 
BRANCH  19  20
ATOM     20  C   UNL     1       8.366  10.638  18.294  0.00  0.00    +0.000 C 
BRANCH  20  21
ATOM     21  C   UNL     1       9.685  11.215  18.739  0.00  0.00    +0.000 C 
ATOM     22  C   UNL     1      10.610  11.600  17.841  0.00  0.00    +0.000 C 
ATOM     23  C   UNL     1      11.979  12.087  18.213  0.00  0.00    +0.000 C 
ATOM     24  C   UNL     1      12.332  11.815  19.674  0.00  0.00    +0.000 C 
ATOM     25  C   UNL     1      11.159  12.143  20.591  0.00  0.00    +0.000 C 
ATOM     26  C   UNL     1       9.923  11.314  20.228  0.00  0.00    +0.000 C 
ENDBRANCH  20  21
ENDBRANCH  19  20
ENDBRANCH  17  19
ENDBRANCH   1  16
TORSDOF 7
ENDMDL
MODEL 7
REMARK VINA RESULT:      -7.4      3.771      6.288
REMARK  Name = 
REMARK  7 active torsions:
REMARK  status: ('A' for Active; 'I' for Inactive)
REMARK    1  A    between atoms: C_2  and  C_3
REMARK    2  A    between atoms: C_3  and  N_4
REMARK    3  A    between atoms: C_8  and  C_9
REMARK    4  A    between atoms: C_9  and  C_11
REMARK    5  A    between atoms: N_17  and  C_18
REMARK    6  A    between atoms: C_18  and  C_19
REMARK    7  A    between atoms: C_19  and  C_20
REMARK                            x       y       z     vdW  Elec       q    Type
REMARK                         _______ _______ _______ _____ _____    ______ ____
ROOT
ATOM      1  C   UNL     1       7.476   5.959  18.329  0.00  0.00    +0.000 C 
ENDROOT
BRANCH   1   2
ATOM      2  N   UNL     1       6.663   5.162  17.405  0.00  0.00    +0.000 N 
ATOM      3  C   UNL     1       7.216   4.360  16.431  0.00  0.00    +0.000 A 
ATOM      4  C   UNL     1       6.217   3.753  15.729  0.00  0.00    +0.000 A 
ATOM      5  C   UNL     1       5.004   4.214  16.272  0.00  0.00    +0.000 A 
ATOM      6  C   UNL     1       5.273   5.068  17.338  0.00  0.00    +0.000 A 
BRANCH   6   7
ATOM      7  C   UNL     1       4.279   5.758  18.165  0.00  0.00    +0.000 C 
ATOM      8  O   UNL     1       4.000   6.946  18.029  0.00  0.00    +0.000 OA
BRANCH   7   9
ATOM      9  C   UNL     1       3.524   4.967  19.207  0.00  0.00    +0.000 A 
ATOM     10  C   UNL     1       3.923   3.656  19.500  0.00  0.00    +0.000 A 
ATOM     11  C   UNL     1       3.279   2.925  20.505  0.00  0.00    +0.000 A 
ATOM     12  C   UNL     1       2.230   3.500  21.225  0.00  0.00    +0.000 A 
ATOM     13  C   UNL     1       1.798   4.789  20.914  0.00  0.00    +0.000 A 
ATOM     14  C   UNL     1       2.429   5.511  19.897  0.00  0.00    +0.000 A 
ENDBRANCH   7   9
ENDBRANCH   6   7
ENDBRANCH   1   2
BRANCH   1  16
ATOM     15  O   UNL     1       7.457   7.748  16.679  0.00  0.00    +0.000 OA
ATOM     16  C   UNL     1       7.717   7.389  17.822  0.00  0.00    +0.000 C 
ATOM     17  N   UNL     1       8.295   8.228  18.760  0.00  0.00    +0.000 N 
ATOM     18  H   UNL     1       8.467   7.876  19.690  0.00  0.00    +0.000 HD
BRANCH  17  19
ATOM     19  C   UNL     1       8.627   9.613  18.465  0.00  0.00    +0.000 C 
BRANCH  19  20
ATOM     20  C   UNL     1       9.694  10.145  19.428  0.00  0.00    +0.000 C 
BRANCH  20  21
ATOM     21  C   UNL     1      10.425  11.328  18.848  0.00  0.00    +0.000 C 
ATOM     22  C   UNL     1       9.893  12.045  17.842  0.00  0.00    +0.000 C 
ATOM     23  C   UNL     1      10.608  13.169  17.152  0.00  0.00    +0.000 C 
ATOM     24  C   UNL     1      12.098  13.222  17.486  0.00  0.00    +0.000 C 
ATOM     25  C   UNL     1      12.333  13.004  18.976  0.00  0.00    +0.000 C 
ATOM     26  C   UNL     1      11.782  11.649  19.432  0.00  0.00    +0.000 C 
ENDBRANCH  20  21
ENDBRANCH  19  20
ENDBRANCH  17  19
ENDBRANCH   1  16
TORSDOF 7
ENDMDL
MODEL 8
REMARK VINA RESULT:      -7.3      3.454      6.028
REMARK  Name = 
REMARK  7 active torsions:
REMARK  status: ('A' for Active; 'I' for Inactive)
REMARK    1  A    between atoms: C_2  and  C_3
REMARK    2  A    between atoms: C_3  and  N_4
REMARK    3  A    between atoms: C_8  and  C_9
REMARK    4  A    between atoms: C_9  and  C_11
REMARK    5  A    between atoms: N_17  and  C_18
REMARK    6  A    between atoms: C_18  and  C_19
REMARK    7  A    between atoms: C_19  and  C_20
REMARK                            x       y       z     vdW  Elec       q    Type
REMARK                         _______ _______ _______ _____ _____    ______ ____
ROOT
ATOM      1  C   UNL     1       5.702   6.862  17.047  0.00  0.00    +0.000 C 
ENDROOT
BRANCH   1   2
ATOM      2  N   UNL     1       5.687   5.546  16.401  0.00  0.00    +0.000 N 
ATOM      3  C   UNL     1       5.953   5.374  15.060  0.00  0.00    +0.000 A 
ATOM      4  C   UNL     1       5.858   4.050  14.751  0.00  0.00    +0.000 A 
ATOM      5  C   UNL     1       5.497   3.382  15.936  0.00  0.00    +0.000 A 
ATOM      6  C   UNL     1       5.420   4.304  16.976  0.00  0.00    +0.000 A 
BRANCH   6   7
ATOM      7  C   UNL     1       5.070   4.008  18.368  0.00  0.00    +0.000 C 
ATOM      8  O   UNL     1       5.905   3.897  19.261  0.00  0.00    +0.000 OA
BRANCH   7   9
ATOM      9  C   UNL     1       3.613   3.873  18.740  0.00  0.00    +0.000 A 
ATOM     10  C   UNL     1       2.630   4.057  17.757  0.00  0.00    +0.000 A 
ATOM     11  C   UNL     1       1.276   3.876  18.062  0.00  0.00    +0.000 A 
ATOM     12  C   UNL     1       0.893   3.511  19.354  0.00  0.00    +0.000 A 
ATOM     13  C   UNL     1       1.858   3.365  20.350  0.00  0.00    +0.000 A 
ATOM     14  C   UNL     1       3.209   3.565  20.049  0.00  0.00    +0.000 A 
ENDBRANCH   7   9
ENDBRANCH   6   7
ENDBRANCH   1   2
BRANCH   1  16
ATOM     15  O   UNL     1       7.754   6.413  18.277  0.00  0.00    +0.000 OA
ATOM     16  C   UNL     1       7.073   7.213  17.644  0.00  0.00    +0.000 C 
ATOM     17  N   UNL     1       7.454   8.529  17.442  0.00  0.00    +0.000 N 
ATOM     18  H   UNL     1       6.857   9.132  16.897  0.00  0.00    +0.000 HD
BRANCH  17  19
ATOM     19  C   UNL     1       8.707   9.064  17.953  0.00  0.00    +0.000 C 
BRANCH  19  20
ATOM     20  C   UNL     1       8.482  10.376  18.711  0.00  0.00    +0.000 C 
BRANCH  20  21
ATOM     21  C   UNL     1       9.773  11.123  18.925  0.00  0.00    +0.000 C 
ATOM     22  C   UNL     1      10.240  11.354  20.165  0.00  0.00    +0.000 C 
ATOM     23  C   UNL     1      11.461  12.176  20.454  0.00  0.00    +0.000 C 
ATOM     24  C   UNL     1      11.942  12.976  19.244  0.00  0.00    +0.000 C 
ATOM     25  C   UNL     1      11.908  12.127  17.979  0.00  0.00    +0.000 C 
ATOM     26  C   UNL     1      10.493  11.617  17.691  0.00  0.00    +0.000 C 
ENDBRANCH  20  21
ENDBRANCH  19  20
ENDBRANCH  17  19
ENDBRANCH   1  16
TORSDOF 7
ENDMDL
MODEL 9
REMARK VINA RESULT:      -7.2      3.549      6.284
REMARK  Name = 
REMARK  7 active torsions:
REMARK  status: ('A' for Active; 'I' for Inactive)
REMARK    1  A    between atoms: C_2  and  C_3
REMARK    2  A    between atoms: C_3  and  N_4
REMARK    3  A    between atoms: C_8  and  C_9
REMARK    4  A    between atoms: C_9  and  C_11
REMARK    5  A    between atoms: N_17  and  C_18
REMARK    6  A    between atoms: C_18  and  C_19
REMARK    7  A    between atoms: C_19  and  C_20
REMARK                            x       y       z     vdW  Elec       q    Type
REMARK                         _______ _______ _______ _____ _____    ______ ____
ROOT
ATOM      1  C   UNL     1       5.930   6.936  16.956  0.00  0.00    +0.000 C 
ENDROOT
BRANCH   1   2
ATOM      2  N   UNL     1       5.974   5.623  16.304  0.00  0.00    +0.000 N 
ATOM      3  C   UNL     1       6.370   5.456  14.995  0.00  0.00    +0.000 A 
ATOM      4  C   UNL     1       6.300   4.134  14.672  0.00  0.00    +0.000 A 
ATOM      5  C   UNL     1       5.821   3.463  15.811  0.00  0.00    +0.000 A 
ATOM      6  C   UNL     1       5.646   4.380  16.843  0.00  0.00    +0.000 A 
BRANCH   6   7
ATOM      7  C   UNL     1       5.159   4.078  18.193  0.00  0.00    +0.000 C 
ATOM      8  O   UNL     1       5.853   4.197  19.199  0.00  0.00    +0.000 OA
BRANCH   7   9
ATOM      9  C   UNL     1       3.724   3.642  18.369  0.00  0.00    +0.000 A 
ATOM     10  C   UNL     1       2.693   4.444  17.862  0.00  0.00    +0.000 A 
ATOM     11  C   UNL     1       1.358   4.031  17.957  0.00  0.00    +0.000 A 
ATOM     12  C   UNL     1       1.045   2.812  18.562  0.00  0.00    +0.000 A 
ATOM     13  C   UNL     1       2.060   2.026  19.106  0.00  0.00    +0.000 A 
ATOM     14  C   UNL     1       3.390   2.449  19.028  0.00  0.00    +0.000 A 
ENDBRANCH   7   9
ENDBRANCH   6   7
ENDBRANCH   1   2
BRANCH   1  16
ATOM     15  O   UNL     1       7.951   6.416  18.207  0.00  0.00    +0.000 OA
ATOM     16  C   UNL     1       7.230   7.270  17.703  0.00  0.00    +0.000 C 
ATOM     17  N   UNL     1       7.494   8.626  17.794  0.00  0.00    +0.000 N 
ATOM     18  H   UNL     1       6.870   9.276  17.341  0.00  0.00    +0.000 HD
BRANCH  17  19
ATOM     19  C   UNL     1       8.663   9.147  18.486  0.00  0.00    +0.000 C 
BRANCH  19  20
ATOM     20  C   UNL     1       9.091  10.501  17.911  0.00  0.00    +0.000 C 
BRANCH  20  21
ATOM     21  C   UNL     1       9.294  11.527  18.996  0.00  0.00    +0.000 C 
ATOM     22  C   UNL     1       9.332  12.840  18.707  0.00  0.00    +0.000 C 
ATOM     23  C   UNL     1       9.631  13.907  19.718  0.00  0.00    +0.000 C 
ATOM     24  C   UNL     1      10.187  13.348  21.027  0.00  0.00    +0.000 C 
ATOM     25  C   UNL     1       9.412  12.111  21.467  0.00  0.00    +0.000 C 
ATOM     26  C   UNL     1       9.476  11.010  20.404  0.00  0.00    +0.000 C 
ENDBRANCH  20  21
ENDBRANCH  19  20
ENDBRANCH  17  19
ENDBRANCH   1  16
TORSDOF 7
ENDMDL
