MODEL 1
REMARK VINA RESULT:      -7.4      0.000      0.000
REMARK  Name = 
REMARK  6 active torsions:
REMARK  status: ('A' for Active; 'I' for Inactive)
REMARK    1  A    between atoms: C_1  and  O_2
REMARK    2  A    between atoms: O_2  and  C_3
REMARK    3  A    between atoms: C_6  and  N_7
REMARK    4  A    between atoms: C_8  and  C_10
REMARK    5  A    between atoms: C_15  and  C_16
REMARK    6  A    between atoms: C_17  and  C_18
REMARK                            x       y       z     vdW  Elec       q    Type
REMARK                         _______ _______ _______ _____ _____    ______ ____
ROOT
ATOM      1  N   UNL     1       2.004   7.898  20.137  0.00  0.00    +0.000 N 
ATOM      2  C   UNL     1       1.954   6.512  20.187  0.00  0.00    +0.000 C 
ATOM      3  O   UNL     1       1.153   5.846  20.843  0.00  0.00    +0.000 OA
ATOM      4  H   UNL     1       2.549   8.328  19.401  0.00  0.00    +0.000 HD
ENDROOT
BRANCH   2   5
ATOM      5  C   UNL     1       2.904   5.748  19.340  0.00  0.00    +0.000 A 
ATOM      6  C   UNL     1       3.409   4.561  19.890  0.00  0.00    +0.000 A 
ATOM      7  C   UNL     1       4.396   3.823  19.247  0.00  0.00    +0.000 A 
ATOM      8  C   UNL     1       4.868   4.315  18.032  0.00  0.00    +0.000 A 
ATOM      9  N   UNL     1       5.840   3.815  17.210  0.00  0.00    +0.000 N 
ATOM     10  C   UNL     1       6.006   4.608  16.104  0.00  0.00    +0.000 A 
ATOM     11  C   UNL     1       6.981   4.223  15.049  0.00  0.00    +0.000 C 
ATOM     12  C   UNL     1       5.155   5.695  16.245  0.00  0.00    +0.000 A 
ATOM     13  C   UNL     1       5.015   6.877  15.350  0.00  0.00    +0.000 C 
ATOM     14  C   UNL     1       4.404   5.495  17.450  0.00  0.00    +0.000 A 
ATOM     15  C   UNL     1       3.386   6.225  18.112  0.00  0.00    +0.000 A 
ATOM     16  H   UNL     1       6.368   2.973  17.402  0.00  0.00    +0.000 HD
ENDBRANCH   2   5
BRANCH   1  20
ATOM     17  C   UNL     1      -0.569  10.414  22.381  0.00  0.00    +0.000 A 
ATOM     18  C   UNL     1       0.327   9.576  23.033  0.00  0.00    +0.000 A 
ATOM     19  C   UNL     1       1.194   8.763  22.302  0.00  0.00    +0.000 A 
ATOM     20  C   UNL     1       1.164   8.746  20.905  0.00  0.00    +0.000 A 
ATOM     21  C   UNL     1       0.268   9.597  20.249  0.00  0.00    +0.000 A 
ATOM     22  C   UNL     1      -0.605  10.419  20.985  0.00  0.00    +0.000 A 
BRANCH  17  24
ATOM     23  C   UNL     1      -1.321  12.553  23.035  0.00  0.00    +0.000 C 
ATOM     24  O   UNL     1      -1.375  11.144  23.207  0.00  0.00    +0.000 OA
ENDBRANCH  17  24
ENDBRANCH   1  20
TORSDOF 3
ENDMDL
MODEL 2
REMARK VINA RESULT:      -7.3      2.516      3.534
REMARK  Name = 
REMARK  6 active torsions:
REMARK  status: ('A' for Active; 'I' for Inactive)
REMARK    1  A    between atoms: C_1  and  O_2
REMARK    2  A    between atoms: O_2  and  C_3
REMARK    3  A    between atoms: C_6  and  N_7
REMARK    4  A    between atoms: C_8  and  C_10
REMARK    5  A    between atoms: C_15  and  C_16
REMARK    6  A    between atoms: C_17  and  C_18
REMARK                            x       y       z     vdW  Elec       q    Type
REMARK                         _______ _______ _______ _____ _____    ______ ____
ROOT
ATOM      1  N   UNL     1       1.137   9.095  19.339  0.00  0.00    +0.000 N 
ATOM      2  C   UNL     1       1.940   8.810  18.243  0.00  0.00    +0.000 C 
ATOM      3  O   UNL     1       2.206   9.589  17.327  0.00  0.00    +0.000 OA
ATOM      4  H   UNL     1       1.170   8.466  20.130  0.00  0.00    +0.000 HD
ENDROOT
BRANCH   2   5
ATOM      5  C   UNL     1       2.589   7.477  18.182  0.00  0.00    +0.000 A 
ATOM      6  C   UNL     1       3.780   7.401  17.446  0.00  0.00    +0.000 A 
ATOM      7  C   UNL     1       4.416   6.187  17.213  0.00  0.00    +0.000 A 
ATOM      8  C   UNL     1       3.816   5.044  17.737  0.00  0.00    +0.000 A 
ATOM      9  N   UNL     1       4.204   3.736  17.639  0.00  0.00    +0.000 N 
ATOM     10  C   UNL     1       3.329   2.913  18.299  0.00  0.00    +0.000 A 
ATOM     11  C   UNL     1       3.585   1.449  18.363  0.00  0.00    +0.000 C 
ATOM     12  C   UNL     1       2.304   3.709  18.790  0.00  0.00    +0.000 A 
ATOM     13  C   UNL     1       1.073   3.284  19.512  0.00  0.00    +0.000 C 
ATOM     14  C   UNL     1       2.628   5.068  18.466  0.00  0.00    +0.000 A 
ATOM     15  C   UNL     1       2.003   6.316  18.709  0.00  0.00    +0.000 A 
ATOM     16  H   UNL     1       5.026   3.423  17.138  0.00  0.00    +0.000 HD
ENDBRANCH   2   5
BRANCH   1  20
ATOM     17  C   UNL     1      -0.995  12.722  19.873  0.00  0.00    +0.000 A 
ATOM     18  C   UNL     1       0.256  12.558  20.455  0.00  0.00    +0.000 A 
ATOM     19  C   UNL     1       0.974  11.378  20.264  0.00  0.00    +0.000 A 
ATOM     20  C   UNL     1       0.448  10.323  19.514  0.00  0.00    +0.000 A 
ATOM     21  C   UNL     1      -0.808  10.493  18.919  0.00  0.00    +0.000 A 
ATOM     22  C   UNL     1      -1.532  11.684  19.109  0.00  0.00    +0.000 A 
BRANCH  17  24
ATOM     23  C   UNL     1      -0.824  15.076  19.912  0.00  0.00    +0.000 C 
ATOM     24  O   UNL     1      -1.604  13.913  20.150  0.00  0.00    +0.000 OA
ENDBRANCH  17  24
ENDBRANCH   1  20
TORSDOF 3
ENDMDL
MODEL 3
REMARK VINA RESULT:      -7.3      0.462      1.121
REMARK  Name = 
REMARK  6 active torsions:
REMARK  status: ('A' for Active; 'I' for Inactive)
REMARK    1  A    between atoms: C_1  and  O_2
REMARK    2  A    between atoms: O_2  and  C_3
REMARK    3  A    between atoms: C_6  and  N_7
REMARK    4  A    between atoms: C_8  and  C_10
REMARK    5  A    between atoms: C_15  and  C_16
REMARK    6  A    between atoms: C_17  and  C_18
REMARK                            x       y       z     vdW  Elec       q    Type
REMARK                         _______ _______ _______ _____ _____    ______ ____
ROOT
ATOM      1  N   UNL     1       1.846   7.826  19.894  0.00  0.00    +0.000 N 
ATOM      2  C   UNL     1       1.919   6.456  20.104  0.00  0.00    +0.000 C 
ATOM      3  O   UNL     1       1.327   5.833  20.986  0.00  0.00    +0.000 OA
ATOM      4  H   UNL     1       2.190   8.192  19.016  0.00  0.00    +0.000 HD
ENDROOT
BRANCH   2   5
ATOM      5  C   UNL     1       2.728   5.647  19.159  0.00  0.00    +0.000 A 
ATOM      6  C   UNL     1       2.981   4.321  19.537  0.00  0.00    +0.000 A 
ATOM      7  C   UNL     1       3.826   3.501  18.798  0.00  0.00    +0.000 A 
ATOM      8  C   UNL     1       4.418   4.055  17.665  0.00  0.00    +0.000 A 
ATOM      9  N   UNL     1       5.299   3.493  16.783  0.00  0.00    +0.000 N 
ATOM     10  C   UNL     1       5.645   4.383  15.799  0.00  0.00    +0.000 A 
ATOM     11  C   UNL     1       6.559   3.966  14.702  0.00  0.00    +0.000 C 
ATOM     12  C   UNL     1       5.015   5.585  16.090  0.00  0.00    +0.000 A 
ATOM     13  C   UNL     1       5.129   6.883  15.370  0.00  0.00    +0.000 C 
ATOM     14  C   UNL     1       4.205   5.370  17.254  0.00  0.00    +0.000 A 
ATOM     15  C   UNL     1       3.327   6.186  18.010  0.00  0.00    +0.000 A 
ATOM     16  H   UNL     1       5.650   2.547  16.855  0.00  0.00    +0.000 HD
ENDBRANCH   2   5
BRANCH   1  20
ATOM     17  C   UNL     1      -0.251  10.493  22.439  0.00  0.00    +0.000 A 
ATOM     18  C   UNL     1      -0.413  10.573  21.061  0.00  0.00    +0.000 A 
ATOM     19  C   UNL     1       0.254   9.684  20.218  0.00  0.00    +0.000 A 
ATOM     20  C   UNL     1       1.121   8.715  20.730  0.00  0.00    +0.000 A 
ATOM     21  C   UNL     1       1.277   8.629  22.118  0.00  0.00    +0.000 A 
ATOM     22  C   UNL     1       0.602   9.523  22.969  0.00  0.00    +0.000 A 
BRANCH  17  24
ATOM     23  C   UNL     1      -2.013  12.064  22.465  0.00  0.00    +0.000 C 
ATOM     24  O   UNL     1      -0.943  11.430  23.152  0.00  0.00    +0.000 OA
ENDBRANCH  17  24
ENDBRANCH   1  20
TORSDOF 3
ENDMDL
MODEL 4
REMARK VINA RESULT:      -7.3      2.468      3.564
REMARK  Name = 
REMARK  6 active torsions:
REMARK  status: ('A' for Active; 'I' for Inactive)
REMARK    1  A    between atoms: C_1  and  O_2
REMARK    2  A    between atoms: O_2  and  C_3
REMARK    3  A    between atoms: C_6  and  N_7
REMARK    4  A    between atoms: C_8  and  C_10
REMARK    5  A    between atoms: C_15  and  C_16
REMARK    6  A    between atoms: C_17  and  C_18
REMARK                            x       y       z     vdW  Elec       q    Type
REMARK                         _______ _______ _______ _____ _____    ______ ____
ROOT
ATOM      1  N   UNL     1       1.133   9.048  19.388  0.00  0.00    +0.000 N 
ATOM      2  C   UNL     1       1.947   8.787  18.295  0.00  0.00    +0.000 C 
ATOM      3  O   UNL     1       2.226   9.587  17.401  0.00  0.00    +0.000 OA
ATOM      4  H   UNL     1       1.155   8.400  20.165  0.00  0.00    +0.000 HD
ENDROOT
BRANCH   2   5
ATOM      5  C   UNL     1       2.593   7.454  18.209  0.00  0.00    +0.000 A 
ATOM      6  C   UNL     1       3.755   7.378  17.428  0.00  0.00    +0.000 A 
ATOM      7  C   UNL     1       4.382   6.163  17.170  0.00  0.00    +0.000 A 
ATOM      8  C   UNL     1       3.802   5.021  17.718  0.00  0.00    +0.000 A 
ATOM      9  N   UNL     1       4.186   3.713  17.605  0.00  0.00    +0.000 N 
ATOM     10  C   UNL     1       3.337   2.890  18.300  0.00  0.00    +0.000 A 
ATOM     11  C   UNL     1       3.596   1.426  18.354  0.00  0.00    +0.000 C 
ATOM     12  C   UNL     1       2.332   3.686  18.830  0.00  0.00    +0.000 A 
ATOM     13  C   UNL     1       1.130   3.261  19.600  0.00  0.00    +0.000 C 
ATOM     14  C   UNL     1       2.643   5.045  18.493  0.00  0.00    +0.000 A 
ATOM     15  C   UNL     1       2.028   6.294  18.759  0.00  0.00    +0.000 A 
ATOM     16  H   UNL     1       4.987   3.399  17.073  0.00  0.00    +0.000 HD
ENDBRANCH   2   5
BRANCH   1  20
ATOM     17  C   UNL     1      -0.849  12.752  19.970  0.00  0.00    +0.000 A 
ATOM     18  C   UNL     1      -1.412  11.783  19.148  0.00  0.00    +0.000 A 
ATOM     19  C   UNL     1      -0.779  10.553  18.970  0.00  0.00    +0.000 A 
ATOM     20  C   UNL     1       0.445  10.274  19.585  0.00  0.00    +0.000 A 
ATOM     21  C   UNL     1       1.006  11.246  20.421  0.00  0.00    +0.000 A 
ATOM     22  C   UNL     1       0.367  12.487  20.602  0.00  0.00    +0.000 A 
BRANCH  17  24
ATOM     23  C   UNL     1      -2.667  13.912  20.931  0.00  0.00    +0.000 C 
ATOM     24  O   UNL     1      -1.556  13.919  20.046  0.00  0.00    +0.000 OA
ENDBRANCH  17  24
ENDBRANCH   1  20
TORSDOF 3
ENDMDL
MODEL 5
REMARK VINA RESULT:      -7.3      1.020      1.078
REMARK  Name = 
REMARK  6 active torsions:
REMARK  status: ('A' for Active; 'I' for Inactive)
REMARK    1  A    between atoms: C_1  and  O_2
REMARK    2  A    between atoms: O_2  and  C_3
REMARK    3  A    between atoms: C_6  and  N_7
REMARK    4  A    between atoms: C_8  and  C_10
REMARK    5  A    between atoms: C_15  and  C_16
REMARK    6  A    between atoms: C_17  and  C_18
REMARK                            x       y       z     vdW  Elec       q    Type
REMARK                         _______ _______ _______ _____ _____    ______ ____
ROOT
ATOM      1  N   UNL     1       1.666   8.254  19.707  0.00  0.00    +0.000 N 
ATOM      2  C   UNL     1       1.930   6.901  19.858  0.00  0.00    +0.000 C 
ATOM      3  O   UNL     1       1.540   6.193  20.788  0.00  0.00    +0.000 OA
ATOM      4  H   UNL     1       1.843   8.676  18.804  0.00  0.00    +0.000 HD
ENDROOT
BRANCH   2   5
ATOM      5  C   UNL     1       2.697   6.215  18.789  0.00  0.00    +0.000 A 
ATOM      6  C   UNL     1       2.179   4.992  18.340  0.00  0.00    +0.000 A 
ATOM      7  C   UNL     1       2.869   4.197  17.432  0.00  0.00    +0.000 A 
ATOM      8  C   UNL     1       4.104   4.665  16.988  0.00  0.00    +0.000 A 
ATOM      9  N   UNL     1       4.995   4.084  16.129  0.00  0.00    +0.000 N 
ATOM     10  C   UNL     1       6.101   4.876  15.957  0.00  0.00    +0.000 A 
ATOM     11  C   UNL     1       7.180   4.460  15.022  0.00  0.00    +0.000 C 
ATOM     12  C   UNL     1       5.949   5.981  16.783  0.00  0.00    +0.000 A 
ATOM     13  C   UNL     1       6.909   7.095  17.017  0.00  0.00    +0.000 C 
ATOM     14  C   UNL     1       4.665   5.869  17.413  0.00  0.00    +0.000 A 
ATOM     15  C   UNL     1       3.940   6.674  18.325  0.00  0.00    +0.000 A 
ATOM     16  H   UNL     1       4.855   3.185  15.686  0.00  0.00    +0.000 HD
ENDBRANCH   2   5
BRANCH   1  20
ATOM     17  C   UNL     1      -0.523  10.569  22.506  0.00  0.00    +0.000 A 
ATOM     18  C   UNL     1       0.374   9.605  22.950  0.00  0.00    +0.000 A 
ATOM     19  C   UNL     1       1.116   8.856  22.036  0.00  0.00    +0.000 A 
ATOM     20  C   UNL     1       0.957   9.032  20.659  0.00  0.00    +0.000 A 
ATOM     21  C   UNL     1       0.061  10.010  20.212  0.00  0.00    +0.000 A 
ATOM     22  C   UNL     1      -0.686  10.767  21.133  0.00  0.00    +0.000 A 
BRANCH  17  24
ATOM     23  C   UNL     1      -2.294  12.023  23.072  0.00  0.00    +0.000 C 
ATOM     24  O   UNL     1      -1.201  11.221  23.496  0.00  0.00    +0.000 OA
ENDBRANCH  17  24
ENDBRANCH   1  20
TORSDOF 3
ENDMDL
MODEL 6
REMARK VINA RESULT:      -7.2      2.491      8.631
REMARK  Name = 
REMARK  6 active torsions:
REMARK  status: ('A' for Active; 'I' for Inactive)
REMARK    1  A    between atoms: C_1  and  O_2
REMARK    2  A    between atoms: O_2  and  C_3
REMARK    3  A    between atoms: C_6  and  N_7
REMARK    4  A    between atoms: C_8  and  C_10
REMARK    5  A    between atoms: C_15  and  C_16
REMARK    6  A    between atoms: C_17  and  C_18
REMARK                            x       y       z     vdW  Elec       q    Type
REMARK                         _______ _______ _______ _____ _____    ______ ____
ROOT
ATOM      1  N   UNL     1       2.864   6.942  18.823  0.00  0.00    +0.000 N 
ATOM      2  C   UNL     1       2.250   8.131  18.456  0.00  0.00    +0.000 C 
ATOM      3  O   UNL     1       2.225   8.605  17.320  0.00  0.00    +0.000 OA
ATOM      4  H   UNL     1       2.632   6.545  19.724  0.00  0.00    +0.000 HD
ENDROOT
BRANCH   2   5
ATOM      5  C   UNL     1       1.506   8.883  19.497  0.00  0.00    +0.000 A 
ATOM      6  C   UNL     1       1.465   8.300  20.772  0.00  0.00    +0.000 A 
ATOM      7  C   UNL     1       0.699   8.844  21.797  0.00  0.00    +0.000 A 
ATOM      8  C   UNL     1      -0.033   9.993  21.503  0.00  0.00    +0.000 A 
ATOM      9  N   UNL     1      -0.880  10.712  22.301  0.00  0.00    +0.000 N 
ATOM     10  C   UNL     1      -1.406  11.781  21.623  0.00  0.00    +0.000 A 
ATOM     11  C   UNL     1      -2.318  12.729  22.317  0.00  0.00    +0.000 C 
ATOM     12  C   UNL     1      -0.933  11.716  20.320  0.00  0.00    +0.000 A 
ATOM     13  C   UNL     1      -1.272  12.602  19.172  0.00  0.00    +0.000 C 
ATOM     14  C   UNL     1      -0.032  10.603  20.249  0.00  0.00    +0.000 A 
ATOM     15  C   UNL     1       0.768  10.044  19.221  0.00  0.00    +0.000 A 
ATOM     16  H   UNL     1      -1.090  10.477  23.263  0.00  0.00    +0.000 HD
ENDBRANCH   2   5
BRANCH   1  20
ATOM     17  C   UNL     1       5.188   4.564  16.190  0.00  0.00    +0.000 A 
ATOM     18  C   UNL     1       4.079   4.019  16.824  0.00  0.00    +0.000 A 
ATOM     19  C   UNL     1       3.294   4.801  17.673  0.00  0.00    +0.000 A 
ATOM     20  C   UNL     1       3.618   6.136  17.931  0.00  0.00    +0.000 A 
ATOM     21  C   UNL     1       4.730   6.687  17.284  0.00  0.00    +0.000 A 
ATOM     22  C   UNL     1       5.520   5.900  16.427  0.00  0.00    +0.000 A 
BRANCH  17  24
ATOM     23  C   UNL     1       6.057   4.088  14.048  0.00  0.00    +0.000 C 
ATOM     24  O   UNL     1       5.883   3.692  15.401  0.00  0.00    +0.000 OA
ENDBRANCH  17  24
ENDBRANCH   1  20
TORSDOF 3
ENDMDL
MODEL 7
REMARK VINA RESULT:      -7.2      2.484      8.619
REMARK  Name = 
REMARK  6 active torsions:
REMARK  status: ('A' for Active; 'I' for Inactive)
REMARK    1  A    between atoms: C_1  and  O_2
REMARK    2  A    between atoms: O_2  and  C_3
REMARK    3  A    between atoms: C_6  and  N_7
REMARK    4  A    between atoms: C_8  and  C_10
REMARK    5  A    between atoms: C_15  and  C_16
REMARK    6  A    between atoms: C_17  and  C_18
REMARK                            x       y       z     vdW  Elec       q    Type
REMARK                         _______ _______ _______ _____ _____    ______ ____
ROOT
ATOM      1  N   UNL     1       2.837   6.947  18.895  0.00  0.00    +0.000 N 
ATOM      2  C   UNL     1       2.212   8.119  18.493  0.00  0.00    +0.000 C 
ATOM      3  O   UNL     1       2.181   8.557  17.343  0.00  0.00    +0.000 OA
ATOM      4  H   UNL     1       2.609   6.576  19.809  0.00  0.00    +0.000 HD
ENDROOT
BRANCH   2   5
ATOM      5  C   UNL     1       1.463   8.896  19.512  0.00  0.00    +0.000 A 
ATOM      6  C   UNL     1       1.397   8.335  20.795  0.00  0.00    +0.000 A 
ATOM      7  C   UNL     1       0.624   8.904  21.801  0.00  0.00    +0.000 A 
ATOM      8  C   UNL     1      -0.088  10.058  21.478  0.00  0.00    +0.000 A 
ATOM      9  N   UNL     1      -0.936  10.800  22.253  0.00  0.00    +0.000 N 
ATOM     10  C   UNL     1      -1.439  11.865  21.551  0.00  0.00    +0.000 A 
ATOM     11  C   UNL     1      -2.347  12.836  22.217  0.00  0.00    +0.000 C 
ATOM     12  C   UNL     1      -0.948  11.774  20.256  0.00  0.00    +0.000 A 
ATOM     13  C   UNL     1      -1.260  12.646  19.090  0.00  0.00    +0.000 C 
ATOM     14  C   UNL     1      -0.061  10.648  20.215  0.00  0.00    +0.000 A 
ATOM     15  C   UNL     1       0.745  10.063  19.208  0.00  0.00    +0.000 A 
ATOM     16  H   UNL     1      -1.163  10.583  23.215  0.00  0.00    +0.000 HD
ENDBRANCH   2   5
BRANCH   1  20
ATOM     17  C   UNL     1       5.033   4.446  16.267  0.00  0.00    +0.000 A 
ATOM     18  C   UNL     1       5.468   5.740  16.522  0.00  0.00    +0.000 A 
ATOM     19  C   UNL     1       4.765   6.561  17.404  0.00  0.00    +0.000 A 
ATOM     20  C   UNL     1       3.596   6.119  18.028  0.00  0.00    +0.000 A 
ATOM     21  C   UNL     1       3.163   4.812  17.779  0.00  0.00    +0.000 A 
ATOM     22  C   UNL     1       3.873   3.982  16.891  0.00  0.00    +0.000 A 
BRANCH  17  24
ATOM     23  C   UNL     1       6.639   4.534  14.540  0.00  0.00    +0.000 C 
ATOM     24  O   UNL     1       5.795   3.750  15.373  0.00  0.00    +0.000 OA
ENDBRANCH  17  24
ENDBRANCH   1  20
TORSDOF 3
ENDMDL
MODEL 8
REMARK VINA RESULT:      -7.2      2.271      8.633
REMARK  Name = 
REMARK  6 active torsions:
REMARK  status: ('A' for Active; 'I' for Inactive)
REMARK    1  A    between atoms: C_1  and  O_2
REMARK    2  A    between atoms: O_2  and  C_3
REMARK    3  A    between atoms: C_6  and  N_7
REMARK    4  A    between atoms: C_8  and  C_10
REMARK    5  A    between atoms: C_15  and  C_16
REMARK    6  A    between atoms: C_17  and  C_18
REMARK                            x       y       z     vdW  Elec       q    Type
REMARK                         _______ _______ _______ _____ _____    ______ ____
ROOT
ATOM      1  N   UNL     1       2.119   6.912  20.093  0.00  0.00    +0.000 N 
ATOM      2  C   UNL     1       1.770   8.184  19.662  0.00  0.00    +0.000 C 
ATOM      3  O   UNL     1       1.969   8.639  18.535  0.00  0.00    +0.000 OA
ATOM      4  H   UNL     1       1.711   6.574  20.955  0.00  0.00    +0.000 HD
ENDROOT
BRANCH   2   5
ATOM      5  C   UNL     1       1.043   9.068  20.607  0.00  0.00    +0.000 A 
ATOM      6  C   UNL     1       1.089   8.700  21.959  0.00  0.00    +0.000 A 
ATOM      7  C   UNL     1       0.348   9.374  22.924  0.00  0.00    +0.000 A 
ATOM      8  C   UNL     1      -0.447  10.433  22.488  0.00  0.00    +0.000 A 
ATOM      9  N   UNL     1      -1.286  11.240  23.205  0.00  0.00    +0.000 N 
ATOM     10  C   UNL     1      -1.892  12.165  22.393  0.00  0.00    +0.000 A 
ATOM     11  C   UNL     1      -2.811  13.180  22.973  0.00  0.00    +0.000 C 
ATOM     12  C   UNL     1      -1.478  11.906  21.094  0.00  0.00    +0.000 A 
ATOM     13  C   UNL     1      -1.911  12.580  19.838  0.00  0.00    +0.000 C 
ATOM     14  C   UNL     1      -0.532  10.830  21.154  0.00  0.00    +0.000 A 
ATOM     15  C   UNL     1       0.242  10.141  20.188  0.00  0.00    +0.000 A 
ATOM     16  H   UNL     1      -1.441  11.158  24.202  0.00  0.00    +0.000 HD
ENDBRANCH   2   5
BRANCH   1  20
ATOM     17  C   UNL     1       4.195   4.142  17.645  0.00  0.00    +0.000 A 
ATOM     18  C   UNL     1       4.868   4.820  18.654  0.00  0.00    +0.000 A 
ATOM     19  C   UNL     1       4.188   5.714  19.479  0.00  0.00    +0.000 A 
ATOM     20  C   UNL     1       2.827   5.975  19.297  0.00  0.00    +0.000 A 
ATOM     21  C   UNL     1       2.147   5.285  18.287  0.00  0.00    +0.000 A 
ATOM     22  C   UNL     1       2.833   4.380  17.455  0.00  0.00    +0.000 A 
BRANCH  17  24
ATOM     23  C   UNL     1       5.733   3.932  15.866  0.00  0.00    +0.000 C 
ATOM     24  O   UNL     1       4.976   3.309  16.894  0.00  0.00    +0.000 OA
ENDBRANCH  17  24
ENDBRANCH   1  20
TORSDOF 3
ENDMDL
MODEL 9
REMARK VINA RESULT:      -7.2      7.493      9.926
REMARK  Name = 
REMARK  6 active torsions:
REMARK  status: ('A' for Active; 'I' for Inactive)
REMARK    1  A    between atoms: C_1  and  O_2
REMARK    2  A    between atoms: O_2  and  C_3
REMARK    3  A    between atoms: C_6  and  N_7
REMARK    4  A    between atoms: C_8  and  C_10
REMARK    5  A    between atoms: C_15  and  C_16
REMARK    6  A    between atoms: C_17  and  C_18
REMARK                            x       y       z     vdW  Elec       q    Type
REMARK                         _______ _______ _______ _____ _____    ______ ____
ROOT
ATOM      1  N   UNL     1       8.353   9.303  17.589  0.00  0.00    +0.000 N 
ATOM      2  C   UNL     1       8.921  10.121  18.555  0.00  0.00    +0.000 C 
ATOM      3  O   UNL     1       9.056   9.838  19.746  0.00  0.00    +0.000 OA
ATOM      4  H   UNL     1       8.497   9.544  16.617  0.00  0.00    +0.000 HD
ENDROOT
BRANCH   2   5
ATOM      5  C   UNL     1       9.470  11.431  18.126  0.00  0.00    +0.000 A 
ATOM      6  C   UNL     1      10.817  11.441  17.736  0.00  0.00    +0.000 A 
ATOM      7  C   UNL     1      11.479  12.625  17.431  0.00  0.00    +0.000 A 
ATOM      8  C   UNL     1      10.747  13.806  17.533  0.00  0.00    +0.000 A 
ATOM      9  N   UNL     1      11.147  15.097  17.322  0.00  0.00    +0.000 N 
ATOM     10  C   UNL     1      10.114  15.973  17.535  0.00  0.00    +0.000 A 
ATOM     11  C   UNL     1      10.313  17.431  17.315  0.00  0.00    +0.000 C 
ATOM     12  C   UNL     1       9.023  15.229  17.960  0.00  0.00    +0.000 A 
ATOM     13  C   UNL     1       7.684  15.720  18.392  0.00  0.00    +0.000 C 
ATOM     14  C   UNL     1       9.409  13.848  17.926  0.00  0.00    +0.000 A 
ATOM     15  C   UNL     1       8.747  12.630  18.216  0.00  0.00    +0.000 A 
ATOM     16  H   UNL     1      12.084  15.365  17.051  0.00  0.00    +0.000 HD
ENDBRANCH   2   5
BRANCH   1  20
ATOM     17  C   UNL     1       6.625   5.502  18.335  0.00  0.00    +0.000 A 
ATOM     18  C   UNL     1       7.776   5.888  19.011  0.00  0.00    +0.000 A 
ATOM     19  C   UNL     1       8.337   7.146  18.789  0.00  0.00    +0.000 A 
ATOM     20  C   UNL     1       7.780   8.035  17.866  0.00  0.00    +0.000 A 
ATOM     21  C   UNL     1       6.614   7.650  17.193  0.00  0.00    +0.000 A 
ATOM     22  C   UNL     1       6.046   6.382  17.418  0.00  0.00    +0.000 A 
BRANCH  17  24
ATOM     23  C   UNL     1       4.912   4.160  19.248  0.00  0.00    +0.000 C 
ATOM     24  O   UNL     1       6.186   4.242  18.625  0.00  0.00    +0.000 OA
ENDBRANCH  17  24
ENDBRANCH   1  20
TORSDOF 3
ENDMDL
