MODEL 1
REMARK VINA RESULT:      -8.3      0.000      0.000
REMARK  Name = 
REMARK  5 active torsions:
REMARK  status: ('A' for Active; 'I' for Inactive)
REMARK    1  A    between atoms: N_1  and  C_2
REMARK    2  A    between atoms: C_2  and  N_4
REMARK    3  A    between atoms: C_6  and  C_7
REMARK    4  A    between atoms: C_12  and  O_13
REMARK    5  A    between atoms: C_15  and  C_16
REMARK                            x       y       z     vdW  Elec       q    Type
REMARK                         _______ _______ _______ _____ _____    ______ ____
ROOT
ATOM      1  N   UNL     1       6.945   5.902  17.295  0.00  0.00    +0.000 N 
ATOM      2  N   UNL     1       7.223   5.843  15.949  0.00  0.00    +0.000 NA
ATOM      3  C   UNL     1       6.515   4.876  15.442  0.00  0.00    +0.000 C 
ATOM      4  C   UNL     1       5.615   4.168  16.416  0.00  0.00    +0.000 C 
ATOM      5  C   UNL     1       5.949   4.906  17.704  0.00  0.00    +0.000 C 
ENDROOT
BRANCH   5   6
ATOM      6  C   UNL     1       4.715   5.539  18.327  0.00  0.00    +0.000 A 
ATOM      7  C   UNL     1       4.140   5.015  19.498  0.00  0.00    +0.000 A 
ATOM      8  C   UNL     1       3.012   5.607  20.069  0.00  0.00    +0.000 A 
ATOM      9  C   UNL     1       2.438   6.728  19.474  0.00  0.00    +0.000 A 
ATOM     10  C   UNL     1       2.995   7.252  18.309  0.00  0.00    +0.000 A 
ATOM     11 CL   UNL     1       2.281   8.630  17.566  0.00  0.00    +0.000 Cl
ATOM     12  C   UNL     1       4.128   6.670  17.737  0.00  0.00    +0.000 A 
ENDBRANCH   5   6
BRANCH   3  13
ATOM     13  C   UNL     1       6.607   4.484  14.008  0.00  0.00    +0.000 A 
ATOM     14  C   UNL     1       5.657   3.580  13.514  0.00  0.00    +0.000 A 
ATOM     15  C   UNL     1       5.676   3.182  12.174  0.00  0.00    +0.000 A 
ATOM     16  C   UNL     1       6.648   3.685  11.314  0.00  0.00    +0.000 A 
ATOM     17  C   UNL     1       7.601   4.585  11.791  0.00  0.00    +0.000 A 
ATOM     18  C   UNL     1       7.581   4.984  13.131  0.00  0.00    +0.000 A 
BRANCH  18  19
ATOM     19  O   UNL     1       8.533   5.867  13.558  0.00  0.00    +0.000 OA
ATOM     20  H   UNL     1       8.249   6.269  14.394  0.00  0.00    +0.000 HD
ENDBRANCH  18  19
ENDBRANCH   3  13
BRANCH   1  21
ATOM     21  C   UNL     1       7.619   6.782  18.118  0.00  0.00    +0.000 C 
ATOM     22  S   UNL     1       7.901   8.401  17.814  0.00  0.00    +0.000 S 
BRANCH  21  23
ATOM     23  N   UNL     1       8.071   6.270  19.300  0.00  0.00    +0.000 N 
ATOM     24  H   UNL     1       7.344   6.089  19.983  0.00  0.00    +0.000 HD
ATOM     25  H   UNL     1       8.910   6.675  19.690  0.00  0.00    +0.000 HD
ENDBRANCH  21  23
ENDBRANCH   1  21
TORSDOF 5
ENDMDL
MODEL 2
REMARK VINA RESULT:      -8.3      1.159      1.548
REMARK  Name = 
REMARK  5 active torsions:
REMARK  status: ('A' for Active; 'I' for Inactive)
REMARK    1  A    between atoms: N_1  and  C_2
REMARK    2  A    between atoms: C_2  and  N_4
REMARK    3  A    between atoms: C_6  and  C_7
REMARK    4  A    between atoms: C_12  and  O_13
REMARK    5  A    between atoms: C_15  and  C_16
REMARK                            x       y       z     vdW  Elec       q    Type
REMARK                         _______ _______ _______ _____ _____    ______ ____
ROOT
ATOM      1  N   UNL     1       6.952   5.864  17.265  0.00  0.00    +0.000 N 
ATOM      2  N   UNL     1       7.246   5.816  15.921  0.00  0.00    +0.000 NA
ATOM      3  C   UNL     1       6.549   4.850  15.399  0.00  0.00    +0.000 C 
ATOM      4  C   UNL     1       5.641   4.131  16.357  0.00  0.00    +0.000 C 
ATOM      5  C   UNL     1       5.956   4.860  17.655  0.00  0.00    +0.000 C 
ENDROOT
BRANCH   5   6
ATOM      6  C   UNL     1       4.713   5.483  18.268  0.00  0.00    +0.000 A 
ATOM      7  C   UNL     1       4.154   6.662  17.744  0.00  0.00    +0.000 A 
ATOM      8  C   UNL     1       3.007   7.223  18.307  0.00  0.00    +0.000 A 
ATOM      9  C   UNL     1       2.406   6.619  19.409  0.00  0.00    +0.000 A 
ATOM     10  C   UNL     1       2.955   5.455  19.942  0.00  0.00    +0.000 A 
ATOM     11 CL   UNL     1       2.219   4.713  21.310  0.00  0.00    +0.000 Cl
ATOM     12  C   UNL     1       4.097   4.883  19.378  0.00  0.00    +0.000 A 
ENDBRANCH   5   6
BRANCH   3  13
ATOM     13  C   UNL     1       6.658   4.470  13.963  0.00  0.00    +0.000 A 
ATOM     14  C   UNL     1       5.728   3.552  13.455  0.00  0.00    +0.000 A 
ATOM     15  C   UNL     1       5.765   3.164  12.113  0.00  0.00    +0.000 A 
ATOM     16  C   UNL     1       6.735   3.690  11.264  0.00  0.00    +0.000 A 
ATOM     17  C   UNL     1       7.669   4.603  11.755  0.00  0.00    +0.000 A 
ATOM     18  C   UNL     1       7.631   4.993  13.097  0.00  0.00    +0.000 A 
BRANCH  18  19
ATOM     19  O   UNL     1       8.564   5.889  13.538  0.00  0.00    +0.000 OA
ATOM     20  H   UNL     1       8.123   6.597  14.032  0.00  0.00    +0.000 HD
ENDBRANCH  18  19
ENDBRANCH   3  13
BRANCH   1  21
ATOM     21  C   UNL     1       7.613   6.741  18.102  0.00  0.00    +0.000 C 
ATOM     22  S   UNL     1       7.892   8.363  17.813  0.00  0.00    +0.000 S 
BRANCH  21  23
ATOM     23  N   UNL     1       8.052   6.222  19.286  0.00  0.00    +0.000 N 
ATOM     24  H   UNL     1       7.928   6.836  20.084  0.00  0.00    +0.000 HD
ATOM     25  H   UNL     1       8.934   5.731  19.279  0.00  0.00    +0.000 HD
ENDBRANCH  21  23
ENDBRANCH   1  21
TORSDOF 5
ENDMDL
MODEL 3
REMARK VINA RESULT:      -7.3      3.054      6.394
REMARK  Name = 
REMARK  5 active torsions:
REMARK  status: ('A' for Active; 'I' for Inactive)
REMARK    1  A    between atoms: N_1  and  C_2
REMARK    2  A    between atoms: C_2  and  N_4
REMARK    3  A    between atoms: C_6  and  C_7
REMARK    4  A    between atoms: C_12  and  O_13
REMARK    5  A    between atoms: C_15  and  C_16
REMARK                            x       y       z     vdW  Elec       q    Type
REMARK                         _______ _______ _______ _____ _____    ______ ____
ROOT
ATOM      1  N   UNL     1       6.024   5.585  18.089  0.00  0.00    +0.000 N 
ATOM      2  N   UNL     1       5.394   4.920  19.116  0.00  0.00    +0.000 NA
ATOM      3  C   UNL     1       4.163   4.708  18.753  0.00  0.00    +0.000 C 
ATOM      4  C   UNL     1       3.815   5.189  17.372  0.00  0.00    +0.000 C 
ATOM      5  C   UNL     1       5.138   5.806  16.940  0.00  0.00    +0.000 C 
ENDROOT
BRANCH   5   6
ATOM      6  C   UNL     1       5.668   5.168  15.666  0.00  0.00    +0.000 A 
ATOM      7  C   UNL     1       5.077   4.010  15.130  0.00  0.00    +0.000 A 
ATOM      8  C   UNL     1       5.565   3.436  13.955  0.00  0.00    +0.000 A 
ATOM      9  C   UNL     1       6.656   4.005  13.302  0.00  0.00    +0.000 A 
ATOM     10  C   UNL     1       7.254   5.148  13.829  0.00  0.00    +0.000 A 
ATOM     11 CL   UNL     1       8.609   5.847  13.030  0.00  0.00    +0.000 Cl
ATOM     12  C   UNL     1       6.766   5.733  14.998  0.00  0.00    +0.000 A 
ENDBRANCH   5   6
BRANCH   3  13
ATOM     13  C   UNL     1       3.166   4.057  19.648  0.00  0.00    +0.000 A 
ATOM     14  C   UNL     1       1.884   4.619  19.719  0.00  0.00    +0.000 A 
ATOM     15  C   UNL     1       0.896   4.050  20.526  0.00  0.00    +0.000 A 
ATOM     16  C   UNL     1       1.182   2.911  21.274  0.00  0.00    +0.000 A 
ATOM     17  C   UNL     1       2.453   2.340  21.215  0.00  0.00    +0.000 A 
ATOM     18  C   UNL     1       3.441   2.909  20.406  0.00  0.00    +0.000 A 
BRANCH  18  19
ATOM     19  O   UNL     1       4.674   2.320  20.377  0.00  0.00    +0.000 OA
ATOM     20  H   UNL     1       4.580   1.367  20.533  0.00  0.00    +0.000 HD
ENDBRANCH  18  19
ENDBRANCH   3  13
BRANCH   1  21
ATOM     21  C   UNL     1       7.326   6.024  18.224  0.00  0.00    +0.000 C 
ATOM     22  S   UNL     1       7.891   7.560  17.886  0.00  0.00    +0.000 S 
BRANCH  21  23
ATOM     23  N   UNL     1       8.219   5.110  18.703  0.00  0.00    +0.000 N 
ATOM     24  H   UNL     1       7.988   4.146  18.487  0.00  0.00    +0.000 HD
ATOM     25  H   UNL     1       8.566   5.249  19.641  0.00  0.00    +0.000 HD
ENDBRANCH  21  23
ENDBRANCH   1  21
TORSDOF 5
ENDMDL
MODEL 4
REMARK VINA RESULT:      -7.3      3.298      6.337
REMARK  Name = 
REMARK  5 active torsions:
REMARK  status: ('A' for Active; 'I' for Inactive)
REMARK    1  A    between atoms: N_1  and  C_2
REMARK    2  A    between atoms: C_2  and  N_4
REMARK    3  A    between atoms: C_6  and  C_7
REMARK    4  A    between atoms: C_12  and  O_13
REMARK    5  A    between atoms: C_15  and  C_16
REMARK                            x       y       z     vdW  Elec       q    Type
REMARK                         _______ _______ _______ _____ _____    ______ ____
ROOT
ATOM      1  N   UNL     1       6.032   5.136  17.740  0.00  0.00    +0.000 N 
ATOM      2  N   UNL     1       5.181   4.474  18.595  0.00  0.00    +0.000 NA
ATOM      3  C   UNL     1       3.979   4.564  18.106  0.00  0.00    +0.000 C 
ATOM      4  C   UNL     1       3.880   5.290  16.793  0.00  0.00    +0.000 C 
ATOM      5  C   UNL     1       5.333   5.685  16.572  0.00  0.00    +0.000 C 
ENDROOT
BRANCH   5   6
ATOM      6  C   UNL     1       5.873   5.137  15.261  0.00  0.00    +0.000 A 
ATOM      7  C   UNL     1       5.241   4.067  14.603  0.00  0.00    +0.000 A 
ATOM      8  C   UNL     1       5.738   3.575  13.395  0.00  0.00    +0.000 A 
ATOM      9  C   UNL     1       6.879   4.139  12.830  0.00  0.00    +0.000 A 
ATOM     10  C   UNL     1       7.519   5.195  13.477  0.00  0.00    +0.000 A 
ATOM     11 CL   UNL     1       8.935   5.886  12.786  0.00  0.00    +0.000 Cl
ATOM     12  C   UNL     1       7.022   5.698  14.681  0.00  0.00    +0.000 A 
ENDBRANCH   5   6
BRANCH   3  13
ATOM     13  C   UNL     1       2.787   4.008  18.803  0.00  0.00    +0.000 A 
ATOM     14  C   UNL     1       2.111   2.940  18.197  0.00  0.00    +0.000 A 
ATOM     15  C   UNL     1       0.994   2.362  18.805  0.00  0.00    +0.000 A 
ATOM     16  C   UNL     1       0.540   2.848  20.028  0.00  0.00    +0.000 A 
ATOM     17  C   UNL     1       1.201   3.910  20.644  0.00  0.00    +0.000 A 
ATOM     18  C   UNL     1       2.320   4.488  20.036  0.00  0.00    +0.000 A 
BRANCH  18  19
ATOM     19  O   UNL     1       2.938   5.528  20.672  0.00  0.00    +0.000 OA
ATOM     20  H   UNL     1       2.856   6.331  20.133  0.00  0.00    +0.000 HD
ENDBRANCH  18  19
ENDBRANCH   3  13
BRANCH   1  21
ATOM     21  C   UNL     1       7.370   5.283  18.047  0.00  0.00    +0.000 C 
ATOM     22  S   UNL     1       8.090   6.642  18.700  0.00  0.00    +0.000 S 
BRANCH  21  23
ATOM     23  N   UNL     1       8.161   4.196  17.810  0.00  0.00    +0.000 N 
ATOM     24  H   UNL     1       8.942   4.374  17.187  0.00  0.00    +0.000 HD
ATOM     25  H   UNL     1       7.700   3.312  17.648  0.00  0.00    +0.000 HD
ENDBRANCH  21  23
ENDBRANCH   1  21
TORSDOF 5
ENDMDL
MODEL 5
REMARK VINA RESULT:      -7.1      3.132      6.345
REMARK  Name = 
REMARK  5 active torsions:
REMARK  status: ('A' for Active; 'I' for Inactive)
REMARK    1  A    between atoms: N_1  and  C_2
REMARK    2  A    between atoms: C_2  and  N_4
REMARK    3  A    between atoms: C_6  and  C_7
REMARK    4  A    between atoms: C_12  and  O_13
REMARK    5  A    between atoms: C_15  and  C_16
REMARK                            x       y       z     vdW  Elec       q    Type
REMARK                         _______ _______ _______ _____ _____    ______ ____
ROOT
ATOM      1  N   UNL     1       6.072   5.123  17.815  0.00  0.00    +0.000 N 
ATOM      2  N   UNL     1       5.246   4.457  18.691  0.00  0.00    +0.000 NA
ATOM      3  C   UNL     1       4.032   4.541  18.231  0.00  0.00    +0.000 C 
ATOM      4  C   UNL     1       3.897   5.267  16.922  0.00  0.00    +0.000 C 
ATOM      5  C   UNL     1       5.342   5.669  16.665  0.00  0.00    +0.000 C 
ENDROOT
BRANCH   5   6
ATOM      6  C   UNL     1       5.853   5.123  15.341  0.00  0.00    +0.000 A 
ATOM      7  C   UNL     1       5.209   4.051  14.699  0.00  0.00    +0.000 A 
ATOM      8  C   UNL     1       5.678   3.561  13.479  0.00  0.00    +0.000 A 
ATOM      9  C   UNL     1       6.803   4.131  12.886  0.00  0.00    +0.000 A 
ATOM     10  C   UNL     1       7.453   5.189  13.517  0.00  0.00    +0.000 A 
ATOM     11 CL   UNL     1       8.849   5.888  12.792  0.00  0.00    +0.000 Cl
ATOM     12  C   UNL     1       6.984   5.690  14.733  0.00  0.00    +0.000 A 
ENDBRANCH   5   6
BRANCH   3  13
ATOM     13  C   UNL     1       2.860   3.980  18.958  0.00  0.00    +0.000 A 
ATOM     14  C   UNL     1       2.578   4.484  20.235  0.00  0.00    +0.000 A 
ATOM     15  C   UNL     1       1.484   4.012  20.965  0.00  0.00    +0.000 A 
ATOM     16  C   UNL     1       0.661   3.028  20.425  0.00  0.00    +0.000 A 
ATOM     17  C   UNL     1       0.929   2.515  19.156  0.00  0.00    +0.000 A 
ATOM     18  C   UNL     1       2.023   2.989  18.424  0.00  0.00    +0.000 A 
BRANCH  18  19
ATOM     19  O   UNL     1       2.251   2.460  17.185  0.00  0.00    +0.000 OA
ATOM     20  H   UNL     1       1.472   1.957  16.900  0.00  0.00    +0.000 HD
ENDBRANCH  18  19
ENDBRANCH   3  13
BRANCH   1  21
ATOM     21  C   UNL     1       7.416   5.277  18.089  0.00  0.00    +0.000 C 
ATOM     22  S   UNL     1       8.145   6.636  18.734  0.00  0.00    +0.000 S 
BRANCH  21  23
ATOM     23  N   UNL     1       8.209   4.197  17.823  0.00  0.00    +0.000 N 
ATOM     24  H   UNL     1       8.296   3.974  16.837  0.00  0.00    +0.000 HD
ATOM     25  H   UNL     1       8.107   3.389  18.420  0.00  0.00    +0.000 HD
ENDBRANCH  21  23
ENDBRANCH   1  21
TORSDOF 5
ENDMDL
MODEL 6
REMARK VINA RESULT:      -7.1      3.252      6.297
REMARK  Name = 
REMARK  5 active torsions:
REMARK  status: ('A' for Active; 'I' for Inactive)
REMARK    1  A    between atoms: N_1  and  C_2
REMARK    2  A    between atoms: C_2  and  N_4
REMARK    3  A    between atoms: C_6  and  C_7
REMARK    4  A    between atoms: C_12  and  O_13
REMARK    5  A    between atoms: C_15  and  C_16
REMARK                            x       y       z     vdW  Elec       q    Type
REMARK                         _______ _______ _______ _____ _____    ______ ____
ROOT
ATOM      1  N   UNL     1       6.051   5.143  17.661  0.00  0.00    +0.000 N 
ATOM      2  N   UNL     1       5.199   4.457  18.496  0.00  0.00    +0.000 NA
ATOM      3  C   UNL     1       4.001   4.547  17.998  0.00  0.00    +0.000 C 
ATOM      4  C   UNL     1       3.906   5.300  16.701  0.00  0.00    +0.000 C 
ATOM      5  C   UNL     1       5.358   5.711  16.500  0.00  0.00    +0.000 C 
ENDROOT
BRANCH   5   6
ATOM      6  C   UNL     1       5.913   5.195  15.182  0.00  0.00    +0.000 A 
ATOM      7  C   UNL     1       7.230   5.486  14.783  0.00  0.00    +0.000 A 
ATOM      8  C   UNL     1       7.736   5.001  13.576  0.00  0.00    +0.000 A 
ATOM      9  C   UNL     1       6.930   4.225  12.745  0.00  0.00    +0.000 A 
ATOM     10  C   UNL     1       5.621   3.938  13.126  0.00  0.00    +0.000 A 
ATOM     11 CL   UNL     1       4.621   2.989  12.096  0.00  0.00    +0.000 Cl
ATOM     12  C   UNL     1       5.112   4.411  14.337  0.00  0.00    +0.000 A 
ENDBRANCH   5   6
BRANCH   3  13
ATOM     13  C   UNL     1       2.808   3.967  18.674  0.00  0.00    +0.000 A 
ATOM     14  C   UNL     1       2.151   2.900  18.044  0.00  0.00    +0.000 A 
ATOM     15  C   UNL     1       1.035   2.300  18.632  0.00  0.00    +0.000 A 
ATOM     16  C   UNL     1       0.561   2.761  19.857  0.00  0.00    +0.000 A 
ATOM     17  C   UNL     1       1.202   3.823  20.496  0.00  0.00    +0.000 A 
ATOM     18  C   UNL     1       2.321   4.423  19.909  0.00  0.00    +0.000 A 
BRANCH  18  19
ATOM     19  O   UNL     1       2.920   5.460  20.567  0.00  0.00    +0.000 OA
ATOM     20  H   UNL     1       2.375   5.717  21.327  0.00  0.00    +0.000 HD
ENDBRANCH  18  19
ENDBRANCH   3  13
BRANCH   1  21
ATOM     21  C   UNL     1       7.385   5.296  17.983  0.00  0.00    +0.000 C 
ATOM     22  S   UNL     1       8.105   6.678  18.585  0.00  0.00    +0.000 S 
BRANCH  21  23
ATOM     23  N   UNL     1       8.173   4.194  17.808  0.00  0.00    +0.000 N 
ATOM     24  H   UNL     1       8.822   4.019  18.567  0.00  0.00    +0.000 HD
ATOM     25  H   UNL     1       8.564   4.045  16.889  0.00  0.00    +0.000 HD
ENDBRANCH  21  23
ENDBRANCH   1  21
TORSDOF 5
ENDMDL
MODEL 7
REMARK VINA RESULT:      -7.1      2.973      6.333
REMARK  Name = 
REMARK  5 active torsions:
REMARK  status: ('A' for Active; 'I' for Inactive)
REMARK    1  A    between atoms: N_1  and  C_2
REMARK    2  A    between atoms: C_2  and  N_4
REMARK    3  A    between atoms: C_6  and  C_7
REMARK    4  A    between atoms: C_12  and  O_13
REMARK    5  A    between atoms: C_15  and  C_16
REMARK                            x       y       z     vdW  Elec       q    Type
REMARK                         _______ _______ _______ _____ _____    ______ ____
ROOT
ATOM      1  N   UNL     1       5.977   5.755  18.086  0.00  0.00    +0.000 N 
ATOM      2  N   UNL     1       5.356   5.061  19.099  0.00  0.00    +0.000 NA
ATOM      3  C   UNL     1       4.154   4.768  18.698  0.00  0.00    +0.000 C 
ATOM      4  C   UNL     1       3.824   5.212  17.301  0.00  0.00    +0.000 C 
ATOM      5  C   UNL     1       5.119   5.908  16.906  0.00  0.00    +0.000 C 
ENDROOT
BRANCH   5   6
ATOM      6  C   UNL     1       5.732   5.293  15.658  0.00  0.00    +0.000 A 
ATOM      7  C   UNL     1       7.119   5.334  15.432  0.00  0.00    +0.000 A 
ATOM      8  C   UNL     1       7.676   4.760  14.288  0.00  0.00    +0.000 A 
ATOM      9  C   UNL     1       6.853   4.143  13.348  0.00  0.00    +0.000 A 
ATOM     10  C   UNL     1       5.476   4.103  13.558  0.00  0.00    +0.000 A 
ATOM     11 CL   UNL     1       4.457   3.350  12.393  0.00  0.00    +0.000 Cl
ATOM     12  C   UNL     1       4.914   4.667  14.704  0.00  0.00    +0.000 A 
ENDBRANCH   5   6
BRANCH   3  13
ATOM     13  C   UNL     1       3.170   4.064  19.566  0.00  0.00    +0.000 A 
ATOM     14  C   UNL     1       1.865   4.574  19.625  0.00  0.00    +0.000 A 
ATOM     15  C   UNL     1       0.888   3.952  20.407  0.00  0.00    +0.000 A 
ATOM     16  C   UNL     1       1.207   2.814  21.142  0.00  0.00    +0.000 A 
ATOM     17  C   UNL     1       2.501   2.295  21.096  0.00  0.00    +0.000 A 
ATOM     18  C   UNL     1       3.479   2.916  20.311  0.00  0.00    +0.000 A 
BRANCH  18  19
ATOM     19  O   UNL     1       4.734   2.376  20.293  0.00  0.00    +0.000 OA
ATOM     20  H   UNL     1       4.776   1.636  20.919  0.00  0.00    +0.000 HD
ENDBRANCH  18  19
ENDBRANCH   3  13
BRANCH   1  21
ATOM     21  C   UNL     1       7.243   6.277  18.260  0.00  0.00    +0.000 C 
ATOM     22  S   UNL     1       7.767   7.785  17.767  0.00  0.00    +0.000 S 
BRANCH  21  23
ATOM     23  N   UNL     1       8.134   5.480  18.921  0.00  0.00    +0.000 N 
ATOM     24  H   UNL     1       7.718   4.890  19.634  0.00  0.00    +0.000 HD
ATOM     25  H   UNL     1       9.014   5.894  19.192  0.00  0.00    +0.000 HD
ENDBRANCH  21  23
ENDBRANCH   1  21
TORSDOF 5
ENDMDL
MODEL 8
REMARK VINA RESULT:      -7.1      3.075      3.646
REMARK  Name = 
REMARK  5 active torsions:
REMARK  status: ('A' for Active; 'I' for Inactive)
REMARK    1  A    between atoms: N_1  and  C_2
REMARK    2  A    between atoms: C_2  and  N_4
REMARK    3  A    between atoms: C_6  and  C_7
REMARK    4  A    between atoms: C_12  and  O_13
REMARK    5  A    between atoms: C_15  and  C_16
REMARK                            x       y       z     vdW  Elec       q    Type
REMARK                         _______ _______ _______ _____ _____    ______ ____
ROOT
ATOM      1  N   UNL     1       3.779   5.996  17.982  0.00  0.00    +0.000 N 
ATOM      2  N   UNL     1       4.317   6.094  16.719  0.00  0.00    +0.000 NA
ATOM      3  C   UNL     1       4.997   5.008  16.494  0.00  0.00    +0.000 C 
ATOM      4  C   UNL     1       4.964   3.996  17.605  0.00  0.00    +0.000 C 
ATOM      5  C   UNL     1       4.112   4.724  18.634  0.00  0.00    +0.000 C 
ENDROOT
BRANCH   5   6
ATOM      6  C   UNL     1       2.875   3.924  19.011  0.00  0.00    +0.000 A 
ATOM      7  C   UNL     1       1.921   3.561  18.045  0.00  0.00    +0.000 A 
ATOM      8  C   UNL     1       0.792   2.818  18.397  0.00  0.00    +0.000 A 
ATOM      9  C   UNL     1       0.597   2.434  19.722  0.00  0.00    +0.000 A 
ATOM     10  C   UNL     1       1.533   2.796  20.689  0.00  0.00    +0.000 A 
ATOM     11 CL   UNL     1       1.288   2.332  22.328  0.00  0.00    +0.000 Cl
ATOM     12  C   UNL     1       2.668   3.531  20.343  0.00  0.00    +0.000 A 
ENDBRANCH   5   6
BRANCH   3  13
ATOM     13  C   UNL     1       5.768   4.792  15.239  0.00  0.00    +0.000 A 
ATOM     14  C   UNL     1       5.214   3.948  14.266  0.00  0.00    +0.000 A 
ATOM     15  C   UNL     1       5.878   3.715  13.059  0.00  0.00    +0.000 A 
ATOM     16  C   UNL     1       7.106   4.323  12.813  0.00  0.00    +0.000 A 
ATOM     17  C   UNL     1       7.671   5.165  13.772  0.00  0.00    +0.000 A 
ATOM     18  C   UNL     1       7.006   5.399  14.979  0.00  0.00    +0.000 A 
BRANCH  18  19
ATOM     19  O   UNL     1       7.594   6.229  15.892  0.00  0.00    +0.000 OA
ATOM     20  H   UNL     1       6.911   6.752  16.340  0.00  0.00    +0.000 HD
ENDBRANCH  18  19
ENDBRANCH   3  13
BRANCH   1  21
ATOM     21  C   UNL     1       3.073   7.047  18.533  0.00  0.00    +0.000 C 
ATOM     22  S   UNL     1       2.474   8.374  17.713  0.00  0.00    +0.000 S 
BRANCH  21  23
ATOM     23  N   UNL     1       2.830   6.966  19.875  0.00  0.00    +0.000 N 
ATOM     24  H   UNL     1       2.321   6.136  20.159  0.00  0.00    +0.000 HD
ATOM     25  H   UNL     1       2.533   7.810  20.344  0.00  0.00    +0.000 HD
ENDBRANCH  21  23
ENDBRANCH   1  21
TORSDOF 5
ENDMDL
MODEL 9
REMARK VINA RESULT:      -7.0      3.283      6.249
REMARK  Name = 
REMARK  5 active torsions:
REMARK  status: ('A' for Active; 'I' for Inactive)
REMARK    1  A    between atoms: N_1  and  C_2
REMARK    2  A    between atoms: C_2  and  N_4
REMARK    3  A    between atoms: C_6  and  C_7
REMARK    4  A    between atoms: C_12  and  O_13
REMARK    5  A    between atoms: C_15  and  C_16
REMARK                            x       y       z     vdW  Elec       q    Type
REMARK                         _______ _______ _______ _____ _____    ______ ____
ROOT
ATOM      1  N   UNL     1       6.106   4.981  17.406  0.00  0.00    +0.000 N 
ATOM      2  N   UNL     1       5.295   4.203  18.200  0.00  0.00    +0.000 NA
ATOM      3  C   UNL     1       4.113   4.182  17.657  0.00  0.00    +0.000 C 
ATOM      4  C   UNL     1       3.994   4.940  16.365  0.00  0.00    +0.000 C 
ATOM      5  C   UNL     1       5.404   5.494  16.224  0.00  0.00    +0.000 C 
ENDROOT
BRANCH   5   6
ATOM      6  C   UNL     1       6.057   5.053  14.924  0.00  0.00    +0.000 A 
ATOM      7  C   UNL     1       7.285   5.594  14.505  0.00  0.00    +0.000 A 
ATOM      8  C   UNL     1       7.882   5.178  13.314  0.00  0.00    +0.000 A 
ATOM      9  C   UNL     1       7.257   4.220  12.519  0.00  0.00    +0.000 A 
ATOM     10  C   UNL     1       6.035   3.683  12.920  0.00  0.00    +0.000 A 
ATOM     11 CL   UNL     1       5.255   2.508  11.934  0.00  0.00    +0.000 Cl
ATOM     12  C   UNL     1       5.436   4.088  14.115  0.00  0.00    +0.000 A 
ENDBRANCH   5   6
BRANCH   3  13
ATOM     13  C   UNL     1       2.958   3.479  18.280  0.00  0.00    +0.000 A 
ATOM     14  C   UNL     1       1.858   4.251  18.680  0.00  0.00    +0.000 A 
ATOM     15  C   UNL     1       0.735   3.652  19.257  0.00  0.00    +0.000 A 
ATOM     16  C   UNL     1       0.701   2.273  19.443  0.00  0.00    +0.000 A 
ATOM     17  C   UNL     1       1.788   1.491  19.052  0.00  0.00    +0.000 A 
ATOM     18  C   UNL     1       2.911   2.090  18.472  0.00  0.00    +0.000 A 
BRANCH  18  19
ATOM     19  O   UNL     1       3.955   1.288  18.104  0.00  0.00    +0.000 OA
ATOM     20  H   UNL     1       3.625   0.563  17.551  0.00  0.00    +0.000 HD
ENDBRANCH  18  19
ENDBRANCH   3  13
BRANCH   1  21
ATOM     21  C   UNL     1       7.405   5.258  17.780  0.00  0.00    +0.000 C 
ATOM     22  S   UNL     1       7.986   6.729  18.321  0.00  0.00    +0.000 S 
BRANCH  21  23
ATOM     23  N   UNL     1       8.282   4.213  17.720  0.00  0.00    +0.000 N 
ATOM     24  H   UNL     1       8.199   3.645  16.883  0.00  0.00    +0.000 HD
ATOM     25  H   UNL     1       8.428   3.681  18.565  0.00  0.00    +0.000 HD
ENDBRANCH  21  23
ENDBRANCH   1  21
TORSDOF 5
ENDMDL
