MODEL 1
REMARK VINA RESULT:      -7.1      0.000      0.000
REMARK  Name = 
REMARK  3 active torsions:
REMARK  status: ('A' for Active; 'I' for Inactive)
REMARK    1  A    between atoms: C_1  and  C_2
REMARK    2  A    between atoms: N_6  and  C_7
REMARK    3  A    between atoms: C_13  and  N_14
REMARK                            x       y       z     vdW  Elec       q    Type
REMARK                         _______ _______ _______ _____ _____    ______ ____
ROOT
ATOM      1  C   UNL     1       3.140   3.988  19.058  0.00  0.00    +0.000 A 
ATOM      2  C   UNL     1       1.815   4.412  19.309  0.00  0.00    +0.000 A 
ATOM      3  C   UNL     1       1.052   3.918  20.370  0.00  0.00    +0.000 A 
ATOM      4  C   UNL     1       1.618   3.003  21.234  0.00  0.00    +0.000 A 
ATOM      5  F   UNL     1       0.906   2.542  22.270  0.00  0.00    +0.000 F 
ATOM      6  C   UNL     1       2.915   2.554  21.039  0.00  0.00    +0.000 A 
ATOM      7  C   UNL     1       3.660   2.986  19.928  0.00  0.00    +0.000 A 
ENDROOT
BRANCH   1  13
ATOM      8  C   UNL     1       6.653   5.591  18.716  0.00  0.00    +0.000 C 
ATOM      9  C   UNL     1       5.694   6.181  17.677  0.00  0.00    +0.000 C 
ATOM     10  C   UNL     1       5.926   5.576  16.285  0.00  0.00    +0.000 C 
ATOM     11  C   UNL     1       5.467   4.124  16.212  0.00  0.00    +0.000 C 
ATOM     12  C   UNL     1       4.031   3.939  16.706  0.00  0.00    +0.000 C 
ATOM     13  N   UNL     1       3.845   4.580  18.010  0.00  0.00    +0.000 N 
ATOM     14  C   UNL     1       4.224   5.998  18.085  0.00  0.00    +0.000 C 
ENDBRANCH   1  13
BRANCH   7  15
ATOM     15  N   UNL     1       4.982   2.488  19.818  0.00  0.00    +0.000 N 
ATOM     16  H   UNL     1       5.547   2.983  19.138  0.00  0.00    +0.000 HD
ATOM     17  H   UNL     1       5.423   2.476  20.730  0.00  0.00    +0.000 HD
ENDBRANCH   7  15
TORSDOF 2
ENDMDL
MODEL 2
REMARK VINA RESULT:      -7.0      2.883      5.213
REMARK  Name = 
REMARK  3 active torsions:
REMARK  status: ('A' for Active; 'I' for Inactive)
REMARK    1  A    between atoms: C_1  and  C_2
REMARK    2  A    between atoms: N_6  and  C_7
REMARK    3  A    between atoms: C_13  and  N_14
REMARK                            x       y       z     vdW  Elec       q    Type
REMARK                         _______ _______ _______ _____ _____    ______ ____
ROOT
ATOM      1  C   UNL     1       4.149   5.290  18.448  0.00  0.00    +0.000 A 
ATOM      2  C   UNL     1       4.230   6.480  17.689  0.00  0.00    +0.000 A 
ATOM      3  C   UNL     1       5.418   6.924  17.104  0.00  0.00    +0.000 A 
ATOM      4  C   UNL     1       6.558   6.157  17.237  0.00  0.00    +0.000 A 
ATOM      5  F   UNL     1       7.697   6.557  16.657  0.00  0.00    +0.000 F 
ATOM      6  C   UNL     1       6.536   4.978  17.966  0.00  0.00    +0.000 A 
ATOM      7  C   UNL     1       5.365   4.568  18.625  0.00  0.00    +0.000 A 
ENDROOT
BRANCH   1  13
ATOM      8  C   UNL     1       2.251   1.916  18.649  0.00  0.00    +0.000 C 
ATOM      9  C   UNL     1       1.261   3.085  18.632  0.00  0.00    +0.000 C 
ATOM     10  C   UNL     1       0.711   3.382  20.034  0.00  0.00    +0.000 C 
ATOM     11  C   UNL     1       1.770   4.001  20.940  0.00  0.00    +0.000 C 
ATOM     12  C   UNL     1       2.450   5.214  20.301  0.00  0.00    +0.000 C 
ATOM     13  N   UNL     1       2.906   4.897  18.946  0.00  0.00    +0.000 N 
ATOM     14  C   UNL     1       1.885   4.357  18.037  0.00  0.00    +0.000 C 
ENDBRANCH   1  13
BRANCH   7  15
ATOM     15  N   UNL     1       5.430   3.342  19.333  0.00  0.00    +0.000 N 
ATOM     16  H   UNL     1       6.362   3.107  19.652  0.00  0.00    +0.000 HD
ATOM     17  H   UNL     1       4.766   3.351  20.098  0.00  0.00    +0.000 HD
ENDBRANCH   7  15
TORSDOF 2
ENDMDL
MODEL 3
REMARK VINA RESULT:      -6.9      1.585      2.334
REMARK  Name = 
REMARK  3 active torsions:
REMARK  status: ('A' for Active; 'I' for Inactive)
REMARK    1  A    between atoms: C_1  and  C_2
REMARK    2  A    between atoms: N_6  and  C_7
REMARK    3  A    between atoms: C_13  and  N_14
REMARK                            x       y       z     vdW  Elec       q    Type
REMARK                         _______ _______ _______ _____ _____    ______ ____
ROOT
ATOM      1  C   UNL     1       3.972   3.820  18.200  0.00  0.00    +0.000 A 
ATOM      2  C   UNL     1       2.802   4.427  17.689  0.00  0.00    +0.000 A 
ATOM      3  C   UNL     1       1.518   3.963  17.987  0.00  0.00    +0.000 A 
ATOM      4  C   UNL     1       1.376   2.891  18.844  0.00  0.00    +0.000 A 
ATOM      5  F   UNL     1       0.149   2.454  19.160  0.00  0.00    +0.000 F 
ATOM      6  C   UNL     1       2.488   2.259  19.379  0.00  0.00    +0.000 A 
ATOM      7  C   UNL     1       3.783   2.670  19.019  0.00  0.00    +0.000 A 
ENDROOT
BRANCH   1  13
ATOM      8  C   UNL     1       5.212   6.348  15.534  0.00  0.00    +0.000 C 
ATOM      9  C   UNL     1       6.358   5.430  15.974  0.00  0.00    +0.000 C 
ATOM     10  C   UNL     1       7.301   6.134  16.959  0.00  0.00    +0.000 C 
ATOM     11  C   UNL     1       6.648   6.342  18.322  0.00  0.00    +0.000 C 
ATOM     12  C   UNL     1       6.055   5.050  18.889  0.00  0.00    +0.000 C 
ATOM     13  N   UNL     1       5.209   4.388  17.894  0.00  0.00    +0.000 N 
ATOM     14  C   UNL     1       5.840   4.123  16.593  0.00  0.00    +0.000 C 
ENDBRANCH   1  13
BRANCH   7  15
ATOM     15  N   UNL     1       4.860   1.977  19.627  0.00  0.00    +0.000 N 
ATOM     16  H   UNL     1       4.761   1.871  20.629  0.00  0.00    +0.000 HD
ATOM     17  H   UNL     1       4.997   1.083  19.169  0.00  0.00    +0.000 HD
ENDBRANCH   7  15
TORSDOF 2
ENDMDL
MODEL 4
REMARK VINA RESULT:      -6.8      3.022      5.386
REMARK  Name = 
REMARK  3 active torsions:
REMARK  status: ('A' for Active; 'I' for Inactive)
REMARK    1  A    between atoms: C_1  and  C_2
REMARK    2  A    between atoms: N_6  and  C_7
REMARK    3  A    between atoms: C_13  and  N_14
REMARK                            x       y       z     vdW  Elec       q    Type
REMARK                         _______ _______ _______ _____ _____    ______ ____
ROOT
ATOM      1  C   UNL     1       5.277   5.373  17.900  0.00  0.00    +0.000 A 
ATOM      2  C   UNL     1       6.012   5.118  19.080  0.00  0.00    +0.000 A 
ATOM      3  C   UNL     1       7.214   5.765  19.377  0.00  0.00    +0.000 A 
ATOM      4  C   UNL     1       7.693   6.721  18.504  0.00  0.00    +0.000 A 
ATOM      5  F   UNL     1       8.830   7.369  18.791  0.00  0.00    +0.000 F 
ATOM      6  C   UNL     1       7.012   7.016  17.334  0.00  0.00    +0.000 A 
ATOM      7  C   UNL     1       5.845   6.311  16.990  0.00  0.00    +0.000 A 
ENDROOT
BRANCH   1  13
ATOM      8  C   UNL     1       3.772   2.030  19.161  0.00  0.00    +0.000 C 
ATOM      9  C   UNL     1       3.131   2.436  17.831  0.00  0.00    +0.000 C 
ATOM     10  C   UNL     1       1.737   3.045  18.037  0.00  0.00    +0.000 C 
ATOM     11  C   UNL     1       1.809   4.426  18.679  0.00  0.00    +0.000 C 
ATOM     12  C   UNL     1       2.762   5.366  17.938  0.00  0.00    +0.000 C 
ATOM     13  N   UNL     1       4.058   4.720  17.717  0.00  0.00    +0.000 N 
ATOM     14  C   UNL     1       4.015   3.415  17.042  0.00  0.00    +0.000 C 
ENDBRANCH   1  13
BRANCH   7  15
ATOM     15  N   UNL     1       5.206   6.690  15.784  0.00  0.00    +0.000 N 
ATOM     16  H   UNL     1       4.799   7.617  15.813  0.00  0.00    +0.000 HD
ATOM     17  H   UNL     1       5.850   6.591  15.007  0.00  0.00    +0.000 HD
ENDBRANCH   7  15
TORSDOF 2
ENDMDL
MODEL 5
REMARK VINA RESULT:      -6.8      1.087      1.994
REMARK  Name = 
REMARK  3 active torsions:
REMARK  status: ('A' for Active; 'I' for Inactive)
REMARK    1  A    between atoms: C_1  and  C_2
REMARK    2  A    between atoms: N_6  and  C_7
REMARK    3  A    between atoms: C_13  and  N_14
REMARK                            x       y       z     vdW  Elec       q    Type
REMARK                         _______ _______ _______ _____ _____    ______ ____
ROOT
ATOM      1  C   UNL     1       4.249   4.214  19.069  0.00  0.00    +0.000 A 
ATOM      2  C   UNL     1       3.147   5.099  19.111  0.00  0.00    +0.000 A 
ATOM      3  C   UNL     1       1.971   4.810  19.808  0.00  0.00    +0.000 A 
ATOM      4  C   UNL     1       1.886   3.630  20.518  0.00  0.00    +0.000 A 
ATOM      5  F   UNL     1       0.775   3.354  21.213  0.00  0.00    +0.000 F 
ATOM      6  C   UNL     1       2.938   2.727  20.518  0.00  0.00    +0.000 A 
ATOM      7  C   UNL     1       4.091   2.974  19.754  0.00  0.00    +0.000 A 
ENDROOT
BRANCH   1  13
ATOM      8  C   UNL     1       4.962   6.559  16.066  0.00  0.00    +0.000 C 
ATOM      9  C   UNL     1       6.060   5.497  16.186  0.00  0.00    +0.000 C 
ATOM     10  C   UNL     1       7.332   6.068  16.827  0.00  0.00    +0.000 C 
ATOM     11  C   UNL     1       7.140   6.358  18.312  0.00  0.00    +0.000 C 
ATOM     12  C   UNL     1       6.581   5.155  19.075  0.00  0.00    +0.000 C 
ATOM     13  N   UNL     1       5.403   4.613  18.395  0.00  0.00    +0.000 N 
ATOM     14  C   UNL     1       5.585   4.269  16.978  0.00  0.00    +0.000 C 
ENDBRANCH   1  13
BRANCH   7  15
ATOM     15  N   UNL     1       5.121   2.003  19.826  0.00  0.00    +0.000 N 
ATOM     16  H   UNL     1       5.481   1.863  20.761  0.00  0.00    +0.000 HD
ATOM     17  H   UNL     1       4.804   1.133  19.413  0.00  0.00    +0.000 HD
ENDBRANCH   7  15
TORSDOF 2
ENDMDL
MODEL 6
REMARK VINA RESULT:      -6.8      1.907      2.618
REMARK  Name = 
REMARK  3 active torsions:
REMARK  status: ('A' for Active; 'I' for Inactive)
REMARK    1  A    between atoms: C_1  and  C_2
REMARK    2  A    between atoms: N_6  and  C_7
REMARK    3  A    between atoms: C_13  and  N_14
REMARK                            x       y       z     vdW  Elec       q    Type
REMARK                         _______ _______ _______ _____ _____    ______ ____
ROOT
ATOM      1  C   UNL     1       3.709   4.611  18.502  0.00  0.00    +0.000 A 
ATOM      2  C   UNL     1       3.602   3.565  17.558  0.00  0.00    +0.000 A 
ATOM      3  C   UNL     1       2.568   2.626  17.583  0.00  0.00    +0.000 A 
ATOM      4  C   UNL     1       1.585   2.738  18.546  0.00  0.00    +0.000 A 
ATOM      5  F   UNL     1       0.573   1.861  18.564  0.00  0.00    +0.000 F 
ATOM      6  C   UNL     1       1.635   3.747  19.494  0.00  0.00    +0.000 A 
ATOM      7  C   UNL     1       2.716   4.646  19.524  0.00  0.00    +0.000 A 
ENDROOT
BRANCH   1  13
ATOM      8  C   UNL     1       7.408   4.391  17.364  0.00  0.00    +0.000 C 
ATOM      9  C   UNL     1       7.211   5.578  18.312  0.00  0.00    +0.000 C 
ATOM     10  C   UNL     1       7.142   6.908  17.548  0.00  0.00    +0.000 C 
ATOM     11  C   UNL     1       5.847   7.041  16.754  0.00  0.00    +0.000 C 
ATOM     12  C   UNL     1       4.606   6.786  17.612  0.00  0.00    +0.000 C 
ATOM     13  N   UNL     1       4.744   5.536  18.363  0.00  0.00    +0.000 N 
ATOM     14  C   UNL     1       5.957   5.414  19.184  0.00  0.00    +0.000 C 
ENDBRANCH   1  13
BRANCH   7  15
ATOM     15  N   UNL     1       2.676   5.654  20.518  0.00  0.00    +0.000 N 
ATOM     16  H   UNL     1       2.040   5.450  21.279  0.00  0.00    +0.000 HD
ATOM     17  H   UNL     1       3.613   5.842  20.857  0.00  0.00    +0.000 HD
ENDBRANCH   7  15
TORSDOF 2
ENDMDL
MODEL 7
REMARK VINA RESULT:      -6.7      3.038      5.395
REMARK  Name = 
REMARK  3 active torsions:
REMARK  status: ('A' for Active; 'I' for Inactive)
REMARK    1  A    between atoms: C_1  and  C_2
REMARK    2  A    between atoms: N_6  and  C_7
REMARK    3  A    between atoms: C_13  and  N_14
REMARK                            x       y       z     vdW  Elec       q    Type
REMARK                         _______ _______ _______ _____ _____    ______ ____
ROOT
ATOM      1  C   UNL     1       5.127   4.305  17.811  0.00  0.00    +0.000 A 
ATOM      2  C   UNL     1       4.718   4.064  16.479  0.00  0.00    +0.000 A 
ATOM      3  C   UNL     1       5.564   4.253  15.383  0.00  0.00    +0.000 A 
ATOM      4  C   UNL     1       6.865   4.656  15.602  0.00  0.00    +0.000 A 
ATOM      5  F   UNL     1       7.694   4.814  14.562  0.00  0.00    +0.000 F 
ATOM      6  C   UNL     1       7.323   4.902  16.888  0.00  0.00    +0.000 A 
ATOM      7  C   UNL     1       6.454   4.793  17.987  0.00  0.00    +0.000 A 
ENDROOT
BRANCH   1  13
ATOM      8  C   UNL     1       1.263   4.141  18.082  0.00  0.00    +0.000 C 
ATOM      9  C   UNL     1       1.879   4.485  19.442  0.00  0.00    +0.000 C 
ATOM     10  C   UNL     1       1.913   3.266  20.373  0.00  0.00    +0.000 C 
ATOM     11  C   UNL     1       2.939   2.232  19.920  0.00  0.00    +0.000 C 
ATOM     12  C   UNL     1       4.323   2.843  19.693  0.00  0.00    +0.000 C 
ATOM     13  N   UNL     1       4.231   4.033  18.846  0.00  0.00    +0.000 N 
ATOM     14  C   UNL     1       3.293   5.070  19.299  0.00  0.00    +0.000 C 
ENDBRANCH   1  13
BRANCH   7  15
ATOM     15  N   UNL     1       7.012   5.048  19.265  0.00  0.00    +0.000 N 
ATOM     16  H   UNL     1       7.407   4.226  19.707  0.00  0.00    +0.000 HD
ATOM     17  H   UNL     1       7.690   5.799  19.201  0.00  0.00    +0.000 HD
ENDBRANCH   7  15
TORSDOF 2
ENDMDL
MODEL 8
REMARK VINA RESULT:      -6.6      1.853      2.231
REMARK  Name = 
REMARK  3 active torsions:
REMARK  status: ('A' for Active; 'I' for Inactive)
REMARK    1  A    between atoms: C_1  and  C_2
REMARK    2  A    between atoms: N_6  and  C_7
REMARK    3  A    between atoms: C_13  and  N_14
REMARK                            x       y       z     vdW  Elec       q    Type
REMARK                         _______ _______ _______ _____ _____    ______ ____
ROOT
ATOM      1  C   UNL     1       3.839   4.521  18.352  0.00  0.00    +0.000 A 
ATOM      2  C   UNL     1       2.562   4.852  17.844  0.00  0.00    +0.000 A 
ATOM      3  C   UNL     1       1.474   3.978  17.905  0.00  0.00    +0.000 A 
ATOM      4  C   UNL     1       1.633   2.751  18.518  0.00  0.00    +0.000 A 
ATOM      5  F   UNL     1       0.591   1.915  18.608  0.00  0.00    +0.000 F 
ATOM      6  C   UNL     1       2.861   2.375  19.039  0.00  0.00    +0.000 A 
ATOM      7  C   UNL     1       3.980   3.216  18.908  0.00  0.00    +0.000 A 
ENDROOT
BRANCH   1  13
ATOM      8  C   UNL     1       7.630   4.423  17.548  0.00  0.00    +0.000 C 
ATOM      9  C   UNL     1       7.309   5.607  18.466  0.00  0.00    +0.000 C 
ATOM     10  C   UNL     1       7.264   6.930  17.689  0.00  0.00    +0.000 C 
ATOM     11  C   UNL     1       6.040   7.015  16.782  0.00  0.00    +0.000 C 
ATOM     12  C   UNL     1       4.737   6.721  17.529  0.00  0.00    +0.000 C 
ATOM     13  N   UNL     1       4.850   5.480  18.298  0.00  0.00    +0.000 N 
ATOM     14  C   UNL     1       5.989   5.403  19.225  0.00  0.00    +0.000 C 
ENDBRANCH   1  13
BRANCH   7  15
ATOM     15  N   UNL     1       5.191   2.757  19.484  0.00  0.00    +0.000 N 
ATOM     16  H   UNL     1       5.456   3.256  20.324  0.00  0.00    +0.000 HD
ATOM     17  H   UNL     1       5.138   1.758  19.646  0.00  0.00    +0.000 HD
ENDBRANCH   7  15
TORSDOF 2
ENDMDL
MODEL 9
REMARK VINA RESULT:      -6.6      3.039      5.612
REMARK  Name = 
REMARK  3 active torsions:
REMARK  status: ('A' for Active; 'I' for Inactive)
REMARK    1  A    between atoms: C_1  and  C_2
REMARK    2  A    between atoms: N_6  and  C_7
REMARK    3  A    between atoms: C_13  and  N_14
REMARK                            x       y       z     vdW  Elec       q    Type
REMARK                         _______ _______ _______ _____ _____    ______ ____
ROOT
ATOM      1  C   UNL     1       3.840   4.955  17.515  0.00  0.00    +0.000 A 
ATOM      2  C   UNL     1       4.484   3.810  16.993  0.00  0.00    +0.000 A 
ATOM      3  C   UNL     1       5.545   3.887  16.086  0.00  0.00    +0.000 A 
ATOM      4  C   UNL     1       6.013   5.129  15.707  0.00  0.00    +0.000 A 
ATOM      5  F   UNL     1       7.048   5.215  14.860  0.00  0.00    +0.000 F 
ATOM      6  C   UNL     1       5.424   6.286  16.191  0.00  0.00    +0.000 A 
ATOM      7  C   UNL     1       4.305   6.216  17.038  0.00  0.00    +0.000 A 
ENDROOT
BRANCH   1  13
ATOM      8  C   UNL     1       1.898   1.890  18.878  0.00  0.00    +0.000 C 
ATOM      9  C   UNL     1       1.051   3.160  19.010  0.00  0.00    +0.000 C 
ATOM     10  C   UNL     1       1.052   3.694  20.449  0.00  0.00    +0.000 C 
ATOM     11  C   UNL     1       2.404   4.287  20.834  0.00  0.00    +0.000 C 
ATOM     12  C   UNL     1       2.901   5.319  19.819  0.00  0.00    +0.000 C 
ATOM     13  N   UNL     1       2.827   4.782  18.459  0.00  0.00    +0.000 N 
ATOM     14  C   UNL     1       1.516   4.262  18.046  0.00  0.00    +0.000 C 
ENDBRANCH   1  13
BRANCH   7  15
ATOM     15  N   UNL     1       3.777   7.449  17.496  0.00  0.00    +0.000 N 
ATOM     16  H   UNL     1       4.340   7.890  18.213  0.00  0.00    +0.000 HD
ATOM     17  H   UNL     1       3.620   8.069  16.710  0.00  0.00    +0.000 HD
ENDBRANCH   7  15
TORSDOF 2
ENDMDL
