MODEL 1
REMARK VINA RESULT:      -9.1      0.000      0.000
REMARK  Name = 
REMARK  4 active torsions:
REMARK  status: ('A' for Active; 'I' for Inactive)
REMARK    1  A    between atoms: C_10  and  C_11
REMARK    2  A    between atoms: C_14  and  C_15
REMARK    3  A    between atoms: N_24  and  C_25
REMARK    4  A    between atoms: C_25  and  C_26
REMARK                            x       y       z     vdW  Elec       q    Type
REMARK                         _______ _______ _______ _____ _____    ______ ____
ROOT
ATOM      1  O   UNL     1       5.342   2.674  19.575  0.00  0.00    +0.000 OA
ATOM      2  C   UNL     1       4.766   3.700  19.221  0.00  0.00    +0.000 A 
ATOM      3  C   UNL     1       3.373   3.939  19.688  0.00  0.00    +0.000 A 
ATOM      4  C   UNL     1       2.737   2.938  20.438  0.00  0.00    +0.000 A 
ATOM      5  C   UNL     1       1.419   3.104  20.857  0.00  0.00    +0.000 A 
ATOM      6  C   UNL     1       0.720   4.250  20.494  0.00  0.00    +0.000 A 
ATOM      7  C   UNL     1       1.336   5.239  19.720  0.00  0.00    +0.000 A 
ATOM      8  C   UNL     1       2.682   5.115  19.360  0.00  0.00    +0.000 A 
ATOM      9  N   UNL     1       3.401   6.096  18.644  0.00  0.00    +0.000 N 
ATOM     10  C   UNL     1       3.144   7.417  18.279  0.00  0.00    +0.000 A 
ATOM     11  N   UNL     1       4.112   7.811  17.463  0.00  0.00    +0.000 NA
ATOM     12  N   UNL     1       5.056   6.828  17.384  0.00  0.00    +0.000 NA
ATOM     13  C   UNL     1       4.655   5.825  18.128  0.00  0.00    +0.000 A 
ATOM     14  N   UNL     1       5.340   4.645  18.380  0.00  0.00    +0.000 N 
ENDROOT
BRANCH  10  15
ATOM     15  C   UNL     1       2.038   8.297  18.669  0.00  0.00    +0.000 A 
ATOM     16  C   UNL     1       1.250   8.983  17.735  0.00  0.00    +0.000 A 
ATOM     17  C   UNL     1       0.288   9.909  18.157  0.00  0.00    +0.000 A 
ATOM     18  C   UNL     1       0.031  10.104  19.521  0.00  0.00    +0.000 A 
ATOM     19  C   UNL     1       0.723   9.318  20.451  0.00  0.00    +0.000 A 
ATOM     20  C   UNL     1       1.717   8.429  20.028  0.00  0.00    +0.000 A 
BRANCH  18  21
ATOM     21  C   UNL     1      -0.970  11.132  19.987  0.00  0.00    +0.000 C 
ATOM     22  F   UNL     1      -2.156  11.074  19.317  0.00  0.00    +0.000 F 
ATOM     23  F   UNL     1      -1.277  11.007  21.306  0.00  0.00    +0.000 F 
ATOM     24  F   UNL     1      -0.518  12.407  19.823  0.00  0.00    +0.000 F 
ENDBRANCH  18  21
ENDBRANCH  10  15
BRANCH  14  25
ATOM     25  C   UNL     1       6.611   4.348  17.730  0.00  0.00    +0.000 C 
BRANCH  25  26
ATOM     26  C   UNL     1       6.470   4.349  16.222  0.00  0.00    +0.000 A 
ATOM     27  C   UNL     1       5.464   3.596  15.603  0.00  0.00    +0.000 A 
ATOM     28  C   UNL     1       5.389   3.521  14.211  0.00  0.00    +0.000 A 
ATOM     29  C   UNL     1       6.320   4.198  13.424  0.00  0.00    +0.000 A 
ATOM     30  C   UNL     1       7.315   4.963  14.028  0.00  0.00    +0.000 A 
ATOM     31  C   UNL     1       7.391   5.039  15.420  0.00  0.00    +0.000 A 
ENDBRANCH  25  26
ENDBRANCH  14  25
TORSDOF 4
ENDMDL
MODEL 2
REMARK VINA RESULT:      -8.5      0.332      1.414
REMARK  Name = 
REMARK  4 active torsions:
REMARK  status: ('A' for Active; 'I' for Inactive)
REMARK    1  A    between atoms: C_10  and  C_11
REMARK    2  A    between atoms: C_14  and  C_15
REMARK    3  A    between atoms: N_24  and  C_25
REMARK    4  A    between atoms: C_25  and  C_26
REMARK                            x       y       z     vdW  Elec       q    Type
REMARK                         _______ _______ _______ _____ _____    ______ ____
ROOT
ATOM      1  O   UNL     1       5.329   2.715  19.657  0.00  0.00    +0.000 OA
ATOM      2  C   UNL     1       4.779   3.746  19.276  0.00  0.00    +0.000 A 
ATOM      3  C   UNL     1       3.385   4.023  19.722  0.00  0.00    +0.000 A 
ATOM      4  C   UNL     1       2.720   3.050  20.483  0.00  0.00    +0.000 A 
ATOM      5  C   UNL     1       1.400   3.251  20.883  0.00  0.00    +0.000 A 
ATOM      6  C   UNL     1       0.730   4.404  20.490  0.00  0.00    +0.000 A 
ATOM      7  C   UNL     1       1.376   5.365  19.704  0.00  0.00    +0.000 A 
ATOM      8  C   UNL     1       2.723   5.206  19.363  0.00  0.00    +0.000 A 
ATOM      9  N   UNL     1       3.471   6.158  18.637  0.00  0.00    +0.000 N 
ATOM     10  C   UNL     1       3.246   7.477  18.243  0.00  0.00    +0.000 A 
ATOM     11  N   UNL     1       4.232   7.834  17.432  0.00  0.00    +0.000 NA
ATOM     12  N   UNL     1       5.156   6.831  17.383  0.00  0.00    +0.000 NA
ATOM     13  C   UNL     1       4.725   5.851  18.142  0.00  0.00    +0.000 A 
ATOM     14  N   UNL     1       5.382   4.662  18.424  0.00  0.00    +0.000 N 
ENDROOT
BRANCH  10  15
ATOM     15  C   UNL     1       2.154   8.387  18.603  0.00  0.00    +0.000 A 
ATOM     16  C   UNL     1       1.768   8.617  19.931  0.00  0.00    +0.000 A 
ATOM     17  C   UNL     1       0.639   9.395  20.220  0.00  0.00    +0.000 A 
ATOM     18  C   UNL     1      -0.074  10.031  19.195  0.00  0.00    +0.000 A 
ATOM     19  C   UNL     1       0.395   9.913  17.880  0.00  0.00    +0.000 A 
ATOM     20  C   UNL     1       1.493   9.096  17.589  0.00  0.00    +0.000 A 
BRANCH  18  21
ATOM     21  C   UNL     1      -1.317  10.833  19.491  0.00  0.00    +0.000 C 
ATOM     22  F   UNL     1      -1.216  12.142  19.123  0.00  0.00    +0.000 F 
ATOM     23  F   UNL     1      -2.418  10.348  18.856  0.00  0.00    +0.000 F 
ATOM     24  F   UNL     1      -1.621  10.846  20.819  0.00  0.00    +0.000 F 
ENDBRANCH  18  21
ENDBRANCH  10  15
BRANCH  14  25
ATOM     25  C   UNL     1       6.654   4.326  17.795  0.00  0.00    +0.000 C 
BRANCH  25  26
ATOM     26  C   UNL     1       6.521   4.259  16.289  0.00  0.00    +0.000 A 
ATOM     27  C   UNL     1       7.422   4.948  15.465  0.00  0.00    +0.000 A 
ATOM     28  C   UNL     1       7.247   4.964  14.081  0.00  0.00    +0.000 A 
ATOM     29  C   UNL     1       6.170   4.293  13.504  0.00  0.00    +0.000 A 
ATOM     30  C   UNL     1       5.276   3.591  14.311  0.00  0.00    +0.000 A 
ATOM     31  C   UNL     1       5.450   3.573  15.696  0.00  0.00    +0.000 A 
ENDBRANCH  25  26
ENDBRANCH  14  25
TORSDOF 4
ENDMDL
MODEL 3
REMARK VINA RESULT:      -8.5      4.994      9.992
REMARK  Name = 
REMARK  4 active torsions:
REMARK  status: ('A' for Active; 'I' for Inactive)
REMARK    1  A    between atoms: C_10  and  C_11
REMARK    2  A    between atoms: C_14  and  C_15
REMARK    3  A    between atoms: N_24  and  C_25
REMARK    4  A    between atoms: C_25  and  C_26
REMARK                            x       y       z     vdW  Elec       q    Type
REMARK                         _______ _______ _______ _____ _____    ______ ____
ROOT
ATOM      1  O   UNL     1      -1.775  13.872  19.950  0.00  0.00    +0.000 OA
ATOM      2  C   UNL     1      -1.252  12.779  20.154  0.00  0.00    +0.000 A 
ATOM      3  C   UNL     1      -1.310  11.744  19.085  0.00  0.00    +0.000 A 
ATOM      4  C   UNL     1      -2.042  12.024  17.922  0.00  0.00    +0.000 A 
ATOM      5  C   UNL     1      -2.157  11.066  16.916  0.00  0.00    +0.000 A 
ATOM      6  C   UNL     1      -1.577   9.814  17.089  0.00  0.00    +0.000 A 
ATOM      7  C   UNL     1      -0.872   9.515  18.259  0.00  0.00    +0.000 A 
ATOM      8  C   UNL     1      -0.687  10.496  19.239  0.00  0.00    +0.000 A 
ATOM      9  N   UNL     1       0.070  10.305  20.416  0.00  0.00    +0.000 N 
ATOM     10  C   UNL     1       0.942   9.311  20.860  0.00  0.00    +0.000 A 
ATOM     11  N   UNL     1       1.243   9.569  22.125  0.00  0.00    +0.000 NA
ATOM     12  N   UNL     1       0.692  10.766  22.481  0.00  0.00    +0.000 NA
ATOM     13  C   UNL     1       0.034  11.228  21.444  0.00  0.00    +0.000 A 
ATOM     14  N   UNL     1      -0.628  12.444  21.349  0.00  0.00    +0.000 N 
ENDROOT
BRANCH  10  15
ATOM     15  C   UNL     1       1.486   8.154  20.141  0.00  0.00    +0.000 A 
ATOM     16  C   UNL     1       2.089   8.263  18.880  0.00  0.00    +0.000 A 
ATOM     17  C   UNL     1       2.480   7.117  18.177  0.00  0.00    +0.000 A 
ATOM     18  C   UNL     1       2.357   5.845  18.754  0.00  0.00    +0.000 A 
ATOM     19  C   UNL     1       1.881   5.750  20.068  0.00  0.00    +0.000 A 
ATOM     20  C   UNL     1       1.446   6.892  20.750  0.00  0.00    +0.000 A 
BRANCH  18  21
ATOM     21  C   UNL     1       2.731   4.601  17.987  0.00  0.00    +0.000 C 
ATOM     22  F   UNL     1       3.626   4.833  16.984  0.00  0.00    +0.000 F 
ATOM     23  F   UNL     1       3.291   3.645  18.776  0.00  0.00    +0.000 F 
ATOM     24  F   UNL     1       1.655   4.016  17.391  0.00  0.00    +0.000 F 
ENDBRANCH  18  21
ENDBRANCH  10  15
BRANCH  14  25
ATOM     25  C   UNL     1      -0.737  13.344  22.492  0.00  0.00    +0.000 C 
BRANCH  25  26
ATOM     26  C   UNL     1      -2.139  13.337  23.063  0.00  0.00    +0.000 A 
ATOM     27  C   UNL     1      -2.855  14.534  23.201  0.00  0.00    +0.000 A 
ATOM     28  C   UNL     1      -4.110  14.543  23.812  0.00  0.00    +0.000 A 
ATOM     29  C   UNL     1      -4.662  13.356  24.292  0.00  0.00    +0.000 A 
ATOM     30  C   UNL     1      -3.967  12.158  24.147  0.00  0.00    +0.000 A 
ATOM     31  C   UNL     1      -2.712  12.146  23.535  0.00  0.00    +0.000 A 
ENDBRANCH  25  26
ENDBRANCH  14  25
TORSDOF 4
ENDMDL
MODEL 4
REMARK VINA RESULT:      -8.4      5.319     10.413
REMARK  Name = 
REMARK  4 active torsions:
REMARK  status: ('A' for Active; 'I' for Inactive)
REMARK    1  A    between atoms: C_10  and  C_11
REMARK    2  A    between atoms: C_14  and  C_15
REMARK    3  A    between atoms: N_24  and  C_25
REMARK    4  A    between atoms: C_25  and  C_26
REMARK                            x       y       z     vdW  Elec       q    Type
REMARK                         _______ _______ _______ _____ _____    ______ ____
ROOT
ATOM      1  O   UNL     1      -3.557  13.782  19.777  0.00  0.00    +0.000 OA
ATOM      2  C   UNL     1      -2.724  12.899  19.962  0.00  0.00    +0.000 A 
ATOM      3  C   UNL     1      -2.612  11.798  18.965  0.00  0.00    +0.000 A 
ATOM      4  C   UNL     1      -3.527  11.761  17.902  0.00  0.00    +0.000 A 
ATOM      5  C   UNL     1      -3.483  10.723  16.973  0.00  0.00    +0.000 A 
ATOM      6  C   UNL     1      -2.553   9.701  17.127  0.00  0.00    +0.000 A 
ATOM      7  C   UNL     1      -1.658   9.713  18.201  0.00  0.00    +0.000 A 
ATOM      8  C   UNL     1      -1.645  10.789  19.095  0.00  0.00    +0.000 A 
ATOM      9  N   UNL     1      -0.730  10.919  20.162  0.00  0.00    +0.000 N 
ATOM     10  C   UNL     1       0.436  10.247  20.530  0.00  0.00    +0.000 A 
ATOM     11  N   UNL     1       0.800  10.689  21.725  0.00  0.00    +0.000 NA
ATOM     12  N   UNL     1      -0.023  11.714  22.093  0.00  0.00    +0.000 NA
ATOM     13  C   UNL     1      -0.905  11.883  21.137  0.00  0.00    +0.000 A 
ATOM     14  N   UNL     1      -1.892  12.856  21.073  0.00  0.00    +0.000 N 
ENDROOT
BRANCH  10  15
ATOM     15  C   UNL     1       1.197   9.227  19.802  0.00  0.00    +0.000 A 
ATOM     16  C   UNL     1       1.502   7.975  20.352  0.00  0.00    +0.000 A 
ATOM     17  C   UNL     1       2.338   7.081  19.671  0.00  0.00    +0.000 A 
ATOM     18  C   UNL     1       2.814   7.383  18.387  0.00  0.00    +0.000 A 
ATOM     19  C   UNL     1       2.396   8.575  17.782  0.00  0.00    +0.000 A 
ATOM     20  C   UNL     1       1.601   9.487  18.485  0.00  0.00    +0.000 A 
BRANCH  18  21
ATOM     21  C   UNL     1       3.752   6.449  17.664  0.00  0.00    +0.000 C 
ATOM     22  F   UNL     1       3.161   5.282  17.279  0.00  0.00    +0.000 F 
ATOM     23  F   UNL     1       4.272   6.997  16.533  0.00  0.00    +0.000 F 
ATOM     24  F   UNL     1       4.817   6.086  18.433  0.00  0.00    +0.000 F 
ENDBRANCH  18  21
ENDBRANCH  10  15
BRANCH  14  25
ATOM     25  C   UNL     1      -2.116  13.788  22.172  0.00  0.00    +0.000 C 
BRANCH  25  26
ATOM     26  C   UNL     1      -3.368  13.433  22.946  0.00  0.00    +0.000 A 
ATOM     27  C   UNL     1      -4.518  14.226  22.837  0.00  0.00    +0.000 A 
ATOM     28  C   UNL     1      -5.642  13.956  23.619  0.00  0.00    +0.000 A 
ATOM     29  C   UNL     1      -5.629  12.890  24.518  0.00  0.00    +0.000 A 
ATOM     30  C   UNL     1      -4.497  12.085  24.623  0.00  0.00    +0.000 A 
ATOM     31  C   UNL     1      -3.372  12.353  23.841  0.00  0.00    +0.000 A 
ENDBRANCH  25  26
ENDBRANCH  14  25
TORSDOF 4
ENDMDL
MODEL 5
REMARK VINA RESULT:      -8.4      5.063     10.090
REMARK  Name = 
REMARK  4 active torsions:
REMARK  status: ('A' for Active; 'I' for Inactive)
REMARK    1  A    between atoms: C_10  and  C_11
REMARK    2  A    between atoms: C_14  and  C_15
REMARK    3  A    between atoms: N_24  and  C_25
REMARK    4  A    between atoms: C_25  and  C_26
REMARK                            x       y       z     vdW  Elec       q    Type
REMARK                         _______ _______ _______ _____ _____    ______ ____
ROOT
ATOM      1  O   UNL     1      -1.927  13.855  20.134  0.00  0.00    +0.000 OA
ATOM      2  C   UNL     1      -1.377  12.769  20.301  0.00  0.00    +0.000 A 
ATOM      3  C   UNL     1      -1.419  11.767  19.200  0.00  0.00    +0.000 A 
ATOM      4  C   UNL     1      -2.167  12.065  18.051  0.00  0.00    +0.000 A 
ATOM      5  C   UNL     1      -2.267  11.137  17.017  0.00  0.00    +0.000 A 
ATOM      6  C   UNL     1      -1.656   9.894  17.146  0.00  0.00    +0.000 A 
ATOM      7  C   UNL     1      -0.936   9.576  18.302  0.00  0.00    +0.000 A 
ATOM      8  C   UNL     1      -0.766  10.530  19.311  0.00  0.00    +0.000 A 
ATOM      9  N   UNL     1       0.004  10.320  20.475  0.00  0.00    +0.000 N 
ATOM     10  C   UNL     1       0.903   9.334  20.881  0.00  0.00    +0.000 A 
ATOM     11  N   UNL     1       1.208   9.559  22.151  0.00  0.00    +0.000 NA
ATOM     12  N   UNL     1       0.632  10.731  22.549  0.00  0.00    +0.000 NA
ATOM     13  C   UNL     1      -0.045  11.209  21.532  0.00  0.00    +0.000 A 
ATOM     14  N   UNL     1      -0.736  12.412  21.480  0.00  0.00    +0.000 N 
ENDROOT
BRANCH  10  15
ATOM     15  C   UNL     1       1.468   8.213  20.122  0.00  0.00    +0.000 A 
ATOM     16  C   UNL     1       1.483   6.900  20.611  0.00  0.00    +0.000 A 
ATOM     17  C   UNL     1       2.146   5.886  19.908  0.00  0.00    +0.000 A 
ATOM     18  C   UNL     1       2.730   6.143  18.660  0.00  0.00    +0.000 A 
ATOM     19  C   UNL     1       2.594   7.424  18.109  0.00  0.00    +0.000 A 
ATOM     20  C   UNL     1       1.974   8.447  18.836  0.00  0.00    +0.000 A 
BRANCH  18  21
ATOM     21  C   UNL     1       3.486   5.070  17.917  0.00  0.00    +0.000 C 
ATOM     22  F   UNL     1       2.674   4.206  17.243  0.00  0.00    +0.000 F 
ATOM     23  F   UNL     1       4.345   5.577  16.992  0.00  0.00    +0.000 F 
ATOM     24  F   UNL     1       4.238   4.296  18.747  0.00  0.00    +0.000 F 
ENDBRANCH  18  21
ENDBRANCH  10  15
BRANCH  14  25
ATOM     25  C   UNL     1      -0.857  13.273  22.651  0.00  0.00    +0.000 C 
BRANCH  25  26
ATOM     26  C   UNL     1      -2.277  13.287  23.176  0.00  0.00    +0.000 A 
ATOM     27  C   UNL     1      -2.972  14.497  23.309  0.00  0.00    +0.000 A 
ATOM     28  C   UNL     1      -4.246  14.523  23.880  0.00  0.00    +0.000 A 
ATOM     29  C   UNL     1      -4.838  13.342  24.323  0.00  0.00    +0.000 A 
ATOM     30  C   UNL     1      -4.163  12.131  24.182  0.00  0.00    +0.000 A 
ATOM     31  C   UNL     1      -2.890  12.102  23.611  0.00  0.00    +0.000 A 
ENDBRANCH  25  26
ENDBRANCH  14  25
TORSDOF 4
ENDMDL
MODEL 6
REMARK VINA RESULT:      -8.3      4.973      9.914
REMARK  Name = 
REMARK  4 active torsions:
REMARK  status: ('A' for Active; 'I' for Inactive)
REMARK    1  A    between atoms: C_10  and  C_11
REMARK    2  A    between atoms: C_14  and  C_15
REMARK    3  A    between atoms: N_24  and  C_25
REMARK    4  A    between atoms: C_25  and  C_26
REMARK                            x       y       z     vdW  Elec       q    Type
REMARK                         _______ _______ _______ _____ _____    ______ ____
ROOT
ATOM      1  O   UNL     1      -1.649  13.924  19.984  0.00  0.00    +0.000 OA
ATOM      2  C   UNL     1      -1.127  12.829  20.180  0.00  0.00    +0.000 A 
ATOM      3  C   UNL     1      -1.246  11.778  19.132  0.00  0.00    +0.000 A 
ATOM      4  C   UNL     1      -2.031  12.048  18.000  0.00  0.00    +0.000 A 
ATOM      5  C   UNL     1      -2.203  11.075  17.017  0.00  0.00    +0.000 A 
ATOM      6  C   UNL     1      -1.627   9.820  17.182  0.00  0.00    +0.000 A 
ATOM      7  C   UNL     1      -0.869   9.533  18.322  0.00  0.00    +0.000 A 
ATOM      8  C   UNL     1      -0.629  10.527  19.276  0.00  0.00    +0.000 A 
ATOM      9  N   UNL     1       0.182  10.347  20.418  0.00  0.00    +0.000 N 
ATOM     10  C   UNL     1       1.065   9.351  20.835  0.00  0.00    +0.000 A 
ATOM     11  N   UNL     1       1.430   9.625  22.080  0.00  0.00    +0.000 NA
ATOM     12  N   UNL     1       0.908  10.833  22.443  0.00  0.00    +0.000 NA
ATOM     13  C   UNL     1       0.205  11.286  21.432  0.00  0.00    +0.000 A 
ATOM     14  N   UNL     1      -0.449  12.507  21.349  0.00  0.00    +0.000 N 
ENDROOT
BRANCH  10  15
ATOM     15  C   UNL     1       1.563   8.178  20.110  0.00  0.00    +0.000 A 
ATOM     16  C   UNL     1       2.132   8.264  18.832  0.00  0.00    +0.000 A 
ATOM     17  C   UNL     1       2.477   7.105  18.126  0.00  0.00    +0.000 A 
ATOM     18  C   UNL     1       2.344   5.840  18.716  0.00  0.00    +0.000 A 
ATOM     19  C   UNL     1       1.905   5.764  20.044  0.00  0.00    +0.000 A 
ATOM     20  C   UNL     1       1.515   6.921  20.729  0.00  0.00    +0.000 A 
BRANCH  18  21
ATOM     21  C   UNL     1       2.669   4.583  17.948  0.00  0.00    +0.000 C 
ATOM     22  F   UNL     1       1.612   4.095  17.238  0.00  0.00    +0.000 F 
ATOM     23  F   UNL     1       3.675   4.760  17.050  0.00  0.00    +0.000 F 
ATOM     24  F   UNL     1       3.064   3.565  18.763  0.00  0.00    +0.000 F 
ENDBRANCH  18  21
ENDBRANCH  10  15
BRANCH  14  25
ATOM     25  C   UNL     1      -0.495  13.425  22.481  0.00  0.00    +0.000 C 
BRANCH  25  26
ATOM     26  C   UNL     1      -1.849  13.394  23.158  0.00  0.00    +0.000 A 
ATOM     27  C   UNL     1      -2.523  12.179  23.342  0.00  0.00    +0.000 A 
ATOM     28  C   UNL     1      -3.810  12.157  23.880  0.00  0.00    +0.000 A 
ATOM     29  C   UNL     1      -4.437  13.349  24.241  0.00  0.00    +0.000 A 
ATOM     30  C   UNL     1      -3.772  14.562  24.078  0.00  0.00    +0.000 A 
ATOM     31  C   UNL     1      -2.484  14.586  23.540  0.00  0.00    +0.000 A 
ENDBRANCH  25  26
ENDBRANCH  14  25
TORSDOF 4
ENDMDL
MODEL 7
REMARK VINA RESULT:      -8.3      5.166     10.210
REMARK  Name = 
REMARK  4 active torsions:
REMARK  status: ('A' for Active; 'I' for Inactive)
REMARK    1  A    between atoms: C_10  and  C_11
REMARK    2  A    between atoms: C_14  and  C_15
REMARK    3  A    between atoms: N_24  and  C_25
REMARK    4  A    between atoms: C_25  and  C_26
REMARK                            x       y       z     vdW  Elec       q    Type
REMARK                         _______ _______ _______ _____ _____    ______ ____
ROOT
ATOM      1  O   UNL     1      -2.811  13.841  19.773  0.00  0.00    +0.000 OA
ATOM      2  C   UNL     1      -2.107  12.858  19.992  0.00  0.00    +0.000 A 
ATOM      3  C   UNL     1      -2.038  11.781  18.966  0.00  0.00    +0.000 A 
ATOM      4  C   UNL     1      -2.855  11.886  17.830  0.00  0.00    +0.000 A 
ATOM      5  C   UNL     1      -2.852  10.878  16.867  0.00  0.00    +0.000 A 
ATOM      6  C   UNL     1      -2.067   9.747  17.057  0.00  0.00    +0.000 A 
ATOM      7  C   UNL     1      -1.273   9.619  18.202  0.00  0.00    +0.000 A 
ATOM      8  C   UNL     1      -1.212  10.660  19.135  0.00  0.00    +0.000 A 
ATOM      9  N   UNL     1      -0.385  10.647  20.279  0.00  0.00    +0.000 N 
ATOM     10  C   UNL     1       0.657   9.829  20.716  0.00  0.00    +0.000 A 
ATOM     11  N   UNL     1       0.965  10.189  21.955  0.00  0.00    +0.000 NA
ATOM     12  N   UNL     1       0.240  11.295  22.293  0.00  0.00    +0.000 NA
ATOM     13  C   UNL     1      -0.529  11.596  21.273  0.00  0.00    +0.000 A 
ATOM     14  N   UNL     1      -1.386  12.683  21.166  0.00  0.00    +0.000 N 
ENDROOT
BRANCH  10  15
ATOM     15  C   UNL     1       1.354   8.746  20.015  0.00  0.00    +0.000 A 
ATOM     16  C   UNL     1       1.879   8.896  18.724  0.00  0.00    +0.000 A 
ATOM     17  C   UNL     1       2.423   7.799  18.045  0.00  0.00    +0.000 A 
ATOM     18  C   UNL     1       2.535   6.551  18.673  0.00  0.00    +0.000 A 
ATOM     19  C   UNL     1       2.135   6.437  20.011  0.00  0.00    +0.000 A 
ATOM     20  C   UNL     1       1.547   7.522  20.670  0.00  0.00    +0.000 A 
BRANCH  18  21
ATOM     21  C   UNL     1       3.076   5.352  17.935  0.00  0.00    +0.000 C 
ATOM     22  F   UNL     1       3.805   4.514  18.726  0.00  0.00    +0.000 F 
ATOM     23  F   UNL     1       2.096   4.588  17.382  0.00  0.00    +0.000 F 
ATOM     24  F   UNL     1       3.904   5.703  16.912  0.00  0.00    +0.000 F 
ENDBRANCH  18  21
ENDBRANCH  10  15
BRANCH  14  25
ATOM     25  C   UNL     1      -1.594  13.603  22.278  0.00  0.00    +0.000 C 
BRANCH  25  26
ATOM     26  C   UNL     1      -2.939  13.373  22.936  0.00  0.00    +0.000 A 
ATOM     27  C   UNL     1      -3.961  14.324  22.810  0.00  0.00    +0.000 A 
ATOM     28  C   UNL     1      -5.168  14.160  23.491  0.00  0.00    +0.000 A 
ATOM     29  C   UNL     1      -5.367  13.045  24.304  0.00  0.00    +0.000 A 
ATOM     30  C   UNL     1      -4.364  12.085  24.424  0.00  0.00    +0.000 A 
ATOM     31  C   UNL     1      -3.156  12.247  23.743  0.00  0.00    +0.000 A 
ENDBRANCH  25  26
ENDBRANCH  14  25
TORSDOF 4
ENDMDL
MODEL 8
REMARK VINA RESULT:      -8.1      5.132      9.829
REMARK  Name = 
REMARK  4 active torsions:
REMARK  status: ('A' for Active; 'I' for Inactive)
REMARK    1  A    between atoms: C_10  and  C_11
REMARK    2  A    between atoms: C_14  and  C_15
REMARK    3  A    between atoms: N_24  and  C_25
REMARK    4  A    between atoms: C_25  and  C_26
REMARK                            x       y       z     vdW  Elec       q    Type
REMARK                         _______ _______ _______ _____ _____    ______ ____
ROOT
ATOM      1  O   UNL     1      -2.831  13.480  20.406  0.00  0.00    +0.000 OA
ATOM      2  C   UNL     1      -2.091  12.502  20.476  0.00  0.00    +0.000 A 
ATOM      3  C   UNL     1      -1.951  11.621  19.284  0.00  0.00    +0.000 A 
ATOM      4  C   UNL     1      -2.742  11.888  18.156  0.00  0.00    +0.000 A 
ATOM      5  C   UNL     1      -2.672  11.062  17.036  0.00  0.00    +0.000 A 
ATOM      6  C   UNL     1      -1.844   9.945  17.056  0.00  0.00    +0.000 A 
ATOM      7  C   UNL     1      -1.075   9.653  18.187  0.00  0.00    +0.000 A 
ATOM      8  C   UNL     1      -1.082  10.519  19.286  0.00  0.00    +0.000 A 
ATOM      9  N   UNL     1      -0.285  10.341  20.437  0.00  0.00    +0.000 N 
ATOM     10  C   UNL     1       0.780   9.499  20.762  0.00  0.00    +0.000 A 
ATOM     11  N   UNL     1       1.040   9.652  22.052  0.00  0.00    +0.000 NA
ATOM     12  N   UNL     1       0.260  10.655  22.551  0.00  0.00    +0.000 NA
ATOM     13  C   UNL     1      -0.495  11.099  21.573  0.00  0.00    +0.000 A 
ATOM     14  N   UNL     1      -1.393  12.155  21.626  0.00  0.00    +0.000 N 
ENDROOT
BRANCH  10  15
ATOM     15  C   UNL     1       1.539   8.580  19.908  0.00  0.00    +0.000 A 
ATOM     16  C   UNL     1       1.808   7.255  20.275  0.00  0.00    +0.000 A 
ATOM     17  C   UNL     1       2.644   6.453  19.488  0.00  0.00    +0.000 A 
ATOM     18  C   UNL     1       3.156   6.928  18.273  0.00  0.00    +0.000 A 
ATOM     19  C   UNL     1       2.775   8.205  17.840  0.00  0.00    +0.000 A 
ATOM     20  C   UNL     1       1.980   9.021  18.652  0.00  0.00    +0.000 A 
BRANCH  18  21
ATOM     21  C   UNL     1       4.094   6.090  17.440  0.00  0.00    +0.000 C 
ATOM     22  F   UNL     1       5.238   5.746  18.097  0.00  0.00    +0.000 F 
ATOM     23  F   UNL     1       3.531   4.922  17.029  0.00  0.00    +0.000 F 
ATOM     24  F   UNL     1       4.498   6.733  16.309  0.00  0.00    +0.000 F 
ENDBRANCH  18  21
ENDBRANCH  10  15
BRANCH  14  25
ATOM     25  C   UNL     1      -1.669  12.860  22.872  0.00  0.00    +0.000 C 
BRANCH  25  26
ATOM     26  C   UNL     1      -0.840  14.122  22.983  0.00  0.00    +0.000 A 
ATOM     27  C   UNL     1      -1.197  15.129  23.890  0.00  0.00    +0.000 A 
ATOM     28  C   UNL     1      -0.491  16.332  23.929  0.00  0.00    +0.000 A 
ATOM     29  C   UNL     1       0.580  16.542  23.062  0.00  0.00    +0.000 A 
ATOM     30  C   UNL     1       0.954  15.543  22.165  0.00  0.00    +0.000 A 
ATOM     31  C   UNL     1       0.249  14.339  22.126  0.00  0.00    +0.000 A 
ENDBRANCH  25  26
ENDBRANCH  14  25
TORSDOF 4
ENDMDL
MODEL 9
REMARK VINA RESULT:      -8.1      1.544      1.877
REMARK  Name = 
REMARK  4 active torsions:
REMARK  status: ('A' for Active; 'I' for Inactive)
REMARK    1  A    between atoms: C_10  and  C_11
REMARK    2  A    between atoms: C_14  and  C_15
REMARK    3  A    between atoms: N_24  and  C_25
REMARK    4  A    between atoms: C_25  and  C_26
REMARK                            x       y       z     vdW  Elec       q    Type
REMARK                         _______ _______ _______ _____ _____    ______ ____
ROOT
ATOM      1  O   UNL     1       5.502   2.325  16.657  0.00  0.00    +0.000 OA
ATOM      2  C   UNL     1       4.970   3.422  16.809  0.00  0.00    +0.000 A 
ATOM      3  C   UNL     1       3.633   3.487  17.462  0.00  0.00    +0.000 A 
ATOM      4  C   UNL     1       2.991   2.285  17.794  0.00  0.00    +0.000 A 
ATOM      5  C   UNL     1       1.721   2.301  18.367  0.00  0.00    +0.000 A 
ATOM      6  C   UNL     1       1.074   3.515  18.571  0.00  0.00    +0.000 A 
ATOM      7  C   UNL     1       1.694   4.717  18.214  0.00  0.00    +0.000 A 
ATOM      8  C   UNL     1       2.998   4.713  17.709  0.00  0.00    +0.000 A 
ATOM      9  N   UNL     1       3.726   5.881  17.391  0.00  0.00    +0.000 N 
ATOM     10  C   UNL     1       3.529   7.242  17.624  0.00  0.00    +0.000 A 
ATOM     11  N   UNL     1       4.458   7.908  16.952  0.00  0.00    +0.000 NA
ATOM     12  N   UNL     1       5.327   7.019  16.390  0.00  0.00    +0.000 NA
ATOM     13  C   UNL     1       4.917   5.810  16.694  0.00  0.00    +0.000 A 
ATOM     14  N   UNL     1       5.540   4.612  16.376  0.00  0.00    +0.000 N 
ENDROOT
BRANCH  10  15
ATOM     15  C   UNL     1       2.515   7.914  18.442  0.00  0.00    +0.000 A 
ATOM     16  C   UNL     1       1.687   8.927  17.939  0.00  0.00    +0.000 A 
ATOM     17  C   UNL     1       0.822   9.628  18.789  0.00  0.00    +0.000 A 
ATOM     18  C   UNL     1       0.700   9.271  20.139  0.00  0.00    +0.000 A 
ATOM     19  C   UNL     1       1.426   8.169  20.609  0.00  0.00    +0.000 A 
ATOM     20  C   UNL     1       2.326   7.503  19.769  0.00  0.00    +0.000 A 
BRANCH  18  21
ATOM     21  C   UNL     1      -0.194  10.048  21.074  0.00  0.00    +0.000 C 
ATOM     22  F   UNL     1      -1.182  10.733  20.430  0.00  0.00    +0.000 F 
ATOM     23  F   UNL     1      -0.819   9.254  21.984  0.00  0.00    +0.000 F 
ATOM     24  F   UNL     1       0.492  10.980  21.792  0.00  0.00    +0.000 F 
ENDBRANCH  18  21
ENDBRANCH  10  15
BRANCH  14  25
ATOM     25  C   UNL     1       6.738   4.572  15.544  0.00  0.00    +0.000 C 
BRANCH  25  26
ATOM     26  C   UNL     1       6.393   4.278  14.100  0.00  0.00    +0.000 A 
ATOM     27  C   UNL     1       5.106   3.848  13.751  0.00  0.00    +0.000 A 
ATOM     28  C   UNL     1       4.812   3.487  12.435  0.00  0.00    +0.000 A 
ATOM     29  C   UNL     1       5.800   3.552  11.454  0.00  0.00    +0.000 A 
ATOM     30  C   UNL     1       7.080   3.993  11.786  0.00  0.00    +0.000 A 
ATOM     31  C   UNL     1       7.376   4.355  13.101  0.00  0.00    +0.000 A 
ENDBRANCH  25  26
ENDBRANCH  14  25
TORSDOF 4
ENDMDL
