MODEL 1
REMARK VINA RESULT:      -7.3      0.000      0.000
REMARK  Name = 
REMARK  1 active torsions:
REMARK  status: ('A' for Active; 'I' for Inactive)
REMARK    1  A    between atoms: C_1  and  N_2
REMARK                            x       y       z     vdW  Elec       q    Type
REMARK                         _______ _______ _______ _____ _____    ______ ____
ROOT
ATOM      1  C   UNL     1       7.148   5.569  19.305  0.00  0.00    +0.000 C 
ATOM      2  N   UNL     1       6.448   5.030  18.124  0.00  0.00    +0.000 N 
ATOM      3  C   UNL     1       7.082   5.009  16.927  0.00  0.00    +0.000 A 
ATOM      4  C   UNL     1       6.456   4.505  15.797  0.00  0.00    +0.000 A 
ATOM      5  C   UNL     1       5.163   4.018  15.900  0.00  0.00    +0.000 A 
ATOM      6  C   UNL     1       4.525   4.047  17.138  0.00  0.00    +0.000 A 
ATOM      7  C   UNL     1       3.160   3.537  17.271  0.00  0.00    +0.000 A 
ATOM      8  O   UNL     1       2.568   3.083  16.305  0.00  0.00    +0.000 OA
ATOM      9  C   UNL     1       2.548   3.600  18.600  0.00  0.00    +0.000 A 
ATOM     10  C   UNL     1       1.247   3.134  18.803  0.00  0.00    +0.000 A 
ATOM     11  C   UNL     1       0.687   3.205  20.076  0.00  0.00    +0.000 A 
ATOM     12  C   UNL     1       1.425   3.739  21.133  0.00  0.00    +0.000 A 
ATOM     13  C   UNL     1       2.728   4.205  20.920  0.00  0.00    +0.000 A 
ATOM     14  C   UNL     1       3.294   4.135  19.647  0.00  0.00    +0.000 A 
ATOM     15  O   UNL     1       4.577   4.608  19.508  0.00  0.00    +0.000 OA
ATOM     16  C   UNL     1       5.175   4.559  18.263  0.00  0.00    +0.000 A 
ENDROOT
TORSDOF 0
ENDMDL
MODEL 2
REMARK VINA RESULT:      -7.0      2.156      4.809
REMARK  Name = 
REMARK  1 active torsions:
REMARK  status: ('A' for Active; 'I' for Inactive)
REMARK    1  A    between atoms: C_1  and  N_2
REMARK                            x       y       z     vdW  Elec       q    Type
REMARK                         _______ _______ _______ _____ _____    ______ ____
ROOT
ATOM      1  C   UNL     1       4.479   1.941  20.417  0.00  0.00    +0.000 C 
ATOM      2  N   UNL     1       3.733   2.801  19.480  0.00  0.00    +0.000 N 
ATOM      3  C   UNL     1       2.458   2.479  19.154  0.00  0.00    +0.000 A 
ATOM      4  C   UNL     1       1.725   3.267  18.278  0.00  0.00    +0.000 A 
ATOM      5  C   UNL     1       2.311   4.398  17.732  0.00  0.00    +0.000 A 
ATOM      6  C   UNL     1       3.623   4.714  18.078  0.00  0.00    +0.000 A 
ATOM      7  C   UNL     1       4.263   5.903  17.514  0.00  0.00    +0.000 A 
ATOM      8  O   UNL     1       3.657   6.629  16.740  0.00  0.00    +0.000 OA
ATOM      9  C   UNL     1       5.644   6.175  17.917  0.00  0.00    +0.000 A 
ATOM     10  C   UNL     1       6.320   7.292  17.418  0.00  0.00    +0.000 A 
ATOM     11  C   UNL     1       7.633   7.528  17.816  0.00  0.00    +0.000 A 
ATOM     12  C   UNL     1       8.261   6.653  18.703  0.00  0.00    +0.000 A 
ATOM     13  C   UNL     1       7.576   5.537  19.198  0.00  0.00    +0.000 A 
ATOM     14  C   UNL     1       6.260   5.295  18.803  0.00  0.00    +0.000 A 
ATOM     15  O   UNL     1       5.646   4.183  19.327  0.00  0.00    +0.000 OA
ATOM     16  C   UNL     1       4.342   3.906  18.960  0.00  0.00    +0.000 A 
ENDROOT
TORSDOF 0
ENDMDL
MODEL 3
REMARK VINA RESULT:      -7.0      1.950      4.885
REMARK  Name = 
REMARK  1 active torsions:
REMARK  status: ('A' for Active; 'I' for Inactive)
REMARK    1  A    between atoms: C_1  and  N_2
REMARK                            x       y       z     vdW  Elec       q    Type
REMARK                         _______ _______ _______ _____ _____    ______ ____
ROOT
ATOM      1  C   UNL     1       2.125   7.360  19.916  0.00  0.00    +0.000 C 
ATOM      2  N   UNL     1       2.146   5.887  19.853  0.00  0.00    +0.000 N 
ATOM      3  C   UNL     1       1.418   5.173  20.745  0.00  0.00    +0.000 A 
ATOM      4  C   UNL     1       1.411   3.786  20.713  0.00  0.00    +0.000 A 
ATOM      5  C   UNL     1       2.162   3.127  19.753  0.00  0.00    +0.000 A 
ATOM      6  C   UNL     1       2.906   3.877  18.845  0.00  0.00    +0.000 A 
ATOM      7  C   UNL     1       3.707   3.203  17.822  0.00  0.00    +0.000 A 
ATOM      8  O   UNL     1       3.732   1.984  17.752  0.00  0.00    +0.000 OA
ATOM      9  C   UNL     1       4.467   4.050  16.900  0.00  0.00    +0.000 A 
ATOM     10  C   UNL     1       5.255   3.478  15.899  0.00  0.00    +0.000 A 
ATOM     11  C   UNL     1       5.969   4.305  15.036  0.00  0.00    +0.000 A 
ATOM     12  C   UNL     1       5.892   5.691  15.177  0.00  0.00    +0.000 A 
ATOM     13  C   UNL     1       5.100   6.256  16.183  0.00  0.00    +0.000 A 
ATOM     14  C   UNL     1       4.382   5.432  17.051  0.00  0.00    +0.000 A 
ATOM     15  O   UNL     1       3.624   6.051  18.014  0.00  0.00    +0.000 OA
ATOM     16  C   UNL     1       2.899   5.272  18.896  0.00  0.00    +0.000 A 
ENDROOT
TORSDOF 0
ENDMDL
MODEL 4
REMARK VINA RESULT:      -6.9      2.122      4.927
REMARK  Name = 
REMARK  1 active torsions:
REMARK  status: ('A' for Active; 'I' for Inactive)
REMARK    1  A    between atoms: C_1  and  N_2
REMARK                            x       y       z     vdW  Elec       q    Type
REMARK                         _______ _______ _______ _____ _____    ______ ____
ROOT
ATOM      1  C   UNL     1       4.465   1.736  20.877  0.00  0.00    +0.000 C 
ATOM      2  N   UNL     1       3.454   2.696  20.397  0.00  0.00    +0.000 N 
ATOM      3  C   UNL     1       2.152   2.506  20.717  0.00  0.00    +0.000 A 
ATOM      4  C   UNL     1       1.174   3.391  20.286  0.00  0.00    +0.000 A 
ATOM      5  C   UNL     1       1.542   4.484  19.517  0.00  0.00    +0.000 A 
ATOM      6  C   UNL     1       2.886   4.664  19.197  0.00  0.00    +0.000 A 
ATOM      7  C   UNL     1       3.298   5.811  18.386  0.00  0.00    +0.000 A 
ATOM      8  O   UNL     1       2.474   6.618  17.985  0.00  0.00    +0.000 OA
ATOM      9  C   UNL     1       4.725   5.939  18.084  0.00  0.00    +0.000 A 
ATOM     10  C   UNL     1       5.192   7.007  17.314  0.00  0.00    +0.000 A 
ATOM     11  C   UNL     1       6.554   7.106  17.040  0.00  0.00    +0.000 A 
ATOM     12  C   UNL     1       7.436   6.143  17.532  0.00  0.00    +0.000 A 
ATOM     13  C   UNL     1       6.959   5.077  18.302  0.00  0.00    +0.000 A 
ATOM     14  C   UNL     1       5.596   4.972  18.581  0.00  0.00    +0.000 A 
ATOM     15  O   UNL     1       5.195   3.902  19.343  0.00  0.00    +0.000 OA
ATOM     16  C   UNL     1       3.853   3.760  19.641  0.00  0.00    +0.000 A 
ENDROOT
TORSDOF 0
ENDMDL
MODEL 5
REMARK VINA RESULT:      -6.9      2.105      5.099
REMARK  Name = 
REMARK  1 active torsions:
REMARK  status: ('A' for Active; 'I' for Inactive)
REMARK    1  A    between atoms: C_1  and  N_2
REMARK                            x       y       z     vdW  Elec       q    Type
REMARK                         _______ _______ _______ _____ _____    ______ ____
ROOT
ATOM      1  C   UNL     1       3.158   2.495  20.398  0.00  0.00    +0.000 C 
ATOM      2  N   UNL     1       2.891   3.920  20.128  0.00  0.00    +0.000 N 
ATOM      3  C   UNL     1       2.092   4.618  20.971  0.00  0.00    +0.000 A 
ATOM      4  C   UNL     1       1.823   5.961  20.750  0.00  0.00    +0.000 A 
ATOM      5  C   UNL     1       2.381   6.591  19.649  0.00  0.00    +0.000 A 
ATOM      6  C   UNL     1       3.199   5.858  18.793  0.00  0.00    +0.000 A 
ATOM      7  C   UNL     1       3.800   6.503  17.624  0.00  0.00    +0.000 A 
ATOM      8  O   UNL     1       3.593   7.683  17.389  0.00  0.00    +0.000 OA
ATOM      9  C   UNL     1       4.647   5.674  16.763  0.00  0.00    +0.000 A 
ATOM     10  C   UNL     1       5.253   6.221  15.630  0.00  0.00    +0.000 A 
ATOM     11  C   UNL     1       6.054   5.411  14.827  0.00  0.00    +0.000 A 
ATOM     12  C   UNL     1       6.243   4.070  15.160  0.00  0.00    +0.000 A 
ATOM     13  C   UNL     1       5.632   3.531  16.297  0.00  0.00    +0.000 A 
ATOM     14  C   UNL     1       4.829   4.337  17.105  0.00  0.00    +0.000 A 
ATOM     15  O   UNL     1       4.260   3.745  18.207  0.00  0.00    +0.000 OA
ATOM     16  C   UNL     1       3.456   4.507  19.034  0.00  0.00    +0.000 A 
ENDROOT
TORSDOF 0
ENDMDL
MODEL 6
REMARK VINA RESULT:      -6.8      1.574      2.705
REMARK  Name = 
REMARK  1 active torsions:
REMARK  status: ('A' for Active; 'I' for Inactive)
REMARK    1  A    between atoms: C_1  and  N_2
REMARK                            x       y       z     vdW  Elec       q    Type
REMARK                         _______ _______ _______ _____ _____    ______ ____
ROOT
ATOM      1  C   UNL     1       5.983   3.585  15.310  0.00  0.00    +0.000 C 
ATOM      2  N   UNL     1       5.680   4.739  16.177  0.00  0.00    +0.000 N 
ATOM      3  C   UNL     1       6.438   5.858  16.085  0.00  0.00    +0.000 A 
ATOM      4  C   UNL     1       6.179   6.964  16.882  0.00  0.00    +0.000 A 
ATOM      5  C   UNL     1       5.128   6.917  17.784  0.00  0.00    +0.000 A 
ATOM      6  C   UNL     1       4.359   5.758  17.866  0.00  0.00    +0.000 A 
ATOM      7  C   UNL     1       3.244   5.685  18.812  0.00  0.00    +0.000 A 
ATOM      8  O   UNL     1       2.976   6.634  19.533  0.00  0.00    +0.000 OA
ATOM      9  C   UNL     1       2.478   4.438  18.850  0.00  0.00    +0.000 A 
ATOM     10  C   UNL     1       1.401   4.295  19.727  0.00  0.00    +0.000 A 
ATOM     11  C   UNL     1       0.689   3.098  19.745  0.00  0.00    +0.000 A 
ATOM     12  C   UNL     1       1.055   2.057  18.891  0.00  0.00    +0.000 A 
ATOM     13  C   UNL     1       2.136   2.209  18.015  0.00  0.00    +0.000 A 
ATOM     14  C   UNL     1       2.853   3.406  17.993  0.00  0.00    +0.000 A 
ATOM     15  O   UNL     1       3.901   3.489  17.108  0.00  0.00    +0.000 OA
ATOM     16  C   UNL     1       4.638   4.657  17.055  0.00  0.00    +0.000 A 
ENDROOT
TORSDOF 0
ENDMDL
MODEL 7
REMARK VINA RESULT:      -6.8      1.908      2.692
REMARK  Name = 
REMARK  1 active torsions:
REMARK  status: ('A' for Active; 'I' for Inactive)
REMARK    1  A    between atoms: C_1  and  N_2
REMARK                            x       y       z     vdW  Elec       q    Type
REMARK                         _______ _______ _______ _____ _____    ______ ____
ROOT
ATOM      1  C   UNL     1       5.553   3.479  15.742  0.00  0.00    +0.000 C 
ATOM      2  N   UNL     1       5.064   4.763  16.278  0.00  0.00    +0.000 N 
ATOM      3  C   UNL     1       5.470   5.921  15.704  0.00  0.00    +0.000 A 
ATOM      4  C   UNL     1       5.026   7.147  16.179  0.00  0.00    +0.000 A 
ATOM      5  C   UNL     1       4.156   7.180  17.257  0.00  0.00    +0.000 A 
ATOM      6  C   UNL     1       3.749   5.981  17.835  0.00  0.00    +0.000 A 
ATOM      7  C   UNL     1       2.830   5.991  18.975  0.00  0.00    +0.000 A 
ATOM      8  O   UNL     1       2.411   7.045  19.427  0.00  0.00    +0.000 OA
ATOM      9  C   UNL     1       2.445   4.695  19.537  0.00  0.00    +0.000 A 
ATOM     10  C   UNL     1       1.573   4.627  20.626  0.00  0.00    +0.000 A 
ATOM     11  C   UNL     1       1.223   3.382  21.142  0.00  0.00    +0.000 A 
ATOM     12  C   UNL     1       1.743   2.219  20.572  0.00  0.00    +0.000 A 
ATOM     13  C   UNL     1       2.617   2.297  19.482  0.00  0.00    +0.000 A 
ATOM     14  C   UNL     1       2.971   3.542  18.960  0.00  0.00    +0.000 A 
ATOM     15  O   UNL     1       3.831   3.546  17.888  0.00  0.00    +0.000 OA
ATOM     16  C   UNL     1       4.209   4.758  17.341  0.00  0.00    +0.000 A 
ENDROOT
TORSDOF 0
ENDMDL
MODEL 8
REMARK VINA RESULT:      -6.7      3.592      4.472
REMARK  Name = 
REMARK  1 active torsions:
REMARK  status: ('A' for Active; 'I' for Inactive)
REMARK    1  A    between atoms: C_1  and  N_2
REMARK                            x       y       z     vdW  Elec       q    Type
REMARK                         _______ _______ _______ _____ _____    ______ ____
ROOT
ATOM      1  C   UNL     1       0.541   8.667  21.351  0.00  0.00    +0.000 C 
ATOM      2  N   UNL     1       1.277   8.494  20.085  0.00  0.00    +0.000 N 
ATOM      3  C   UNL     1       1.367   9.534  19.221  0.00  0.00    +0.000 A 
ATOM      4  C   UNL     1       2.055   9.408  18.022  0.00  0.00    +0.000 A 
ATOM      5  C   UNL     1       2.657   8.199  17.711  0.00  0.00    +0.000 A 
ATOM      6  C   UNL     1       2.555   7.141  18.611  0.00  0.00    +0.000 A 
ATOM      7  C   UNL     1       3.182   5.855  18.303  0.00  0.00    +0.000 A 
ATOM      8  O   UNL     1       3.800   5.697  17.262  0.00  0.00    +0.000 OA
ATOM      9  C   UNL     1       3.034   4.784  19.291  0.00  0.00    +0.000 A 
ATOM     10  C   UNL     1       3.605   3.529  19.065  0.00  0.00    +0.000 A 
ATOM     11  C   UNL     1       3.449   2.527  20.020  0.00  0.00    +0.000 A 
ATOM     12  C   UNL     1       2.727   2.782  21.186  0.00  0.00    +0.000 A 
ATOM     13  C   UNL     1       2.159   4.042  21.404  0.00  0.00    +0.000 A 
ATOM     14  C   UNL     1       2.312   5.051  20.451  0.00  0.00    +0.000 A 
ATOM     15  O   UNL     1       1.730   6.264  20.728  0.00  0.00    +0.000 OA
ATOM     16  C   UNL     1       1.856   7.290  19.811  0.00  0.00    +0.000 A 
ENDROOT
TORSDOF 0
ENDMDL
MODEL 9
REMARK VINA RESULT:      -6.7      2.159      5.139
REMARK  Name = 
REMARK  1 active torsions:
REMARK  status: ('A' for Active; 'I' for Inactive)
REMARK    1  A    between atoms: C_1  and  N_2
REMARK                            x       y       z     vdW  Elec       q    Type
REMARK                         _______ _______ _______ _____ _____    ______ ____
ROOT
ATOM      1  C   UNL     1       3.278   1.071  19.039  0.00  0.00    +0.000 C 
ATOM      2  N   UNL     1       2.772   2.376  19.505  0.00  0.00    +0.000 N 
ATOM      3  C   UNL     1       1.949   2.425  20.579  0.00  0.00    +0.000 A 
ATOM      4  C   UNL     1       1.458   3.635  21.048  0.00  0.00    +0.000 A 
ATOM      5  C   UNL     1       1.819   4.807  20.403  0.00  0.00    +0.000 A 
ATOM      6  C   UNL     1       2.665   4.739  19.299  0.00  0.00    +0.000 A 
ATOM      7  C   UNL     1       3.060   5.964  18.601  0.00  0.00    +0.000 A 
ATOM      8  O   UNL     1       2.655   7.053  18.978  0.00  0.00    +0.000 OA
ATOM      9  C   UNL     1       3.950   5.821  17.447  0.00  0.00    +0.000 A 
ATOM     10  C   UNL     1       4.367   6.945  16.732  0.00  0.00    +0.000 A 
ATOM     11  C   UNL     1       5.213   6.782  15.638  0.00  0.00    +0.000 A 
ATOM     12  C   UNL     1       5.634   5.505  15.266  0.00  0.00    +0.000 A 
ATOM     13  C   UNL     1       5.210   4.384  15.989  0.00  0.00    +0.000 A 
ATOM     14  C   UNL     1       4.363   4.541  17.086  0.00  0.00    +0.000 A 
ATOM     15  O   UNL     1       3.987   3.399  17.752  0.00  0.00    +0.000 OA
ATOM     16  C   UNL     1       3.147   3.510  18.844  0.00  0.00    +0.000 A 
ENDROOT
TORSDOF 0
ENDMDL
