MODEL 1
REMARK VINA RESULT:      -9.0      0.000      0.000
REMARK  Name = 
REMARK  0 active torsions:
REMARK  status: ('A' for Active; 'I' for Inactive)
REMARK                            x       y       z     vdW  Elec       q    Type
REMARK                         _______ _______ _______ _____ _____    ______ ____
ROOT
ATOM      1 CL   UNL     1       5.627   2.360  11.363  0.00  0.00    +0.000 Cl
ATOM      2  C   UNL     1       6.212   3.522  12.546  0.00  0.00    +0.000 A 
ATOM      3  C   UNL     1       7.390   4.274  12.396  0.00  0.00    +0.000 A 
ATOM      4  C   UNL     1       7.815   5.132  13.436  0.00  0.00    +0.000 A 
ATOM      5  C   UNL     1       7.058   5.244  14.620  0.00  0.00    +0.000 A 
ATOM      6  C   UNL     1       5.896   4.486  14.729  0.00  0.00    +0.000 A 
ATOM      7  C   UNL     1       5.464   3.642  13.696  0.00  0.00    +0.000 A 
ATOM      8  C   UNL     1       5.155   4.499  15.983  0.00  0.00    +0.000 A 
ATOM      9  N   UNL     1       4.122   3.648  16.087  0.00  0.00    +0.000 NA
ATOM     10  C   UNL     1       3.373   3.489  17.205  0.00  0.00    +0.000 A 
ATOM     11  C   UNL     1       2.415   2.530  17.175  0.00  0.00    +0.000 A 
ATOM     12  N   UNL     1       1.694   2.272  18.274  0.00  0.00    +0.000 NA
ATOM     13  C   UNL     1       1.888   2.978  19.442  0.00  0.00    +0.000 A 
ATOM     14  C   UNL     1       1.270   2.438  20.516  0.00  0.00    +0.000 A 
ATOM     15  C   UNL     1       1.629   2.951  21.725  0.00  0.00    +0.000 A 
ATOM     16  C   UNL     1       2.280   4.168  21.861  0.00  0.00    +0.000 A 
ATOM     17  C   UNL     1       2.918   4.711  20.739  0.00  0.00    +0.000 A 
ATOM     18  C   UNL     1       2.826   4.037  19.502  0.00  0.00    +0.000 A 
ATOM     19  C   UNL     1       3.644   4.302  18.346  0.00  0.00    +0.000 A 
ATOM     20  C   UNL     1       4.728   5.256  18.243  0.00  0.00    +0.000 A 
ATOM     21  C   UNL     1       5.500   5.342  17.050  0.00  0.00    +0.000 A 
ATOM     22  C   UNL     1       6.635   6.367  16.762  0.00  0.00    +0.000 C 
ATOM     23  O   UNL     1       7.445   6.040  15.662  0.00  0.00    +0.000 OA
ENDROOT
TORSDOF 0
ENDMDL
MODEL 2
REMARK VINA RESULT:      -8.4      5.518      7.746
REMARK  Name = 
REMARK  0 active torsions:
REMARK  status: ('A' for Active; 'I' for Inactive)
REMARK                            x       y       z     vdW  Elec       q    Type
REMARK                         _______ _______ _______ _____ _____    ______ ____
ROOT
ATOM      1 CL   UNL     1      -1.175  10.411  23.447  0.00  0.00    +0.000 Cl
ATOM      2  C   UNL     1      -0.409  10.576  21.873  0.00  0.00    +0.000 A 
ATOM      3  C   UNL     1      -0.547  11.702  21.044  0.00  0.00    +0.000 A 
ATOM      4  C   UNL     1       0.052  11.712  19.763  0.00  0.00    +0.000 A 
ATOM      5  C   UNL     1       0.794  10.599  19.317  0.00  0.00    +0.000 A 
ATOM      6  C   UNL     1       0.910   9.505  20.168  0.00  0.00    +0.000 A 
ATOM      7  C   UNL     1       0.328   9.494  21.444  0.00  0.00    +0.000 A 
ATOM      8  C   UNL     1       1.578   8.302  19.691  0.00  0.00    +0.000 A 
ATOM      9  N   UNL     1       1.544   7.227  20.495  0.00  0.00    +0.000 NA
ATOM     10  C   UNL     1       2.058   6.015  20.173  0.00  0.00    +0.000 A 
ATOM     11  C   UNL     1       1.871   5.010  21.063  0.00  0.00    +0.000 A 
ATOM     12  N   UNL     1       2.287   3.771  20.769  0.00  0.00    +0.000 NA
ATOM     13  C   UNL     1       2.925   3.493  19.580  0.00  0.00    +0.000 A 
ATOM     14  C   UNL     1       3.055   2.172  19.325  0.00  0.00    +0.000 A 
ATOM     15  C   UNL     1       3.451   1.848  18.063  0.00  0.00    +0.000 A 
ATOM     16  C   UNL     1       4.041   2.763  17.204  0.00  0.00    +0.000 A 
ATOM     17  C   UNL     1       3.894   4.128  17.481  0.00  0.00    +0.000 A 
ATOM     18  C   UNL     1       3.207   4.523  18.650  0.00  0.00    +0.000 A 
ATOM     19  C   UNL     1       2.730   5.853  18.926  0.00  0.00    +0.000 A 
ATOM     20  C   UNL     1       2.815   7.010  18.058  0.00  0.00    +0.000 A 
ATOM     21  C   UNL     1       2.217   8.242  18.442  0.00  0.00    +0.000 A 
ATOM     22  C   UNL     1       2.295   9.585  17.659  0.00  0.00    +0.000 C 
ATOM     23  O   UNL     1       1.367  10.553  18.076  0.00  0.00    +0.000 OA
ENDROOT
TORSDOF 0
ENDMDL
MODEL 3
REMARK VINA RESULT:      -8.2      4.763      6.304
REMARK  Name = 
REMARK  0 active torsions:
REMARK  status: ('A' for Active; 'I' for Inactive)
REMARK                            x       y       z     vdW  Elec       q    Type
REMARK                         _______ _______ _______ _____ _____    ______ ____
ROOT
ATOM      1 CL   UNL     1       5.226   4.380  15.040  0.00  0.00    +0.000 Cl
ATOM      2  C   UNL     1       4.501   4.053  16.608  0.00  0.00    +0.000 A 
ATOM      3  C   UNL     1       4.394   2.770  17.174  0.00  0.00    +0.000 A 
ATOM      4  C   UNL     1       3.731   2.600  18.410  0.00  0.00    +0.000 A 
ATOM      5  C   UNL     1       3.183   3.711  19.083  0.00  0.00    +0.000 A 
ATOM      6  C   UNL     1       3.312   4.964  18.492  0.00  0.00    +0.000 A 
ATOM      7  C   UNL     1       3.980   5.141  17.272  0.00  0.00    +0.000 A 
ATOM      8  C   UNL     1       2.663   6.111  19.111  0.00  0.00    +0.000 A 
ATOM      9  N   UNL     1       2.699   7.269  18.433  0.00  0.00    +0.000 NA
ATOM     10  C   UNL     1       2.089   8.410  18.835  0.00  0.00    +0.000 A 
ATOM     11  C   UNL     1       2.154   9.473  17.997  0.00  0.00    +0.000 A 
ATOM     12  N   UNL     1       1.505  10.605  18.303  0.00  0.00    +0.000 NA
ATOM     13  C   UNL     1       0.783  10.725  19.470  0.00  0.00    +0.000 A 
ATOM     14  C   UNL     1      -0.008  11.820  19.513  0.00  0.00    +0.000 A 
ATOM     15  C   UNL     1      -0.917  11.854  20.527  0.00  0.00    +0.000 A 
ATOM     16  C   UNL     1      -0.821  11.046  21.649  0.00  0.00    +0.000 A 
ATOM     17  C   UNL     1       0.001   9.913  21.586  0.00  0.00    +0.000 A 
ATOM     18  C   UNL     1       0.745   9.667  20.411  0.00  0.00    +0.000 A 
ATOM     19  C   UNL     1       1.397   8.426  20.082  0.00  0.00    +0.000 A 
ATOM     20  C   UNL     1       1.379   7.199  20.851  0.00  0.00    +0.000 A 
ATOM     21  C   UNL     1       2.007   6.025  20.348  0.00  0.00    +0.000 A 
ATOM     22  C   UNL     1       2.141   4.665  21.092  0.00  0.00    +0.000 C 
ATOM     23  O   UNL     1       2.509   3.589  20.267  0.00  0.00    +0.000 OA
ENDROOT
TORSDOF 0
ENDMDL
MODEL 4
REMARK VINA RESULT:      -8.2      6.624      8.332
REMARK  Name = 
REMARK  0 active torsions:
REMARK  status: ('A' for Active; 'I' for Inactive)
REMARK                            x       y       z     vdW  Elec       q    Type
REMARK                         _______ _______ _______ _____ _____    ______ ____
ROOT
ATOM      1 CL   UNL     1       2.220   3.361  21.847  0.00  0.00    +0.000 Cl
ATOM      2  C   UNL     1       2.482   4.532  20.561  0.00  0.00    +0.000 A 
ATOM      3  C   UNL     1       3.331   4.316  19.461  0.00  0.00    +0.000 A 
ATOM      4  C   UNL     1       3.531   5.347  18.514  0.00  0.00    +0.000 A 
ATOM      5  C   UNL     1       2.876   6.587  18.663  0.00  0.00    +0.000 A 
ATOM      6  C   UNL     1       2.042   6.759  19.763  0.00  0.00    +0.000 A 
ATOM      7  C   UNL     1       1.830   5.737  20.699  0.00  0.00    +0.000 A 
ATOM      8  C   UNL     1       1.440   8.064  19.999  0.00  0.00    +0.000 A 
ATOM      9  N   UNL     1       0.757   8.220  21.144  0.00  0.00    +0.000 NA
ATOM     10  C   UNL     1       0.194   9.386  21.545  0.00  0.00    +0.000 A 
ATOM     11  C   UNL     1      -0.394   9.398  22.767  0.00  0.00    +0.000 A 
ATOM     12  N   UNL     1      -0.900  10.540  23.252  0.00  0.00    +0.000 NA
ATOM     13  C   UNL     1      -0.856  11.710  22.526  0.00  0.00    +0.000 A 
ATOM     14  C   UNL     1      -1.174  12.811  23.243  0.00  0.00    +0.000 A 
ATOM     15  C   UNL     1      -0.909  14.004  22.644  0.00  0.00    +0.000 A 
ATOM     16  C   UNL     1      -0.687  14.127  21.281  0.00  0.00    +0.000 A 
ATOM     17  C   UNL     1      -0.355  12.977  20.554  0.00  0.00    +0.000 A 
ATOM     18  C   UNL     1      -0.318  11.731  21.217  0.00  0.00    +0.000 A 
ATOM     19  C   UNL     1       0.272  10.526  20.693  0.00  0.00    +0.000 A 
ATOM     20  C   UNL     1       0.969  10.371  19.433  0.00  0.00    +0.000 A 
ATOM     21  C   UNL     1       1.572   9.128  19.093  0.00  0.00    +0.000 A 
ATOM     22  C   UNL     1       2.279   8.786  17.749  0.00  0.00    +0.000 C 
ATOM     23  O   UNL     1       3.062   7.620  17.787  0.00  0.00    +0.000 OA
ENDROOT
TORSDOF 0
ENDMDL
MODEL 5
REMARK VINA RESULT:      -8.1      7.365      9.879
REMARK  Name = 
REMARK  0 active torsions:
REMARK  status: ('A' for Active; 'I' for Inactive)
REMARK                            x       y       z     vdW  Elec       q    Type
REMARK                         _______ _______ _______ _____ _____    ______ ____
ROOT
ATOM      1 CL   UNL     1      -0.922  15.270  19.612  0.00  0.00    +0.000 Cl
ATOM      2  C   UNL     1      -0.964  13.987  20.814  0.00  0.00    +0.000 A 
ATOM      3  C   UNL     1      -1.415  14.160  22.134  0.00  0.00    +0.000 A 
ATOM      4  C   UNL     1      -1.344  13.084  23.048  0.00  0.00    +0.000 A 
ATOM      5  C   UNL     1      -0.832  11.836  22.640  0.00  0.00    +0.000 A 
ATOM      6  C   UNL     1      -0.399  11.704  21.324  0.00  0.00    +0.000 A 
ATOM      7  C   UNL     1      -0.477  12.764  20.410  0.00  0.00    +0.000 A 
ATOM      8  C   UNL     1       0.234  10.461  20.906  0.00  0.00    +0.000 A 
ATOM      9  N   UNL     1       0.758  10.431  19.671  0.00  0.00    +0.000 NA
ATOM     10  C   UNL     1       1.437   9.378  19.154  0.00  0.00    +0.000 A 
ATOM     11  C   UNL     1       1.974   9.536  17.919  0.00  0.00    +0.000 A 
ATOM     12  N   UNL     1       2.721   8.560  17.386  0.00  0.00    +0.000 NA
ATOM     13  C   UNL     1       2.945   7.379  18.060  0.00  0.00    +0.000 A 
ATOM     14  C   UNL     1       3.911   6.610  17.509  0.00  0.00    +0.000 A 
ATOM     15  C   UNL     1       4.337   5.562  18.266  0.00  0.00    +0.000 A 
ATOM     16  C   UNL     1       3.614   5.070  19.342  0.00  0.00    +0.000 A 
ATOM     17  C   UNL     1       2.620   5.881  19.903  0.00  0.00    +0.000 A 
ATOM     18  C   UNL     1       2.347   7.138  19.321  0.00  0.00    +0.000 A 
ATOM     19  C   UNL     1       1.577   8.190  19.932  0.00  0.00    +0.000 A 
ATOM     20  C   UNL     1       0.984   8.185  21.253  0.00  0.00    +0.000 A 
ATOM     21  C   UNL     1       0.319   9.341  21.748  0.00  0.00    +0.000 A 
ATOM     22  C   UNL     1      -0.433   9.458  23.106  0.00  0.00    +0.000 C 
ATOM     23  O   UNL     1      -0.719  10.776  23.498  0.00  0.00    +0.000 OA
ENDROOT
TORSDOF 0
ENDMDL
MODEL 6
REMARK VINA RESULT:      -7.5      6.036      8.147
REMARK  Name = 
REMARK  0 active torsions:
REMARK  status: ('A' for Active; 'I' for Inactive)
REMARK                            x       y       z     vdW  Elec       q    Type
REMARK                         _______ _______ _______ _____ _____    ______ ____
ROOT
ATOM      1 CL   UNL     1       2.111  13.629  17.825  0.00  0.00    +0.000 Cl
ATOM      2  C   UNL     1       1.330  12.815  19.173  0.00  0.00    +0.000 A 
ATOM      3  C   UNL     1       0.677  13.482  20.225  0.00  0.00    +0.000 A 
ATOM      4  C   UNL     1       0.140  12.742  21.302  0.00  0.00    +0.000 A 
ATOM      5  C   UNL     1       0.248  11.336  21.323  0.00  0.00    +0.000 A 
ATOM      6  C   UNL     1       0.897  10.713  20.263  0.00  0.00    +0.000 A 
ATOM      7  C   UNL     1       1.422  11.441  19.186  0.00  0.00    +0.000 A 
ATOM      8  C   UNL     1       1.118   9.274  20.312  0.00  0.00    +0.000 A 
ATOM      9  N   UNL     1       1.868   8.740  19.336  0.00  0.00    +0.000 NA
ATOM     10  C   UNL     1       2.222   7.433  19.271  0.00  0.00    +0.000 A 
ATOM     11  C   UNL     1       3.051   7.068  18.263  0.00  0.00    +0.000 A 
ATOM     12  N   UNL     1       3.499   5.807  18.190  0.00  0.00    +0.000 NA
ATOM     13  C   UNL     1       3.118   4.857  19.113  0.00  0.00    +0.000 A 
ATOM     14  C   UNL     1       3.841   3.716  19.053  0.00  0.00    +0.000 A 
ATOM     15  C   UNL     1       3.671   2.853  20.092  0.00  0.00    +0.000 A 
ATOM     16  C   UNL     1       2.590   2.922  20.957  0.00  0.00    +0.000 A 
ATOM     17  C   UNL     1       1.854   4.113  21.009  0.00  0.00    +0.000 A 
ATOM     18  C   UNL     1       2.197   5.172  20.142  0.00  0.00    +0.000 A 
ATOM     19  C   UNL     1       1.739   6.532  20.265  0.00  0.00    +0.000 A 
ATOM     20  C   UNL     1       0.893   7.078  21.307  0.00  0.00    +0.000 A 
ATOM     21  C   UNL     1       0.595   8.469  21.335  0.00  0.00    +0.000 A 
ATOM     22  C   UNL     1      -0.359   9.183  22.337  0.00  0.00    +0.000 C 
ATOM     23  O   UNL     1      -0.233  10.582  22.358  0.00  0.00    +0.000 OA
ENDROOT
TORSDOF 0
ENDMDL
MODEL 7
REMARK VINA RESULT:      -7.5      5.695      7.364
REMARK  Name = 
REMARK  0 active torsions:
REMARK  status: ('A' for Active; 'I' for Inactive)
REMARK                            x       y       z     vdW  Elec       q    Type
REMARK                         _______ _______ _______ _____ _____    ______ ____
ROOT
ATOM      1 CL   UNL     1       2.139   2.516  21.944  0.00  0.00    +0.000 Cl
ATOM      2  C   UNL     1       2.779   3.413  20.574  0.00  0.00    +0.000 A 
ATOM      3  C   UNL     1       3.766   2.920  19.702  0.00  0.00    +0.000 A 
ATOM      4  C   UNL     1       4.268   3.745  18.669  0.00  0.00    +0.000 A 
ATOM      5  C   UNL     1       3.778   5.056  18.504  0.00  0.00    +0.000 A 
ATOM      6  C   UNL     1       2.799   5.505  19.385  0.00  0.00    +0.000 A 
ATOM      7  C   UNL     1       2.289   4.688  20.404  0.00  0.00    +0.000 A 
ATOM      8  C   UNL     1       2.354   6.890  19.305  0.00  0.00    +0.000 A 
ATOM      9  N   UNL     1       1.513   7.314  20.262  0.00  0.00    +0.000 NA
ATOM     10  C   UNL     1       1.058   8.586  20.370  0.00  0.00    +0.000 A 
ATOM     11  C   UNL     1       0.276   8.872  21.440  0.00  0.00    +0.000 A 
ATOM     12  N   UNL     1      -0.141  10.129  21.645  0.00  0.00    +0.000 NA
ATOM     13  C   UNL     1       0.191  11.145  20.775  0.00  0.00    +0.000 A 
ATOM     14  C   UNL     1      -0.089  12.381  21.247  0.00  0.00    +0.000 A 
ATOM     15  C   UNL     1       0.440  13.418  20.540  0.00  0.00    +0.000 A 
ATOM     16  C   UNL     1       0.908  13.280  19.243  0.00  0.00    +0.000 A 
ATOM     17  C   UNL     1       1.197  11.993  18.771  0.00  0.00    +0.000 A 
ATOM     18  C   UNL     1       0.944  10.882  19.606  0.00  0.00    +0.000 A 
ATOM     19  C   UNL     1       1.440   9.548  19.389  0.00  0.00    +0.000 A 
ATOM     20  C   UNL     1       2.316   9.103  18.324  0.00  0.00    +0.000 A 
ATOM     21  C   UNL     1       2.788   7.761  18.295  0.00  0.00    +0.000 A 
ATOM     22  C   UNL     1       3.661   7.119  17.178  0.00  0.00    +0.000 C 
ATOM     23  O   UNL     1       4.254   5.898  17.537  0.00  0.00    +0.000 OA
ENDROOT
TORSDOF 0
ENDMDL
MODEL 8
REMARK VINA RESULT:      -6.9      5.588      8.015
REMARK  Name = 
REMARK  0 active torsions:
REMARK  status: ('A' for Active; 'I' for Inactive)
REMARK                            x       y       z     vdW  Elec       q    Type
REMARK                         _______ _______ _______ _____ _____    ______ ____
ROOT
ATOM      1 CL   UNL     1      -1.069   9.443  23.483  0.00  0.00    +0.000 Cl
ATOM      2  C   UNL     1      -0.426  10.089  21.980  0.00  0.00    +0.000 A 
ATOM      3  C   UNL     1      -0.817  11.317  21.419  0.00  0.00    +0.000 A 
ATOM      4  C   UNL     1      -0.294  11.718  20.169  0.00  0.00    +0.000 A 
ATOM      5  C   UNL     1       0.625  10.896  19.485  0.00  0.00    +0.000 A 
ATOM      6  C   UNL     1       0.989   9.690  20.074  0.00  0.00    +0.000 A 
ATOM      7  C   UNL     1       0.483   9.292  21.320  0.00  0.00    +0.000 A 
ATOM      8  C   UNL     1       1.851   8.773  19.341  0.00  0.00    +0.000 A 
ATOM      9  N   UNL     1       2.062   7.567  19.889  0.00  0.00    +0.000 NA
ATOM     10  C   UNL     1       2.783   6.578  19.307  0.00  0.00    +0.000 A 
ATOM     11  C   UNL     1       2.835   5.389  19.956  0.00  0.00    +0.000 A 
ATOM     12  N   UNL     1       3.466   4.349  19.394  0.00  0.00    +0.000 NA
ATOM     13  C   UNL     1       4.087   4.463  18.170  0.00  0.00    +0.000 A 
ATOM     14  C   UNL     1       4.455   3.280  17.630  0.00  0.00    +0.000 A 
ATOM     15  C   UNL     1       4.844   3.319  16.326  0.00  0.00    +0.000 A 
ATOM     16  C   UNL     1       5.206   4.494  15.685  0.00  0.00    +0.000 A 
ATOM     17  C   UNL     1       4.813   5.711  16.256  0.00  0.00    +0.000 A 
ATOM     18  C   UNL     1       4.122   5.703  17.487  0.00  0.00    +0.000 A 
ATOM     19  C   UNL     1       3.412   6.822  18.051  0.00  0.00    +0.000 A 
ATOM     20  C   UNL     1       3.231   8.131  17.458  0.00  0.00    +0.000 A 
ATOM     21  C   UNL     1       2.428   9.110  18.106  0.00  0.00    +0.000 A 
ATOM     22  C   UNL     1       2.210  10.578  17.637  0.00  0.00    +0.000 C 
ATOM     23  O   UNL     1       1.134  11.232  18.261  0.00  0.00    +0.000 OA
ENDROOT
TORSDOF 0
ENDMDL
MODEL 9
REMARK VINA RESULT:      -6.8      8.173     10.410
REMARK  Name = 
REMARK  0 active torsions:
REMARK  status: ('A' for Active; 'I' for Inactive)
REMARK                            x       y       z     vdW  Elec       q    Type
REMARK                         _______ _______ _______ _____ _____    ______ ____
ROOT
ATOM      1 CL   UNL     1      -3.591  12.251  24.197  0.00  0.00    +0.000 Cl
ATOM      2  C   UNL     1      -2.874  12.776  22.680  0.00  0.00    +0.000 A 
ATOM      3  C   UNL     1      -3.281  13.920  21.971  0.00  0.00    +0.000 A 
ATOM      4  C   UNL     1      -2.690  14.221  20.723  0.00  0.00    +0.000 A 
ATOM      5  C   UNL     1      -1.688  13.385  20.189  0.00  0.00    +0.000 A 
ATOM      6  C   UNL     1      -1.311  12.264  20.923  0.00  0.00    +0.000 A 
ATOM      7  C   UNL     1      -1.885  11.967  22.167  0.00  0.00    +0.000 A 
ATOM      8  C   UNL     1      -0.359  11.326  20.346  0.00  0.00    +0.000 A 
ATOM      9  N   UNL     1      -0.132  10.193  21.029  0.00  0.00    +0.000 NA
ATOM     10  C   UNL     1       0.672   9.189  20.600  0.00  0.00    +0.000 A 
ATOM     11  C   UNL     1       0.733   8.076  21.370  0.00  0.00    +0.000 A 
ATOM     12  N   UNL     1       1.449   7.020  20.961  0.00  0.00    +0.000 NA
ATOM     13  C   UNL     1       2.149   7.044  19.775  0.00  0.00    +0.000 A 
ATOM     14  C   UNL     1       2.607   5.833  19.386  0.00  0.00    +0.000 A 
ATOM     15  C   UNL     1       3.085   5.762  18.113  0.00  0.00    +0.000 A 
ATOM     16  C   UNL     1       3.437   6.885  17.379  0.00  0.00    +0.000 A 
ATOM     17  C   UNL     1       2.950   8.131  17.794  0.00  0.00    +0.000 A 
ATOM     18  C   UNL     1       2.174   8.209  18.971  0.00  0.00    +0.000 A 
ATOM     19  C   UNL     1       1.376   9.340  19.369  0.00  0.00    +0.000 A 
ATOM     20  C   UNL     1       1.178  10.572  18.633  0.00  0.00    +0.000 A 
ATOM     21  C   UNL     1       0.287  11.567  19.124  0.00  0.00    +0.000 A 
ATOM     22  C   UNL     1       0.036  12.967  18.492  0.00  0.00    +0.000 C 
ATOM     23  O   UNL     1      -1.110  13.622  18.973  0.00  0.00    +0.000 OA
ENDROOT
TORSDOF 0
ENDMDL
