MODEL 1
REMARK VINA RESULT:      -6.9      0.000      0.000
REMARK  Name = 
REMARK  8 active torsions:
REMARK  status: ('A' for Active; 'I' for Inactive)
REMARK    1  A    between atoms: C_1  and  C_2
REMARK    2  A    between atoms: C_2  and  C_3
REMARK    3  A    between atoms: C_2  and  C_4
REMARK    4  A    between atoms: C_4  and  C_5
REMARK    5  A    between atoms: C_5  and  N_6
REMARK    6  A    between atoms: C_9  and  C_10
REMARK    7  A    between atoms: C_10  and  C_11
REMARK    8  A    between atoms: N_13  and  O_14
REMARK                            x       y       z     vdW  Elec       q    Type
REMARK                         _______ _______ _______ _____ _____    ______ ____
ROOT
ATOM      1  N   UNL     1       3.445   6.304  18.215  0.00  0.00    +0.000 N 
ATOM      2  C   UNL     1       4.328   5.993  17.165  0.00  0.00    +0.000 C 
ATOM      3  O   UNL     1       4.832   6.844  16.440  0.00  0.00    +0.000 OA
ATOM      4  C   UNL     1       4.728   4.534  16.994  0.00  0.00    +0.000 C 
ATOM      5  S   UNL     1       3.217   3.539  16.791  0.00  0.00    +0.000 S 
ATOM      6  C   UNL     1       2.431   4.039  18.313  0.00  0.00    +0.000 A 
ATOM      7  C   UNL     1       1.608   3.097  18.946  0.00  0.00    +0.000 A 
ATOM      8  C   UNL     1       1.020   3.384  20.176  0.00  0.00    +0.000 A 
ATOM      9  C   UNL     1       1.252   4.617  20.772  0.00  0.00    +0.000 A 
ATOM     10  C   UNL     1       2.050   5.570  20.134  0.00  0.00    +0.000 A 
ATOM     11  C   UNL     1       2.645   5.311  18.886  0.00  0.00    +0.000 A 
ENDROOT
BRANCH   1  12
ATOM     12  C   UNL     1       3.158   7.735  18.399  0.00  0.00    +0.000 C 
BRANCH  12  13
ATOM     13  C   UNL     1       1.901   8.197  17.636  0.00  0.00    +0.000 C 
BRANCH  13  15
ATOM     14  C   UNL     1       1.060   9.202  19.784  0.00  0.00    +0.000 C 
ATOM     15  C   UNL     1       1.207   9.411  18.281  0.00  0.00    +0.000 C 
ATOM     16  C   UNL     1       1.988  10.697  18.009  0.00  0.00    +0.000 C 
ENDBRANCH  13  15
ENDBRANCH  12  13
ENDBRANCH   1  12
BRANCH   4  17
ATOM     17  C   UNL     1       5.572   4.020  18.156  0.00  0.00    +0.000 C 
BRANCH  17  18
ATOM     18  C   UNL     1       6.905   4.721  18.243  0.00  0.00    +0.000 C 
ATOM     19  O   UNL     1       7.756   4.708  17.360  0.00  0.00    +0.000 OA
ATOM     20  N   UNL     1       7.107   5.365  19.440  0.00  0.00    +0.000 N 
ATOM     21  H   UNL     1       6.531   5.259  20.268  0.00  0.00    +0.000 HD
BRANCH  20  22
ATOM     22  O   UNL     1       8.346   6.021  19.598  0.00  0.00    +0.000 OA
ATOM     23  H   UNL     1       8.295   6.730  18.918  0.00  0.00    +0.000 HD
ENDBRANCH  20  22
ENDBRANCH  17  18
ENDBRANCH   4  17
TORSDOF 6
ENDMDL
MODEL 2
REMARK VINA RESULT:      -6.7      1.316      1.667
REMARK  Name = 
REMARK  8 active torsions:
REMARK  status: ('A' for Active; 'I' for Inactive)
REMARK    1  A    between atoms: C_1  and  C_2
REMARK    2  A    between atoms: C_2  and  C_3
REMARK    3  A    between atoms: C_2  and  C_4
REMARK    4  A    between atoms: C_4  and  C_5
REMARK    5  A    between atoms: C_5  and  N_6
REMARK    6  A    between atoms: C_9  and  C_10
REMARK    7  A    between atoms: C_10  and  C_11
REMARK    8  A    between atoms: N_13  and  O_14
REMARK                            x       y       z     vdW  Elec       q    Type
REMARK                         _______ _______ _______ _____ _____    ______ ____
ROOT
ATOM      1  N   UNL     1       3.018   6.065  18.420  0.00  0.00    +0.000 N 
ATOM      2  C   UNL     1       4.214   6.375  17.749  0.00  0.00    +0.000 C 
ATOM      3  O   UNL     1       4.519   7.517  17.417  0.00  0.00    +0.000 OA
ATOM      4  C   UNL     1       5.199   5.240  17.507  0.00  0.00    +0.000 C 
ATOM      5  S   UNL     1       4.348   3.920  16.588  0.00  0.00    +0.000 S 
ATOM      6  C   UNL     1       3.022   3.671  17.756  0.00  0.00    +0.000 A 
ATOM      7  C   UNL     1       2.504   2.373  17.868  0.00  0.00    +0.000 A 
ATOM      8  C   UNL     1       1.522   2.082  18.812  0.00  0.00    +0.000 A 
ATOM      9  C   UNL     1       1.053   3.091  19.642  0.00  0.00    +0.000 A 
ATOM     10  C   UNL     1       1.547   4.393  19.519  0.00  0.00    +0.000 A 
ATOM     11  C   UNL     1       2.530   4.717  18.566  0.00  0.00    +0.000 A 
ENDROOT
BRANCH   1  12
ATOM     12  C   UNL     1       2.138   7.207  18.711  0.00  0.00    +0.000 C 
BRANCH  12  13
ATOM     13  C   UNL     1       2.057   7.532  20.216  0.00  0.00    +0.000 C 
BRANCH  13  15
ATOM     14  C   UNL     1       1.210   9.155  21.942  0.00  0.00    +0.000 C 
ATOM     15  C   UNL     1       0.961   8.558  20.561  0.00  0.00    +0.000 C 
ATOM     16  C   UNL     1       0.905   9.672  19.516  0.00  0.00    +0.000 C 
ENDBRANCH  13  15
ENDBRANCH  12  13
ENDBRANCH   1  12
BRANCH   4  17
ATOM     17  C   UNL     1       5.802   4.706  18.803  0.00  0.00    +0.000 C 
BRANCH  17  18
ATOM     18  C   UNL     1       6.993   5.516  19.251  0.00  0.00    +0.000 C 
ATOM     19  O   UNL     1       7.579   5.359  20.317  0.00  0.00    +0.000 OA
ATOM     20  N   UNL     1       7.357   6.495  18.357  0.00  0.00    +0.000 N 
ATOM     21  H   UNL     1       6.807   6.793  17.559  0.00  0.00    +0.000 HD
BRANCH  20  22
ATOM     22  O   UNL     1       8.449   7.307  18.727  0.00  0.00    +0.000 OA
ATOM     23  H   UNL     1       8.191   8.182  18.361  0.00  0.00    +0.000 HD
ENDBRANCH  20  22
ENDBRANCH  17  18
ENDBRANCH   4  17
TORSDOF 6
ENDMDL
MODEL 3
REMARK VINA RESULT:      -6.7      1.382      2.073
REMARK  Name = 
REMARK  8 active torsions:
REMARK  status: ('A' for Active; 'I' for Inactive)
REMARK    1  A    between atoms: C_1  and  C_2
REMARK    2  A    between atoms: C_2  and  C_3
REMARK    3  A    between atoms: C_2  and  C_4
REMARK    4  A    between atoms: C_4  and  C_5
REMARK    5  A    between atoms: C_5  and  N_6
REMARK    6  A    between atoms: C_9  and  C_10
REMARK    7  A    between atoms: C_10  and  C_11
REMARK    8  A    between atoms: N_13  and  O_14
REMARK                            x       y       z     vdW  Elec       q    Type
REMARK                         _______ _______ _______ _____ _____    ______ ____
ROOT
ATOM      1  N   UNL     1       2.377   6.347  19.173  0.00  0.00    +0.000 N 
ATOM      2  C   UNL     1       3.390   6.757  18.289  0.00  0.00    +0.000 C 
ATOM      3  O   UNL     1       3.470   7.898  17.846  0.00  0.00    +0.000 OA
ATOM      4  C   UNL     1       4.473   5.744  17.945  0.00  0.00    +0.000 C 
ATOM      5  S   UNL     1       3.680   4.255  17.262  0.00  0.00    +0.000 S 
ATOM      6  C   UNL     1       2.613   3.929  18.655  0.00  0.00    +0.000 A 
ATOM      7  C   UNL     1       2.310   2.588  18.927  0.00  0.00    +0.000 A 
ATOM      8  C   UNL     1       1.547   2.246  20.042  0.00  0.00    +0.000 A 
ATOM      9  C   UNL     1       1.082   3.248  20.883  0.00  0.00    +0.000 A 
ATOM     10  C   UNL     1       1.359   4.589  20.603  0.00  0.00    +0.000 A 
ATOM     11  C   UNL     1       2.116   4.962  19.478  0.00  0.00    +0.000 A 
ENDROOT
BRANCH   1  12
ATOM     12  C   UNL     1       1.403   7.384  19.548  0.00  0.00    +0.000 C 
BRANCH  12  13
ATOM     13  C   UNL     1       1.688   8.002  20.931  0.00  0.00    +0.000 C 
BRANCH  13  15
ATOM     14  C   UNL     1       0.369   9.896  19.930  0.00  0.00    +0.000 C 
ATOM     15  C   UNL     1       0.838   9.251  21.229  0.00  0.00    +0.000 C 
ATOM     16  C   UNL     1      -0.369   8.897  22.099  0.00  0.00    +0.000 C 
ENDBRANCH  13  15
ENDBRANCH  12  13
ENDBRANCH   1  12
BRANCH   4  17
ATOM     17  C   UNL     1       5.351   5.399  19.144  0.00  0.00    +0.000 C 
BRANCH  17  18
ATOM     18  C   UNL     1       6.809   5.297  18.771  0.00  0.00    +0.000 C 
ATOM     19  O   UNL     1       7.650   6.156  19.015  0.00  0.00    +0.000 OA
ATOM     20  N   UNL     1       7.119   4.147  18.086  0.00  0.00    +0.000 N 
ATOM     21  H   UNL     1       6.445   3.497  17.696  0.00  0.00    +0.000 HD
BRANCH  20  22
ATOM     22  O   UNL     1       8.463   4.000  17.684  0.00  0.00    +0.000 OA
ATOM     23  H   UNL     1       8.846   3.475  18.422  0.00  0.00    +0.000 HD
ENDBRANCH  20  22
ENDBRANCH  17  18
ENDBRANCH   4  17
TORSDOF 6
ENDMDL
MODEL 4
REMARK VINA RESULT:      -6.6      1.069      1.315
REMARK  Name = 
REMARK  8 active torsions:
REMARK  status: ('A' for Active; 'I' for Inactive)
REMARK    1  A    between atoms: C_1  and  C_2
REMARK    2  A    between atoms: C_2  and  C_3
REMARK    3  A    between atoms: C_2  and  C_4
REMARK    4  A    between atoms: C_4  and  C_5
REMARK    5  A    between atoms: C_5  and  N_6
REMARK    6  A    between atoms: C_9  and  C_10
REMARK    7  A    between atoms: C_10  and  C_11
REMARK    8  A    between atoms: N_13  and  O_14
REMARK                            x       y       z     vdW  Elec       q    Type
REMARK                         _______ _______ _______ _____ _____    ______ ____
ROOT
ATOM      1  N   UNL     1       3.050   6.327  18.787  0.00  0.00    +0.000 N 
ATOM      2  C   UNL     1       4.124   6.433  17.885  0.00  0.00    +0.000 C 
ATOM      3  O   UNL     1       4.508   7.503  17.424  0.00  0.00    +0.000 OA
ATOM      4  C   UNL     1       4.883   5.158  17.545  0.00  0.00    +0.000 C 
ATOM      5  S   UNL     1       3.702   3.936  16.893  0.00  0.00    +0.000 S 
ATOM      6  C   UNL     1       2.607   3.931  18.302  0.00  0.00    +0.000 A 
ATOM      7  C   UNL     1       1.952   2.727  18.597  0.00  0.00    +0.000 A 
ATOM      8  C   UNL     1       1.141   2.621  19.725  0.00  0.00    +0.000 A 
ATOM      9  C   UNL     1       0.981   3.722  20.556  0.00  0.00    +0.000 A 
ATOM     10  C   UNL     1       1.610   4.932  20.253  0.00  0.00    +0.000 A 
ATOM     11  C   UNL     1       2.424   5.070  19.115  0.00  0.00    +0.000 A 
ENDROOT
BRANCH   1  12
ATOM     12  C   UNL     1       2.403   7.595  19.156  0.00  0.00    +0.000 C 
BRANCH  12  13
ATOM     13  C   UNL     1       1.649   8.248  17.981  0.00  0.00    +0.000 C 
BRANCH  13  15
ATOM     14  C   UNL     1      -0.379   9.717  17.735  0.00  0.00    +0.000 C 
ATOM     15  C   UNL     1       1.016   9.605  18.340  0.00  0.00    +0.000 C 
ATOM     16  C   UNL     1       0.940   9.790  19.856  0.00  0.00    +0.000 C 
ENDBRANCH  13  15
ENDBRANCH  12  13
ENDBRANCH   1  12
BRANCH   4  17
ATOM     17  C   UNL     1       5.650   4.599  18.740  0.00  0.00    +0.000 C 
BRANCH  17  18
ATOM     18  C   UNL     1       6.819   5.471  19.123  0.00  0.00    +0.000 C 
ATOM     19  O   UNL     1       7.392   5.428  20.207  0.00  0.00    +0.000 OA
ATOM     20  N   UNL     1       7.179   6.365  18.144  0.00  0.00    +0.000 N 
ATOM     21  H   UNL     1       6.636   6.575  17.313  0.00  0.00    +0.000 HD
BRANCH  20  22
ATOM     22  O   UNL     1       8.251   7.230  18.448  0.00  0.00    +0.000 OA
ATOM     23  H   UNL     1       8.946   6.929  17.820  0.00  0.00    +0.000 HD
ENDBRANCH  20  22
ENDBRANCH  17  18
ENDBRANCH   4  17
TORSDOF 6
ENDMDL
MODEL 5
REMARK VINA RESULT:      -6.5      3.075      5.230
REMARK  Name = 
REMARK  8 active torsions:
REMARK  status: ('A' for Active; 'I' for Inactive)
REMARK    1  A    between atoms: C_1  and  C_2
REMARK    2  A    between atoms: C_2  and  C_3
REMARK    3  A    between atoms: C_2  and  C_4
REMARK    4  A    between atoms: C_4  and  C_5
REMARK    5  A    between atoms: C_5  and  N_6
REMARK    6  A    between atoms: C_9  and  C_10
REMARK    7  A    between atoms: C_10  and  C_11
REMARK    8  A    between atoms: N_13  and  O_14
REMARK                            x       y       z     vdW  Elec       q    Type
REMARK                         _______ _______ _______ _____ _____    ______ ____
ROOT
ATOM      1  N   UNL     1       5.799   4.473  16.446  0.00  0.00    +0.000 N 
ATOM      2  C   UNL     1       7.120   4.897  16.675  0.00  0.00    +0.000 C 
ATOM      3  O   UNL     1       8.071   4.519  15.998  0.00  0.00    +0.000 OA
ATOM      4  C   UNL     1       7.345   5.938  17.762  0.00  0.00    +0.000 C 
ATOM      5  S   UNL     1       6.666   5.299  19.326  0.00  0.00    +0.000 S 
ATOM      6  C   UNL     1       5.005   5.021  18.735  0.00  0.00    +0.000 A 
ATOM      7  C   UNL     1       3.964   5.180  19.660  0.00  0.00    +0.000 A 
ATOM      8  C   UNL     1       2.636   5.056  19.259  0.00  0.00    +0.000 A 
ATOM      9  C   UNL     1       2.348   4.769  17.931  0.00  0.00    +0.000 A 
ATOM     10  C   UNL     1       3.383   4.585  17.009  0.00  0.00    +0.000 A 
ATOM     11  C   UNL     1       4.732   4.692  17.391  0.00  0.00    +0.000 A 
ENDROOT
BRANCH   1  12
ATOM     12  C   UNL     1       5.617   3.536  15.327  0.00  0.00    +0.000 C 
BRANCH  12  13
ATOM     13  C   UNL     1       5.426   4.249  13.973  0.00  0.00    +0.000 C 
BRANCH  13  15
ATOM     14  C   UNL     1       4.696   3.282  11.768  0.00  0.00    +0.000 C 
ATOM     15  C   UNL     1       5.844   3.390  12.766  0.00  0.00    +0.000 C 
ATOM     16  C   UNL     1       7.076   3.977  12.077  0.00  0.00    +0.000 C 
ENDBRANCH  13  15
ENDBRANCH  12  13
ENDBRANCH   1  12
BRANCH   4  17
ATOM     17  C   UNL     1       6.735   7.291  17.411  0.00  0.00    +0.000 C 
BRANCH  17  18
ATOM     18  C   UNL     1       7.639   8.438  17.787  0.00  0.00    +0.000 C 
ATOM     19  O   UNL     1       7.666   9.520  17.210  0.00  0.00    +0.000 OA
ATOM     20  N   UNL     1       8.478   8.151  18.837  0.00  0.00    +0.000 N 
ATOM     21  H   UNL     1       8.633   7.228  19.229  0.00  0.00    +0.000 HD
BRANCH  20  22
ATOM     22  O   UNL     1       9.370   9.173  19.224  0.00  0.00    +0.000 OA
ATOM     23  H   UNL     1      10.026   9.166  18.492  0.00  0.00    +0.000 HD
ENDBRANCH  20  22
ENDBRANCH  17  18
ENDBRANCH   4  17
TORSDOF 6
ENDMDL
MODEL 6
REMARK VINA RESULT:      -6.4      2.583      4.892
REMARK  Name = 
REMARK  8 active torsions:
REMARK  status: ('A' for Active; 'I' for Inactive)
REMARK    1  A    between atoms: C_1  and  C_2
REMARK    2  A    between atoms: C_2  and  C_3
REMARK    3  A    between atoms: C_2  and  C_4
REMARK    4  A    between atoms: C_4  and  C_5
REMARK    5  A    between atoms: C_5  and  N_6
REMARK    6  A    between atoms: C_9  and  C_10
REMARK    7  A    between atoms: C_10  and  C_11
REMARK    8  A    between atoms: N_13  and  O_14
REMARK                            x       y       z     vdW  Elec       q    Type
REMARK                         _______ _______ _______ _____ _____    ______ ____
ROOT
ATOM      1  N   UNL     1       4.853   4.735  18.396  0.00  0.00    +0.000 N 
ATOM      2  C   UNL     1       6.149   4.683  17.853  0.00  0.00    +0.000 C 
ATOM      3  O   UNL     1       7.002   3.888  18.233  0.00  0.00    +0.000 OA
ATOM      4  C   UNL     1       6.458   5.608  16.684  0.00  0.00    +0.000 C 
ATOM      5  S   UNL     1       6.116   7.321  17.195  0.00  0.00    +0.000 S 
ATOM      6  C   UNL     1       4.412   7.065  17.658  0.00  0.00    +0.000 A 
ATOM      7  C   UNL     1       3.532   8.142  17.476  0.00  0.00    +0.000 A 
ATOM      8  C   UNL     1       2.172   7.997  17.741  0.00  0.00    +0.000 A 
ATOM      9  C   UNL     1       1.691   6.776  18.194  0.00  0.00    +0.000 A 
ATOM     10  C   UNL     1       2.567   5.706  18.402  0.00  0.00    +0.000 A 
ATOM     11  C   UNL     1       3.946   5.829  18.154  0.00  0.00    +0.000 A 
ENDROOT
BRANCH   1  12
ATOM     12  C   UNL     1       4.572   3.762  19.463  0.00  0.00    +0.000 C 
BRANCH  12  13
ATOM     13  C   UNL     1       3.845   2.503  18.948  0.00  0.00    +0.000 C 
BRANCH  13  15
ATOM     14  C   UNL     1       2.454   3.063  20.969  0.00  0.00    +0.000 C 
ATOM     15  C   UNL     1       2.562   2.174  19.734  0.00  0.00    +0.000 C 
ATOM     16  C   UNL     1       1.322   2.350  18.857  0.00  0.00    +0.000 C 
ENDBRANCH  13  15
ENDBRANCH  12  13
ENDBRANCH   1  12
BRANCH   4  17
ATOM     17  C   UNL     1       5.675   5.242  15.428  0.00  0.00    +0.000 C 
BRANCH  17  18
ATOM     18  C   UNL     1       6.573   4.749  14.321  0.00  0.00    +0.000 C 
ATOM     19  O   UNL     1       7.638   5.269  14.007  0.00  0.00    +0.000 OA
ATOM     20  N   UNL     1       6.070   3.658  13.653  0.00  0.00    +0.000 N 
ATOM     21  H   UNL     1       5.124   3.302  13.740  0.00  0.00    +0.000 HD
BRANCH  20  22
ATOM     22  O   UNL     1       6.850   3.161  12.588  0.00  0.00    +0.000 OA
ATOM     23  H   UNL     1       7.096   3.983  12.108  0.00  0.00    +0.000 HD
ENDBRANCH  20  22
ENDBRANCH  17  18
ENDBRANCH   4  17
TORSDOF 6
ENDMDL
MODEL 7
REMARK VINA RESULT:      -6.3      1.504      2.036
REMARK  Name = 
REMARK  8 active torsions:
REMARK  status: ('A' for Active; 'I' for Inactive)
REMARK    1  A    between atoms: C_1  and  C_2
REMARK    2  A    between atoms: C_2  and  C_3
REMARK    3  A    between atoms: C_2  and  C_4
REMARK    4  A    between atoms: C_4  and  C_5
REMARK    5  A    between atoms: C_5  and  N_6
REMARK    6  A    between atoms: C_9  and  C_10
REMARK    7  A    between atoms: C_10  and  C_11
REMARK    8  A    between atoms: N_13  and  O_14
REMARK                            x       y       z     vdW  Elec       q    Type
REMARK                         _______ _______ _______ _____ _____    ______ ____
ROOT
ATOM      1  N   UNL     1       3.040   5.954  19.168  0.00  0.00    +0.000 N 
ATOM      2  C   UNL     1       3.595   6.014  17.878  0.00  0.00    +0.000 C 
ATOM      3  O   UNL     1       3.779   7.068  17.277  0.00  0.00    +0.000 OA
ATOM      4  C   UNL     1       4.059   4.707  17.251  0.00  0.00    +0.000 C 
ATOM      5  S   UNL     1       2.655   3.548  17.221  0.00  0.00    +0.000 S 
ATOM      6  C   UNL     1       2.315   3.586  18.972  0.00  0.00    +0.000 A 
ATOM      7  C   UNL     1       1.809   2.413  19.549  0.00  0.00    +0.000 A 
ATOM      8  C   UNL     1       1.590   2.338  20.923  0.00  0.00    +0.000 A 
ATOM      9  C   UNL     1       1.873   3.438  21.721  0.00  0.00    +0.000 A 
ATOM     10  C   UNL     1       2.354   4.619  21.148  0.00  0.00    +0.000 A 
ATOM     11  C   UNL     1       2.572   4.726  19.762  0.00  0.00    +0.000 A 
ENDROOT
BRANCH   1  12
ATOM     12  C   UNL     1       2.690   7.249  19.771  0.00  0.00    +0.000 C 
BRANCH  12  13
ATOM     13  C   UNL     1       1.309   7.237  20.456  0.00  0.00    +0.000 C 
BRANCH  13  15
ATOM     14  C   UNL     1       0.692   9.610  19.889  0.00  0.00    +0.000 C 
ATOM     15  C   UNL     1       0.896   8.609  21.021  0.00  0.00    +0.000 C 
ATOM     16  C   UNL     1      -0.384   8.496  21.851  0.00  0.00    +0.000 C 
ENDBRANCH  13  15
ENDBRANCH  12  13
ENDBRANCH   1  12
BRANCH   4  17
ATOM     17  C   UNL     1       5.255   4.102  17.980  0.00  0.00    +0.000 C 
BRANCH  17  18
ATOM     18  C   UNL     1       6.567   4.613  17.439  0.00  0.00    +0.000 C 
ATOM     19  O   UNL     1       7.656   4.431  17.973  0.00  0.00    +0.000 OA
ATOM     20  N   UNL     1       6.435   5.347  16.285  0.00  0.00    +0.000 N 
ATOM     21  H   UNL     1       5.558   5.686  15.903  0.00  0.00    +0.000 HD
BRANCH  20  22
ATOM     22  O   UNL     1       7.623   5.877  15.740  0.00  0.00    +0.000 OA
ATOM     23  H   UNL     1       8.315   5.450  16.293  0.00  0.00    +0.000 HD
ENDBRANCH  20  22
ENDBRANCH  17  18
ENDBRANCH   4  17
TORSDOF 6
ENDMDL
MODEL 8
REMARK VINA RESULT:      -6.3      2.414      5.334
REMARK  Name = 
REMARK  8 active torsions:
REMARK  status: ('A' for Active; 'I' for Inactive)
REMARK    1  A    between atoms: C_1  and  C_2
REMARK    2  A    between atoms: C_2  and  C_3
REMARK    3  A    between atoms: C_2  and  C_4
REMARK    4  A    between atoms: C_4  and  C_5
REMARK    5  A    between atoms: C_5  and  N_6
REMARK    6  A    between atoms: C_9  and  C_10
REMARK    7  A    between atoms: C_10  and  C_11
REMARK    8  A    between atoms: N_13  and  O_14
REMARK                            x       y       z     vdW  Elec       q    Type
REMARK                         _______ _______ _______ _____ _____    ______ ____
ROOT
ATOM      1  N   UNL     1       3.549   5.439  17.501  0.00  0.00    +0.000 N 
ATOM      2  C   UNL     1       3.845   6.791  17.750  0.00  0.00    +0.000 C 
ATOM      3  O   UNL     1       4.829   7.357  17.287  0.00  0.00    +0.000 OA
ATOM      4  C   UNL     1       2.840   7.591  18.567  0.00  0.00    +0.000 C 
ATOM      5  S   UNL     1       2.590   6.751  20.162  0.00  0.00    +0.000 S 
ATOM      6  C   UNL     1       2.091   5.174  19.494  0.00  0.00    +0.000 A 
ATOM      7  C   UNL     1       1.171   4.425  20.242  0.00  0.00    +0.000 A 
ATOM      8  C   UNL     1       0.674   3.220  19.752  0.00  0.00    +0.000 A 
ATOM      9  C   UNL     1       1.100   2.760  18.512  0.00  0.00    +0.000 A 
ATOM     10  C   UNL     1       2.035   3.489  17.773  0.00  0.00    +0.000 A 
ATOM     11  C   UNL     1       2.563   4.702  18.251  0.00  0.00    +0.000 A 
ENDROOT
BRANCH   1  12
ATOM     12  C   UNL     1       4.502   4.730  16.633  0.00  0.00    +0.000 C 
BRANCH  12  13
ATOM     13  C   UNL     1       5.617   4.017  17.424  0.00  0.00    +0.000 C 
BRANCH  13  15
ATOM     14  C   UNL     1       7.023   5.090  15.635  0.00  0.00    +0.000 C 
ATOM     15  C   UNL     1       7.033   4.472  17.028  0.00  0.00    +0.000 C 
ATOM     16  C   UNL     1       7.587   5.478  18.038  0.00  0.00    +0.000 C 
ENDBRANCH  13  15
ENDBRANCH  12  13
ENDBRANCH   1  12
BRANCH   4  17
ATOM     17  C   UNL     1       1.515   7.784  17.835  0.00  0.00    +0.000 C 
BRANCH  17  18
ATOM     18  C   UNL     1       1.077   9.227  17.823  0.00  0.00    +0.000 C 
ATOM     19  O   UNL     1      -0.091   9.598  17.800  0.00  0.00    +0.000 OA
ATOM     20  N   UNL     1       2.125  10.116  17.807  0.00  0.00    +0.000 N 
ATOM     21  H   UNL     1       3.096   9.876  17.639  0.00  0.00    +0.000 HD
BRANCH  20  22
ATOM     22  O   UNL     1       1.785  11.485  17.770  0.00  0.00    +0.000 OA
ATOM     23  H   UNL     1       2.643  11.906  17.539  0.00  0.00    +0.000 HD
ENDBRANCH  20  22
ENDBRANCH  17  18
ENDBRANCH   4  17
TORSDOF 6
ENDMDL
MODEL 9
REMARK VINA RESULT:      -6.3      0.885      1.436
REMARK  Name = 
REMARK  8 active torsions:
REMARK  status: ('A' for Active; 'I' for Inactive)
REMARK    1  A    between atoms: C_1  and  C_2
REMARK    2  A    between atoms: C_2  and  C_3
REMARK    3  A    between atoms: C_2  and  C_4
REMARK    4  A    between atoms: C_4  and  C_5
REMARK    5  A    between atoms: C_5  and  N_6
REMARK    6  A    between atoms: C_9  and  C_10
REMARK    7  A    between atoms: C_10  and  C_11
REMARK    8  A    between atoms: N_13  and  O_14
REMARK                            x       y       z     vdW  Elec       q    Type
REMARK                         _______ _______ _______ _____ _____    ______ ____
ROOT
ATOM      1  N   UNL     1       2.941   6.077  18.606  0.00  0.00    +0.000 N 
ATOM      2  C   UNL     1       3.917   6.103  17.595  0.00  0.00    +0.000 C 
ATOM      3  O   UNL     1       4.235   7.126  16.997  0.00  0.00    +0.000 OA
ATOM      4  C   UNL     1       4.659   4.806  17.302  0.00  0.00    +0.000 C 
ATOM      5  S   UNL     1       3.438   3.519  16.893  0.00  0.00    +0.000 S 
ATOM      6  C   UNL     1       2.490   3.643  18.400  0.00  0.00    +0.000 A 
ATOM      7  C   UNL     1       1.888   2.469  18.874  0.00  0.00    +0.000 A 
ATOM      8  C   UNL     1       1.196   2.467  20.083  0.00  0.00    +0.000 A 
ATOM      9  C   UNL     1       1.102   3.642  20.818  0.00  0.00    +0.000 A 
ATOM     10  C   UNL     1       1.678   4.822  20.338  0.00  0.00    +0.000 A 
ATOM     11  C   UNL     1       2.371   4.854  19.115  0.00  0.00    +0.000 A 
ENDROOT
BRANCH   1  12
ATOM     12  C   UNL     1       2.314   7.371  18.917  0.00  0.00    +0.000 C 
BRANCH  12  13
ATOM     13  C   UNL     1       1.985   7.534  20.415  0.00  0.00    +0.000 C 
BRANCH  13  15
ATOM     14  C   UNL     1       0.879   9.576  19.448  0.00  0.00    +0.000 C 
ATOM     15  C   UNL     1       1.204   8.822  20.733  0.00  0.00    +0.000 C 
ATOM     16  C   UNL     1      -0.087   8.506  21.489  0.00  0.00    +0.000 C 
ENDBRANCH  13  15
ENDBRANCH  12  13
ENDBRANCH   1  12
BRANCH   4  17
ATOM     17  C   UNL     1       5.550   4.370  18.461  0.00  0.00    +0.000 C 
BRANCH  17  18
ATOM     18  C   UNL     1       6.932   4.967  18.370  0.00  0.00    +0.000 C 
ATOM     19  O   UNL     1       7.748   4.700  17.495  0.00  0.00    +0.000 OA
ATOM     20  N   UNL     1       7.222   5.833  19.397  0.00  0.00    +0.000 N 
ATOM     21  H   UNL     1       6.669   5.949  20.240  0.00  0.00    +0.000 HD
BRANCH  20  22
ATOM     22  O   UNL     1       8.510   6.408  19.388  0.00  0.00    +0.000 OA
ATOM     23  H   UNL     1       8.823   6.202  18.478  0.00  0.00    +0.000 HD
ENDBRANCH  20  22
ENDBRANCH  17  18
ENDBRANCH   4  17
TORSDOF 6
ENDMDL
