MODEL 1
REMARK VINA RESULT:      -6.1      0.000      0.000
REMARK  Name = 
REMARK  10 active torsions:
REMARK  status: ('A' for Active; 'I' for Inactive)
REMARK    1  A    between atoms: C_1  and  N_2
REMARK    2  A    between atoms: N_5  and  C_6
REMARK    3  A    between atoms: C_6  and  O_7
REMARK    4  A    between atoms: O_7  and  C_8
REMARK    5  A    between atoms: C_8  and  N_9
REMARK    6  A    between atoms: N_12  and  C_13
REMARK    7  A    between atoms: C_14  and  C_15
REMARK    8  A    between atoms: N_16  and  O_17
REMARK    9  A    between atoms: C_18  and  C_19
REMARK   10  A    between atoms: N_20  and  O_21
REMARK                            x       y       z     vdW  Elec       q    Type
REMARK                         _______ _______ _______ _____ _____    ______ ____
ROOT
ATOM      1  O   UNL     1       4.233   3.594  16.990  0.00  0.00    +0.000 OA
ENDROOT
BRANCH   1   2
ATOM      2  C   UNL     1       5.384   3.992  17.738  0.00  0.00    +0.000 C 
BRANCH   2   7
ATOM      3  C   UNL     1       7.717   8.365  17.617  0.00  0.00    +0.000 C 
ATOM      4  N   UNL     1       6.755   7.287  17.364  0.00  0.00    +0.000 N 
ATOM      5  C   UNL     1       5.667   7.399  16.516  0.00  0.00    +0.000 A 
ATOM      6  C   UNL     1       5.018   6.205  16.544  0.00  0.00    +0.000 A 
ATOM      7  N   UNL     1       5.724   5.377  17.403  0.00  0.00    +0.000 N 
ATOM      8  C   UNL     1       6.796   6.046  17.919  0.00  0.00    +0.000 A 
BRANCH   8   9
ATOM      9  C   UNL     1       7.753   5.567  18.837  0.00  0.00    +0.000 C 
ATOM     10  N   UNL     1       7.635   5.577  20.133  0.00  0.00    +0.000 NA
BRANCH  10  11
ATOM     11  O   UNL     1       8.801   5.013  20.674  0.00  0.00    +0.000 OA
ATOM     12  H   UNL     1       8.552   4.091  20.890  0.00  0.00    +0.000 HD
ENDBRANCH  10  11
ENDBRANCH   8   9
ENDBRANCH   2   7
ENDBRANCH   1   2
BRANCH   1  13
ATOM     13  C   UNL     1       3.693   2.394  17.517  0.00  0.00    +0.000 C 
BRANCH  13  14
ATOM     14  N   UNL     1       2.726   2.740  18.556  0.00  0.00    +0.000 N 
ATOM     15  C   UNL     1       1.528   3.401  18.323  0.00  0.00    +0.000 A 
ATOM     16  C   UNL     1       0.877   3.486  19.514  0.00  0.00    +0.000 A 
ATOM     17  N   UNL     1       1.691   2.884  20.456  0.00  0.00    +0.000 N 
ATOM     18  C   UNL     1       1.351   2.763  21.880  0.00  0.00    +0.000 C 
ATOM     19  C   UNL     1       2.829   2.414  19.875  0.00  0.00    +0.000 A 
BRANCH  19  20
ATOM     20  C   UNL     1       3.874   1.732  20.533  0.00  0.00    +0.000 C 
ATOM     21  N   UNL     1       5.018   2.221  20.910  0.00  0.00    +0.000 NA
BRANCH  21  22
ATOM     22  O   UNL     1       5.737   1.191  21.536  0.00  0.00    +0.000 OA
ATOM     23  H   UNL     1       5.999   0.595  20.806  0.00  0.00    +0.000 HD
ENDBRANCH  21  22
ENDBRANCH  19  20
ENDBRANCH  13  14
ENDBRANCH   1  13
TORSDOF 8
ENDMDL
MODEL 2
REMARK VINA RESULT:      -6.1      4.592      5.497
REMARK  Name = 
REMARK  10 active torsions:
REMARK  status: ('A' for Active; 'I' for Inactive)
REMARK    1  A    between atoms: C_1  and  N_2
REMARK    2  A    between atoms: N_5  and  C_6
REMARK    3  A    between atoms: C_6  and  O_7
REMARK    4  A    between atoms: O_7  and  C_8
REMARK    5  A    between atoms: C_8  and  N_9
REMARK    6  A    between atoms: N_12  and  C_13
REMARK    7  A    between atoms: C_14  and  C_15
REMARK    8  A    between atoms: N_16  and  O_17
REMARK    9  A    between atoms: C_18  and  C_19
REMARK   10  A    between atoms: N_20  and  O_21
REMARK                            x       y       z     vdW  Elec       q    Type
REMARK                         _______ _______ _______ _____ _____    ______ ____
ROOT
ATOM      1  O   UNL     1       2.388   5.922  19.282  0.00  0.00    +0.000 OA
ENDROOT
BRANCH   1   2
ATOM      2  C   UNL     1       3.630   5.276  19.571  0.00  0.00    +0.000 C 
BRANCH   2   7
ATOM      3  C   UNL     1       7.118   4.499  16.133  0.00  0.00    +0.000 C 
ATOM      4  N   UNL     1       5.824   4.571  16.819  0.00  0.00    +0.000 N 
ATOM      5  C   UNL     1       4.621   4.188  16.251  0.00  0.00    +0.000 A 
ATOM      6  C   UNL     1       3.656   4.400  17.186  0.00  0.00    +0.000 A 
ATOM      7  N   UNL     1       4.285   4.901  18.315  0.00  0.00    +0.000 N 
ATOM      8  C   UNL     1       5.626   5.015  18.089  0.00  0.00    +0.000 A 
BRANCH   8   9
ATOM      9  C   UNL     1       6.614   5.495  18.975  0.00  0.00    +0.000 C 
ATOM     10  N   UNL     1       7.075   4.861  20.014  0.00  0.00    +0.000 NA
BRANCH  10  11
ATOM     11  O   UNL     1       8.040   5.679  20.621  0.00  0.00    +0.000 OA
ATOM     12  H   UNL     1       8.320   5.183  21.418  0.00  0.00    +0.000 HD
ENDBRANCH  10  11
ENDBRANCH   8   9
ENDBRANCH   2   7
ENDBRANCH   1   2
BRANCH   1  13
ATOM     13  C   UNL     1       2.071   6.858  20.297  0.00  0.00    +0.000 C 
BRANCH  13  14
ATOM     14  N   UNL     1       1.771   8.141  19.665  0.00  0.00    +0.000 N 
ATOM     15  C   UNL     1       2.062   8.450  18.344  0.00  0.00    +0.000 A 
ATOM     16  C   UNL     1       1.580   9.701  18.108  0.00  0.00    +0.000 A 
ATOM     17  N   UNL     1       1.011  10.137  19.290  0.00  0.00    +0.000 N 
ATOM     18  C   UNL     1       0.372  11.448  19.460  0.00  0.00    +0.000 C 
ATOM     19  C   UNL     1       1.116   9.180  20.254  0.00  0.00    +0.000 A 
BRANCH  19  20
ATOM     20  C   UNL     1       0.631   9.280  21.575  0.00  0.00    +0.000 C 
ATOM     21  N   UNL     1       1.273   9.716  22.618  0.00  0.00    +0.000 NA
BRANCH  21  22
ATOM     22  O   UNL     1       0.399   9.650  23.715  0.00  0.00    +0.000 OA
ATOM     23  H   UNL     1      -0.381   9.166  23.379  0.00  0.00    +0.000 HD
ENDBRANCH  21  22
ENDBRANCH  19  20
ENDBRANCH  13  14
ENDBRANCH   1  13
TORSDOF 8
ENDMDL
MODEL 3
REMARK VINA RESULT:      -5.9      5.254      6.084
REMARK  Name = 
REMARK  10 active torsions:
REMARK  status: ('A' for Active; 'I' for Inactive)
REMARK    1  A    between atoms: C_1  and  N_2
REMARK    2  A    between atoms: N_5  and  C_6
REMARK    3  A    between atoms: C_6  and  O_7
REMARK    4  A    between atoms: O_7  and  C_8
REMARK    5  A    between atoms: C_8  and  N_9
REMARK    6  A    between atoms: N_12  and  C_13
REMARK    7  A    between atoms: C_14  and  C_15
REMARK    8  A    between atoms: N_16  and  O_17
REMARK    9  A    between atoms: C_18  and  C_19
REMARK   10  A    between atoms: N_20  and  O_21
REMARK                            x       y       z     vdW  Elec       q    Type
REMARK                         _______ _______ _______ _____ _____    ______ ____
ROOT
ATOM      1  O   UNL     1       1.985   7.072  19.019  0.00  0.00    +0.000 OA
ENDROOT
BRANCH   1   2
ATOM      2  C   UNL     1       1.924   7.980  20.121  0.00  0.00    +0.000 C 
BRANCH   2   7
ATOM      3  C   UNL     1      -1.305  11.735  20.373  0.00  0.00    +0.000 C 
ATOM      4  N   UNL     1      -0.314  10.776  19.875  0.00  0.00    +0.000 N 
ATOM      5  C   UNL     1       0.190  10.777  18.586  0.00  0.00    +0.000 A 
ATOM      6  C   UNL     1       1.075   9.748  18.505  0.00  0.00    +0.000 A 
ATOM      7  N   UNL     1       1.106   9.138  19.749  0.00  0.00    +0.000 N 
ATOM      8  C   UNL     1       0.243   9.767  20.598  0.00  0.00    +0.000 A 
BRANCH   8   9
ATOM      9  C   UNL     1      -0.031   9.449  21.944  0.00  0.00    +0.000 C 
ATOM     10  N   UNL     1       0.518  10.009  22.984  0.00  0.00    +0.000 NA
BRANCH  10  11
ATOM     11  O   UNL     1      -0.027   9.410  24.131  0.00  0.00    +0.000 OA
ATOM     12  H   UNL     1      -0.992   9.561  24.053  0.00  0.00    +0.000 HD
ENDBRANCH  10  11
ENDBRANCH   8   9
ENDBRANCH   2   7
ENDBRANCH   1   2
BRANCH   1  13
ATOM     13  C   UNL     1       3.210   6.361  19.033  0.00  0.00    +0.000 C 
BRANCH  13  14
ATOM     14  N   UNL     1       2.915   4.930  19.025  0.00  0.00    +0.000 N 
ATOM     15  C   UNL     1       1.675   4.385  19.329  0.00  0.00    +0.000 A 
ATOM     16  C   UNL     1       1.774   3.039  19.154  0.00  0.00    +0.000 A 
ATOM     17  N   UNL     1       3.073   2.784  18.754  0.00  0.00    +0.000 N 
ATOM     18  C   UNL     1       3.594   1.443  18.457  0.00  0.00    +0.000 C 
ATOM     19  C   UNL     1       3.782   3.943  18.665  0.00  0.00    +0.000 A 
BRANCH  19  20
ATOM     20  C   UNL     1       5.132   4.059  18.271  0.00  0.00    +0.000 C 
ATOM     21  N   UNL     1       6.165   4.224  19.044  0.00  0.00    +0.000 NA
BRANCH  21  22
ATOM     22  O   UNL     1       7.305   4.272  18.226  0.00  0.00    +0.000 OA
ATOM     23  H   UNL     1       7.513   3.336  18.039  0.00  0.00    +0.000 HD
ENDBRANCH  21  22
ENDBRANCH  19  20
ENDBRANCH  13  14
ENDBRANCH   1  13
TORSDOF 8
ENDMDL
MODEL 4
REMARK VINA RESULT:      -5.8      4.716      6.463
REMARK  Name = 
REMARK  10 active torsions:
REMARK  status: ('A' for Active; 'I' for Inactive)
REMARK    1  A    between atoms: C_1  and  N_2
REMARK    2  A    between atoms: N_5  and  C_6
REMARK    3  A    between atoms: C_6  and  O_7
REMARK    4  A    between atoms: O_7  and  C_8
REMARK    5  A    between atoms: C_8  and  N_9
REMARK    6  A    between atoms: N_12  and  C_13
REMARK    7  A    between atoms: C_14  and  C_15
REMARK    8  A    between atoms: N_16  and  O_17
REMARK    9  A    between atoms: C_18  and  C_19
REMARK   10  A    between atoms: N_20  and  O_21
REMARK                            x       y       z     vdW  Elec       q    Type
REMARK                         _______ _______ _______ _____ _____    ______ ____
ROOT
ATOM      1  O   UNL     1       2.952   6.523  19.174  0.00  0.00    +0.000 OA
ENDROOT
BRANCH   1   2
ATOM      2  C   UNL     1       2.348   5.333  18.663  0.00  0.00    +0.000 C 
BRANCH   2   7
ATOM      3  C   UNL     1       4.653   1.587  20.952  0.00  0.00    +0.000 C 
ATOM      4  N   UNL     1       3.645   2.580  20.565  0.00  0.00    +0.000 N 
ATOM      5  C   UNL     1       2.399   2.693  21.155  0.00  0.00    +0.000 A 
ATOM      6  C   UNL     1       1.757   3.717  20.533  0.00  0.00    +0.000 A 
ATOM      7  N   UNL     1       2.624   4.220  19.575  0.00  0.00    +0.000 N 
ATOM      8  C   UNL     1       3.791   3.514  19.587  0.00  0.00    +0.000 A 
BRANCH   8   9
ATOM      9  C   UNL     1       4.921   3.698  18.764  0.00  0.00    +0.000 C 
ATOM     10  N   UNL     1       6.030   4.283  19.114  0.00  0.00    +0.000 NA
BRANCH  10  11
ATOM     11  O   UNL     1       6.896   4.258  18.010  0.00  0.00    +0.000 OA
ATOM     12  H   UNL     1       7.395   3.421  18.107  0.00  0.00    +0.000 HD
ENDBRANCH  10  11
ENDBRANCH   8   9
ENDBRANCH   2   7
ENDBRANCH   1   2
BRANCH   1  13
ATOM     13  C   UNL     1       2.073   7.174  20.076  0.00  0.00    +0.000 C 
BRANCH  13  14
ATOM     14  N   UNL     1       1.708   8.471  19.512  0.00  0.00    +0.000 N 
ATOM     15  C   UNL     1       1.957   8.853  18.201  0.00  0.00    +0.000 A 
ATOM     16  C   UNL     1       1.422  10.092  18.034  0.00  0.00    +0.000 A 
ATOM     17  N   UNL     1       0.863  10.450  19.247  0.00  0.00    +0.000 N 
ATOM     18  C   UNL     1       0.177  11.726  19.492  0.00  0.00    +0.000 C 
ATOM     19  C   UNL     1       1.028   9.455  20.162  0.00  0.00    +0.000 A 
BRANCH  19  20
ATOM     20  C   UNL     1       0.569   9.474  21.496  0.00  0.00    +0.000 C 
ATOM     21  N   UNL     1       1.262   9.746  22.562  0.00  0.00    +0.000 NA
BRANCH  21  22
ATOM     22  O   UNL     1       0.399   9.659  23.666  0.00  0.00    +0.000 OA
ATOM     23  H   UNL     1      -0.498   9.640  23.276  0.00  0.00    +0.000 HD
ENDBRANCH  21  22
ENDBRANCH  19  20
ENDBRANCH  13  14
ENDBRANCH   1  13
TORSDOF 8
ENDMDL
MODEL 5
REMARK VINA RESULT:      -5.8      4.986      6.132
REMARK  Name = 
REMARK  10 active torsions:
REMARK  status: ('A' for Active; 'I' for Inactive)
REMARK    1  A    between atoms: C_1  and  N_2
REMARK    2  A    between atoms: N_5  and  C_6
REMARK    3  A    between atoms: C_6  and  O_7
REMARK    4  A    between atoms: O_7  and  C_8
REMARK    5  A    between atoms: C_8  and  N_9
REMARK    6  A    between atoms: N_12  and  C_13
REMARK    7  A    between atoms: C_14  and  C_15
REMARK    8  A    between atoms: N_16  and  O_17
REMARK    9  A    between atoms: C_18  and  C_19
REMARK   10  A    between atoms: N_20  and  O_21
REMARK                            x       y       z     vdW  Elec       q    Type
REMARK                         _______ _______ _______ _____ _____    ______ ____
ROOT
ATOM      1  O   UNL     1       2.804   6.863  19.654  0.00  0.00    +0.000 OA
ENDROOT
BRANCH   1   2
ATOM      2  C   UNL     1       1.661   7.355  20.355  0.00  0.00    +0.000 C 
BRANCH   2   7
ATOM      3  C   UNL     1      -0.061  12.002  20.179  0.00  0.00    +0.000 C 
ATOM      4  N   UNL     1       0.578  10.734  19.812  0.00  0.00    +0.000 N 
ATOM      5  C   UNL     1       1.177  10.491  18.588  0.00  0.00    +0.000 A 
ATOM      6  C   UNL     1       1.651   9.217  18.625  0.00  0.00    +0.000 A 
ATOM      7  N   UNL     1       1.341   8.702  19.874  0.00  0.00    +0.000 N 
ATOM      8  C   UNL     1       0.671   9.636  20.609  0.00  0.00    +0.000 A 
BRANCH   8   9
ATOM      9  C   UNL     1       0.169   9.506  21.921  0.00  0.00    +0.000 C 
ATOM     10  N   UNL     1       0.832   9.741  23.016  0.00  0.00    +0.000 NA
BRANCH  10  11
ATOM     11  O   UNL     1      -0.026   9.495  24.099  0.00  0.00    +0.000 OA
ATOM     12  H   UNL     1       0.565   9.192  24.818  0.00  0.00    +0.000 HD
ENDBRANCH  10  11
ENDBRANCH   8   9
ENDBRANCH   2   7
ENDBRANCH   1   2
BRANCH   1  13
ATOM     13  C   UNL     1       2.980   5.479  19.905  0.00  0.00    +0.000 C 
BRANCH  13  14
ATOM     14  N   UNL     1       3.459   4.843  18.681  0.00  0.00    +0.000 N 
ATOM     15  C   UNL     1       2.643   4.197  17.762  0.00  0.00    +0.000 A 
ATOM     16  C   UNL     1       3.436   3.793  16.734  0.00  0.00    +0.000 A 
ATOM     17  N   UNL     1       4.723   4.190  17.044  0.00  0.00    +0.000 N 
ATOM     18  C   UNL     1       5.889   3.945  16.186  0.00  0.00    +0.000 C 
ATOM     19  C   UNL     1       4.747   4.845  18.238  0.00  0.00    +0.000 A 
BRANCH  19  20
ATOM     20  C   UNL     1       5.888   5.401  18.854  0.00  0.00    +0.000 C 
ATOM     21  N   UNL     1       6.634   4.853  19.767  0.00  0.00    +0.000 NA
BRANCH  21  22
ATOM     22  O   UNL     1       7.663   5.757  20.076  0.00  0.00    +0.000 OA
ATOM     23  H   UNL     1       7.344   6.230  20.870  0.00  0.00    +0.000 HD
ENDBRANCH  21  22
ENDBRANCH  19  20
ENDBRANCH  13  14
ENDBRANCH   1  13
TORSDOF 8
ENDMDL
MODEL 6
REMARK VINA RESULT:      -5.8      4.196      5.786
REMARK  Name = 
REMARK  10 active torsions:
REMARK  status: ('A' for Active; 'I' for Inactive)
REMARK    1  A    between atoms: C_1  and  N_2
REMARK    2  A    between atoms: N_5  and  C_6
REMARK    3  A    between atoms: C_6  and  O_7
REMARK    4  A    between atoms: O_7  and  C_8
REMARK    5  A    between atoms: C_8  and  N_9
REMARK    6  A    between atoms: N_12  and  C_13
REMARK    7  A    between atoms: C_14  and  C_15
REMARK    8  A    between atoms: N_16  and  O_17
REMARK    9  A    between atoms: C_18  and  C_19
REMARK   10  A    between atoms: N_20  and  O_21
REMARK                            x       y       z     vdW  Elec       q    Type
REMARK                         _______ _______ _______ _____ _____    ______ ____
ROOT
ATOM      1  O   UNL     1       3.391   5.878  20.076  0.00  0.00    +0.000 OA
ENDROOT
BRANCH   1   2
ATOM      2  C   UNL     1       2.038   6.331  20.156  0.00  0.00    +0.000 C 
BRANCH   2   7
ATOM      3  C   UNL     1       0.943  11.060  19.141  0.00  0.00    +0.000 C 
ATOM      4  N   UNL     1       1.423   9.679  19.018  0.00  0.00    +0.000 N 
ATOM      5  C   UNL     1       2.027   9.164  17.884  0.00  0.00    +0.000 A 
ATOM      6  C   UNL     1       2.329   7.866  18.151  0.00  0.00    +0.000 A 
ATOM      7  N   UNL     1       1.913   7.609  19.448  0.00  0.00    +0.000 N 
ATOM      8  C   UNL     1       1.345   8.727  19.985  0.00  0.00    +0.000 A 
BRANCH   8   9
ATOM      9  C   UNL     1       0.787   8.880  21.272  0.00  0.00    +0.000 C 
ATOM     10  N   UNL     1      -0.445   8.616  21.602  0.00  0.00    +0.000 NA
BRANCH  10  11
ATOM     11  O   UNL     1      -0.592   8.901  22.969  0.00  0.00    +0.000 OA
ATOM     12  H   UNL     1      -0.196   9.790  23.079  0.00  0.00    +0.000 HD
ENDBRANCH  10  11
ENDBRANCH   8   9
ENDBRANCH   2   7
ENDBRANCH   1   2
BRANCH   1  13
ATOM     13  C   UNL     1       3.434   4.526  19.653  0.00  0.00    +0.000 C 
BRANCH  13  14
ATOM     14  N   UNL     1       4.180   4.457  18.399  0.00  0.00    +0.000 N 
ATOM     15  C   UNL     1       3.634   4.066  17.184  0.00  0.00    +0.000 A 
ATOM     16  C   UNL     1       4.613   4.188  16.247  0.00  0.00    +0.000 A 
ATOM     17  N   UNL     1       5.740   4.642  16.905  0.00  0.00    +0.000 N 
ATOM     18  C   UNL     1       7.026   4.908  16.247  0.00  0.00    +0.000 C 
ATOM     19  C   UNL     1       5.482   4.818  18.231  0.00  0.00    +0.000 A 
BRANCH  19  20
ATOM     20  C   UNL     1       6.398   5.285  19.197  0.00  0.00    +0.000 C 
ATOM     21  N   UNL     1       7.639   4.925  19.343  0.00  0.00    +0.000 NA
BRANCH  21  22
ATOM     22  O   UNL     1       8.170   5.655  20.418  0.00  0.00    +0.000 OA
ATOM     23  H   UNL     1       8.898   6.176  20.026  0.00  0.00    +0.000 HD
ENDBRANCH  21  22
ENDBRANCH  19  20
ENDBRANCH  13  14
ENDBRANCH   1  13
TORSDOF 8
ENDMDL
MODEL 7
REMARK VINA RESULT:      -5.8      5.296      6.546
REMARK  Name = 
REMARK  10 active torsions:
REMARK  status: ('A' for Active; 'I' for Inactive)
REMARK    1  A    between atoms: C_1  and  N_2
REMARK    2  A    between atoms: N_5  and  C_6
REMARK    3  A    between atoms: C_6  and  O_7
REMARK    4  A    between atoms: O_7  and  C_8
REMARK    5  A    between atoms: C_8  and  N_9
REMARK    6  A    between atoms: N_12  and  C_13
REMARK    7  A    between atoms: C_14  and  C_15
REMARK    8  A    between atoms: N_16  and  O_17
REMARK    9  A    between atoms: C_18  and  C_19
REMARK   10  A    between atoms: N_20  and  O_21
REMARK                            x       y       z     vdW  Elec       q    Type
REMARK                         _______ _______ _______ _____ _____    ______ ____
ROOT
ATOM      1  O   UNL     1       1.835   7.622  17.870  0.00  0.00    +0.000 OA
ENDROOT
BRANCH   1   2
ATOM      2  C   UNL     1       1.899   9.019  18.165  0.00  0.00    +0.000 C 
BRANCH   2   7
ATOM      3  C   UNL     1      -0.821  11.123  21.738  0.00  0.00    +0.000 C 
ATOM      4  N   UNL     1       0.066  10.206  21.013  0.00  0.00    +0.000 N 
ATOM      5  C   UNL     1       0.631   9.071  21.567  0.00  0.00    +0.000 A 
ATOM      6  C   UNL     1       1.382   8.487  20.596  0.00  0.00    +0.000 A 
ATOM      7  N   UNL     1       1.257   9.270  19.459  0.00  0.00    +0.000 N 
ATOM      8  C   UNL     1       0.449  10.339  19.715  0.00  0.00    +0.000 A 
BRANCH   8   9
ATOM      9  C   UNL     1       0.080  11.375  18.832  0.00  0.00    +0.000 C 
ATOM     10  N   UNL     1      -1.069  11.488  18.230  0.00  0.00    +0.000 NA
BRANCH  10  11
ATOM     11  O   UNL     1      -1.030  12.652  17.447  0.00  0.00    +0.000 OA
ATOM     12  H   UNL     1      -1.096  12.331  16.524  0.00  0.00    +0.000 HD
ENDBRANCH  10  11
ENDBRANCH   8   9
ENDBRANCH   2   7
ENDBRANCH   1   2
BRANCH   1  13
ATOM     13  C   UNL     1       3.125   7.042  17.948  0.00  0.00    +0.000 C 
BRANCH  13  14
ATOM     14  N   UNL     1       2.975   5.615  18.225  0.00  0.00    +0.000 N 
ATOM     15  C   UNL     1       1.901   4.844  17.801  0.00  0.00    +0.000 A 
ATOM     16  C   UNL     1       2.144   3.565  18.193  0.00  0.00    +0.000 A 
ATOM     17  N   UNL     1       3.357   3.576  18.856  0.00  0.00    +0.000 N 
ATOM     18  C   UNL     1       3.987   2.385  19.441  0.00  0.00    +0.000 C 
ATOM     19  C   UNL     1       3.881   4.833  18.875  0.00  0.00    +0.000 A 
BRANCH  19  20
ATOM     20  C   UNL     1       5.112   5.208  19.453  0.00  0.00    +0.000 C 
ATOM     21  N   UNL     1       6.302   4.856  19.065  0.00  0.00    +0.000 NA
BRANCH  21  22
ATOM     22  O   UNL     1       7.229   5.473  19.920  0.00  0.00    +0.000 OA
ATOM     23  H   UNL     1       8.080   5.037  19.717  0.00  0.00    +0.000 HD
ENDBRANCH  21  22
ENDBRANCH  19  20
ENDBRANCH  13  14
ENDBRANCH   1  13
TORSDOF 8
ENDMDL
MODEL 8
REMARK VINA RESULT:      -5.8      2.371      5.879
REMARK  Name = 
REMARK  10 active torsions:
REMARK  status: ('A' for Active; 'I' for Inactive)
REMARK    1  A    between atoms: C_1  and  N_2
REMARK    2  A    between atoms: N_5  and  C_6
REMARK    3  A    between atoms: C_6  and  O_7
REMARK    4  A    between atoms: O_7  and  C_8
REMARK    5  A    between atoms: C_8  and  N_9
REMARK    6  A    between atoms: N_12  and  C_13
REMARK    7  A    between atoms: C_14  and  C_15
REMARK    8  A    between atoms: N_16  and  O_17
REMARK    9  A    between atoms: C_18  and  C_19
REMARK   10  A    between atoms: N_20  and  O_21
REMARK                            x       y       z     vdW  Elec       q    Type
REMARK                         _______ _______ _______ _____ _____    ______ ____
ROOT
ATOM      1  O   UNL     1       3.920   2.607  17.688  0.00  0.00    +0.000 OA
ENDROOT
BRANCH   1   2
ATOM      2  C   UNL     1       2.549   2.985  17.554  0.00  0.00    +0.000 C 
BRANCH   2   7
ATOM      3  C   UNL     1       1.312   6.316  21.014  0.00  0.00    +0.000 C 
ATOM      4  N   UNL     1       1.551   5.046  20.318  0.00  0.00    +0.000 N 
ATOM      5  C   UNL     1       1.317   3.800  20.872  0.00  0.00    +0.000 A 
ATOM      6  C   UNL     1       1.655   2.878  19.931  0.00  0.00    +0.000 A 
ATOM      7  N   UNL     1       2.084   3.576  18.813  0.00  0.00    +0.000 N 
ATOM      8  C   UNL     1       2.028   4.918  19.050  0.00  0.00    +0.000 A 
BRANCH   8   9
ATOM      9  C   UNL     1       2.388   5.967  18.178  0.00  0.00    +0.000 C 
ATOM     10  N   UNL     1       3.204   6.942  18.458  0.00  0.00    +0.000 NA
BRANCH  10  11
ATOM     11  O   UNL     1       3.291   7.766  17.325  0.00  0.00    +0.000 OA
ATOM     12  H   UNL     1       2.371   7.827  16.993  0.00  0.00    +0.000 HD
ENDBRANCH  10  11
ENDBRANCH   8   9
ENDBRANCH   2   7
ENDBRANCH   1   2
BRANCH   1  13
ATOM     13  C   UNL     1       4.729   3.365  16.805  0.00  0.00    +0.000 C 
BRANCH  13  14
ATOM     14  N   UNL     1       5.493   4.331  17.592  0.00  0.00    +0.000 N 
ATOM     15  C   UNL     1       5.506   4.375  18.979  0.00  0.00    +0.000 A 
ATOM     16  C   UNL     1       6.373   5.360  19.341  0.00  0.00    +0.000 A 
ATOM     17  N   UNL     1       6.867   5.906  18.171  0.00  0.00    +0.000 N 
ATOM     18  C   UNL     1       7.840   7.005  18.123  0.00  0.00    +0.000 C 
ATOM     19  C   UNL     1       6.336   5.274  17.087  0.00  0.00    +0.000 A 
BRANCH  19  20
ATOM     20  C   UNL     1       6.629   5.561  15.737  0.00  0.00    +0.000 C 
ATOM     21  N   UNL     1       7.583   5.054  15.014  0.00  0.00    +0.000 NA
BRANCH  21  22
ATOM     22  O   UNL     1       7.491   5.615  13.731  0.00  0.00    +0.000 OA
ATOM     23  H   UNL     1       7.719   4.883  13.125  0.00  0.00    +0.000 HD
ENDBRANCH  21  22
ENDBRANCH  19  20
ENDBRANCH  13  14
ENDBRANCH   1  13
TORSDOF 8
ENDMDL
MODEL 9
REMARK VINA RESULT:      -5.8      4.917      6.794
REMARK  Name = 
REMARK  10 active torsions:
REMARK  status: ('A' for Active; 'I' for Inactive)
REMARK    1  A    between atoms: C_1  and  N_2
REMARK    2  A    between atoms: N_5  and  C_6
REMARK    3  A    between atoms: C_6  and  O_7
REMARK    4  A    between atoms: O_7  and  C_8
REMARK    5  A    between atoms: C_8  and  N_9
REMARK    6  A    between atoms: N_12  and  C_13
REMARK    7  A    between atoms: C_14  and  C_15
REMARK    8  A    between atoms: N_16  and  O_17
REMARK    9  A    between atoms: C_18  and  C_19
REMARK   10  A    between atoms: N_20  and  O_21
REMARK                            x       y       z     vdW  Elec       q    Type
REMARK                         _______ _______ _______ _____ _____    ______ ____
ROOT
ATOM      1  O   UNL     1       2.505   7.004  19.002  0.00  0.00    +0.000 OA
ENDROOT
BRANCH   1   2
ATOM      2  C   UNL     1       3.079   6.269  17.919  0.00  0.00    +0.000 C 
BRANCH   2   7
ATOM      3  C   UNL     1       3.660   1.366  18.387  0.00  0.00    +0.000 C 
ATOM      4  N   UNL     1       3.055   2.699  18.290  0.00  0.00    +0.000 N 
ATOM      5  C   UNL     1       1.694   2.941  18.364  0.00  0.00    +0.000 A 
ATOM      6  C   UNL     1       1.523   4.284  18.234  0.00  0.00    +0.000 A 
ATOM      7  N   UNL     1       2.783   4.844  18.091  0.00  0.00    +0.000 N 
ATOM      8  C   UNL     1       3.733   3.865  18.118  0.00  0.00    +0.000 A 
BRANCH   8   9
ATOM      9  C   UNL     1       5.131   4.013  17.993  0.00  0.00    +0.000 C 
ATOM     10  N   UNL     1       5.968   4.191  18.974  0.00  0.00    +0.000 NA
BRANCH  10  11
ATOM     11  O   UNL     1       7.256   4.289  18.426  0.00  0.00    +0.000 OA
ATOM     12  H   UNL     1       7.526   5.215  18.593  0.00  0.00    +0.000 HD
ENDBRANCH  10  11
ENDBRANCH   8   9
ENDBRANCH   2   7
ENDBRANCH   1   2
BRANCH   1  13
ATOM     13  C   UNL     1       2.147   8.308  18.579  0.00  0.00    +0.000 C 
BRANCH  13  14
ATOM     14  N   UNL     1       1.447   8.974  19.674  0.00  0.00    +0.000 N 
ATOM     15  C   UNL     1       1.109   8.363  20.874  0.00  0.00    +0.000 A 
ATOM     16  C   UNL     1       0.528   9.311  21.658  0.00  0.00    +0.000 A 
ATOM     17  N   UNL     1       0.513  10.481  20.922  0.00  0.00    +0.000 N 
ATOM     18  C   UNL     1      -0.034  11.753  21.412  0.00  0.00    +0.000 C 
ATOM     19  C   UNL     1       1.082  10.286  19.701  0.00  0.00    +0.000 A 
BRANCH  19  20
ATOM     20  C   UNL     1       1.249  11.266  18.700  0.00  0.00    +0.000 C 
ATOM     21  N   UNL     1       2.314  11.972  18.460  0.00  0.00    +0.000 NA
BRANCH  21  22
ATOM     22  O   UNL     1       2.034  12.808  17.368  0.00  0.00    +0.000 OA
ATOM     23  H   UNL     1       1.082  12.674  17.193  0.00  0.00    +0.000 HD
ENDBRANCH  21  22
ENDBRANCH  19  20
ENDBRANCH  13  14
ENDBRANCH   1  13
TORSDOF 8
ENDMDL
