MODEL 1
REMARK VINA RESULT:      -8.5      0.000      0.000
REMARK  Name = 
REMARK  5 active torsions:
REMARK  status: ('A' for Active; 'I' for Inactive)
REMARK    1  A    between atoms: C_1  and  C_2
REMARK    2  A    between atoms: N_4  and  C_5
REMARK    3  A    between atoms: C_5  and  C_6
REMARK    4  A    between atoms: C_15  and  C_16
REMARK    5  A    between atoms: C_20  and  C_22
REMARK                            x       y       z     vdW  Elec       q    Type
REMARK                         _______ _______ _______ _____ _____    ______ ____
ROOT
ATOM      1  C   UNL     1       6.633   4.828  15.563  0.00  0.00    +0.000 C 
ATOM      2  O   UNL     1       7.034   4.218  16.815  0.00  0.00    +0.000 OA
ATOM      3  C   UNL     1       6.091   4.448  17.777  0.00  0.00    +0.000 C 
ATOM      4  O   UNL     1       6.216   4.044  18.921  0.00  0.00    +0.000 OA
ATOM      5  N   UNL     1       5.092   5.225  17.251  0.00  0.00    +0.000 N 
ATOM      6  C   UNL     1       4.119   5.969  17.948  0.00  0.00    +0.000 A 
ATOM      7  C   UNL     1       3.692   5.633  19.228  0.00  0.00    +0.000 A 
ATOM      8  C   UNL     1       2.739   6.425  19.872  0.00  0.00    +0.000 A 
ATOM      9  F   UNL     1       2.353   6.044  21.101  0.00  0.00    +0.000 F 
ATOM     10  C   UNL     1       2.186   7.570  19.272  0.00  0.00    +0.000 A 
ATOM     11  C   UNL     1       2.624   7.892  17.975  0.00  0.00    +0.000 A 
ATOM     12  C   UNL     1       3.585   7.107  17.323  0.00  0.00    +0.000 A 
ATOM     13  O   UNL     1       3.986   7.546  16.076  0.00  0.00    +0.000 OA
ATOM     14  C   UNL     1       5.272   7.024  15.671  0.00  0.00    +0.000 C 
ATOM     15  C   UNL     1       5.308   5.514  15.864  0.00  0.00    +0.000 C 
ENDROOT
BRANCH  10  16
ATOM     16  C   UNL     1       1.235   8.447  20.001  0.00  0.00    +0.000 C 
ATOM     17  C   UNL     1       0.714   8.120  21.203  0.00  0.00    +0.000 C 
ATOM     18  C   UNL     1      -0.253   8.971  21.990  0.00  0.00    +0.000 C 
ATOM     19  N   UNL     1      -0.464  10.267  21.357  0.00  0.00    +0.000 N 
ATOM     20  C   UNL     1      -0.637  11.376  22.178  0.00  0.00    +0.000 C 
ATOM     21  O   UNL     1      -0.636  11.292  23.404  0.00  0.00    +0.000 OA
ATOM     22  C   UNL     1      -0.507  10.249  19.897  0.00  0.00    +0.000 C 
ATOM     23  C   UNL     1       0.832   9.753  19.350  0.00  0.00    +0.000 C 
BRANCH  20  24
ATOM     24  C   UNL     1      -0.783  12.726  21.548  0.00  0.00    +0.000 C 
ATOM     25  C   UNL     1      -0.374  13.978  22.295  0.00  0.00    +0.000 C 
ATOM     26  C   UNL     1       0.468  13.484  21.157  0.00  0.00    +0.000 C 
ENDBRANCH  20  24
ENDBRANCH  10  16
BRANCH   1  27
ATOM     27  C   UNL     1       6.474   3.689  14.545  0.00  0.00    +0.000 C 
BRANCH  27  31
ATOM     28  C   UNL     1       4.221   3.719  11.496  0.00  0.00    +0.000 C 
ATOM     29  C   UNL     1       5.431   3.381  12.327  0.00  0.00    +0.000 C 
ATOM     30  O   UNL     1       6.348   2.675  11.920  0.00  0.00    +0.000 OA
ATOM     31  N   UNL     1       5.408   3.932  13.586  0.00  0.00    +0.000 N 
ATOM     32  H   UNL     1       4.551   4.357  13.920  0.00  0.00    +0.000 HD
ENDBRANCH  27  31
ENDBRANCH   1  27
TORSDOF 4
ENDMDL
MODEL 2
REMARK VINA RESULT:      -8.3      3.029      4.429
REMARK  Name = 
REMARK  5 active torsions:
REMARK  status: ('A' for Active; 'I' for Inactive)
REMARK    1  A    between atoms: C_1  and  C_2
REMARK    2  A    between atoms: N_4  and  C_5
REMARK    3  A    between atoms: C_5  and  C_6
REMARK    4  A    between atoms: C_15  and  C_16
REMARK    5  A    between atoms: C_20  and  C_22
REMARK                            x       y       z     vdW  Elec       q    Type
REMARK                         _______ _______ _______ _____ _____    ______ ____
ROOT
ATOM      1  C   UNL     1       4.227   4.340  18.671  0.00  0.00    +0.000 C 
ATOM      2  O   UNL     1       4.397   4.962  17.374  0.00  0.00    +0.000 OA
ATOM      3  C   UNL     1       3.935   6.248  17.401  0.00  0.00    +0.000 C 
ATOM      4  O   UNL     1       3.958   6.968  16.417  0.00  0.00    +0.000 OA
ATOM      5  N   UNL     1       3.417   6.513  18.642  0.00  0.00    +0.000 N 
ATOM      6  C   UNL     1       2.551   7.563  19.010  0.00  0.00    +0.000 A 
ATOM      7  C   UNL     1       2.499   8.769  18.319  0.00  0.00    +0.000 A 
ATOM      8  C   UNL     1       1.603   9.761  18.723  0.00  0.00    +0.000 A 
ATOM      9  F   UNL     1       1.607  10.912  18.031  0.00  0.00    +0.000 F 
ATOM     10  C   UNL     1       0.733   9.587  19.814  0.00  0.00    +0.000 A 
ATOM     11  C   UNL     1       0.803   8.364  20.505  0.00  0.00    +0.000 A 
ATOM     12  C   UNL     1       1.694   7.360  20.103  0.00  0.00    +0.000 A 
ATOM     13  O   UNL     1       1.640   6.177  20.814  0.00  0.00    +0.000 OA
ATOM     14  C   UNL     1       2.187   5.049  20.093  0.00  0.00    +0.000 C 
ATOM     15  C   UNL     1       3.559   5.401  19.534  0.00  0.00    +0.000 C 
ENDROOT
BRANCH  10  16
ATOM     16  C   UNL     1      -0.270  10.619  20.181  0.00  0.00    +0.000 C 
ATOM     17  C   UNL     1      -1.260  11.004  19.347  0.00  0.00    +0.000 C 
ATOM     18  C   UNL     1      -2.307  12.043  19.665  0.00  0.00    +0.000 C 
ATOM     19  N   UNL     1      -2.209  12.498  21.047  0.00  0.00    +0.000 N 
ATOM     20  C   UNL     1      -3.387  12.793  21.723  0.00  0.00    +0.000 C 
ATOM     21  O   UNL     1      -4.491  12.702  21.192  0.00  0.00    +0.000 OA
ATOM     22  C   UNL     1      -0.850  12.628  21.565  0.00  0.00    +0.000 C 
ATOM     23  C   UNL     1      -0.158  11.265  21.545  0.00  0.00    +0.000 C 
BRANCH  20  24
ATOM     24  C   UNL     1      -3.311  13.192  23.165  0.00  0.00    +0.000 C 
ATOM     25  C   UNL     1      -4.567  13.521  23.944  0.00  0.00    +0.000 C 
ATOM     26  C   UNL     1      -3.843  12.236  24.212  0.00  0.00    +0.000 C 
ENDBRANCH  20  24
ENDBRANCH  10  16
BRANCH   1  27
ATOM     27  C   UNL     1       5.632   3.984  19.180  0.00  0.00    +0.000 C 
BRANCH  27  31
ATOM     28  C   UNL     1       8.234   6.716  18.801  0.00  0.00    +0.000 C 
ATOM     29  C   UNL     1       7.491   5.449  18.469  0.00  0.00    +0.000 C 
ATOM     30  O   UNL     1       7.755   4.752  17.496  0.00  0.00    +0.000 OA
ATOM     31  N   UNL     1       6.483   5.151  19.355  0.00  0.00    +0.000 N 
ATOM     32  H   UNL     1       6.203   5.851  20.033  0.00  0.00    +0.000 HD
ENDBRANCH  27  31
ENDBRANCH   1  27
TORSDOF 4
ENDMDL
MODEL 3
REMARK VINA RESULT:      -8.1      1.259      1.387
REMARK  Name = 
REMARK  5 active torsions:
REMARK  status: ('A' for Active; 'I' for Inactive)
REMARK    1  A    between atoms: C_1  and  C_2
REMARK    2  A    between atoms: N_4  and  C_5
REMARK    3  A    between atoms: C_5  and  C_6
REMARK    4  A    between atoms: C_15  and  C_16
REMARK    5  A    between atoms: C_20  and  C_22
REMARK                            x       y       z     vdW  Elec       q    Type
REMARK                         _______ _______ _______ _____ _____    ______ ____
ROOT
ATOM      1  C   UNL     1       6.098   4.590  16.336  0.00  0.00    +0.000 C 
ATOM      2  O   UNL     1       6.223   3.984  17.646  0.00  0.00    +0.000 OA
ATOM      3  C   UNL     1       5.224   4.425  18.469  0.00  0.00    +0.000 C 
ATOM      4  O   UNL     1       5.131   4.063  19.630  0.00  0.00    +0.000 OA
ATOM      5  N   UNL     1       4.456   5.337  17.794  0.00  0.00    +0.000 N 
ATOM      6  C   UNL     1       3.554   6.275  18.335  0.00  0.00    +0.000 A 
ATOM      7  C   UNL     1       2.917   6.085  19.557  0.00  0.00    +0.000 A 
ATOM      8  C   UNL     1       2.050   7.063  20.047  0.00  0.00    +0.000 A 
ATOM      9  F   UNL     1       1.451   6.820  21.224  0.00  0.00    +0.000 F 
ATOM     10  C   UNL     1       1.792   8.256  19.348  0.00  0.00    +0.000 A 
ATOM     11  C   UNL     1       2.439   8.429  18.111  0.00  0.00    +0.000 A 
ATOM     12  C   UNL     1       3.316   7.456  17.614  0.00  0.00    +0.000 A 
ATOM     13  O   UNL     1       3.943   7.753  16.419  0.00  0.00    +0.000 OA
ATOM     14  C   UNL     1       5.153   6.993  16.202  0.00  0.00    +0.000 C 
ATOM     15  C   UNL     1       4.892   5.512  16.441  0.00  0.00    +0.000 C 
ENDROOT
BRANCH  10  16
ATOM     16  C   UNL     1       0.932   9.322  19.920  0.00  0.00    +0.000 C 
ATOM     17  C   UNL     1       0.818   9.535  21.248  0.00  0.00    +0.000 C 
ATOM     18  C   UNL     1      -0.037  10.603  21.886  0.00  0.00    +0.000 C 
ATOM     19  N   UNL     1      -0.635  11.479  20.886  0.00  0.00    +0.000 N 
ATOM     20  C   UNL     1      -0.774  12.827  21.196  0.00  0.00    +0.000 C 
ATOM     21  O   UNL     1      -0.430  13.291  22.281  0.00  0.00    +0.000 OA
ATOM     22  C   UNL     1      -1.063  10.820  19.655  0.00  0.00    +0.000 C 
ATOM     23  C   UNL     1       0.145  10.191  18.961  0.00  0.00    +0.000 C 
BRANCH  20  24
ATOM     24  C   UNL     1      -1.319  13.756  20.155  0.00  0.00    +0.000 C 
ATOM     25  C   UNL     1      -1.072  15.247  20.242  0.00  0.00    +0.000 C 
ATOM     26  C   UNL     1      -0.351  14.434  19.208  0.00  0.00    +0.000 C 
ENDBRANCH  20  24
ENDBRANCH  10  16
BRANCH   1  27
ATOM     27  C   UNL     1       5.865   3.446  15.338  0.00  0.00    +0.000 C 
BRANCH  27  31
ATOM     28  C   UNL     1       7.021   3.852  11.751  0.00  0.00    +0.000 C 
ATOM     29  C   UNL     1       6.048   3.667  12.884  0.00  0.00    +0.000 C 
ATOM     30  O   UNL     1       4.834   3.597  12.722  0.00  0.00    +0.000 OA
ATOM     31  N   UNL     1       6.645   3.590  14.119  0.00  0.00    +0.000 N 
ATOM     32  H   UNL     1       7.628   3.827  14.204  0.00  0.00    +0.000 HD
ENDBRANCH  27  31
ENDBRANCH   1  27
TORSDOF 4
ENDMDL
MODEL 4
REMARK VINA RESULT:      -8.0      2.431     10.742
REMARK  Name = 
REMARK  5 active torsions:
REMARK  status: ('A' for Active; 'I' for Inactive)
REMARK    1  A    between atoms: C_1  and  C_2
REMARK    2  A    between atoms: N_4  and  C_5
REMARK    3  A    between atoms: C_5  and  C_6
REMARK    4  A    between atoms: C_15  and  C_16
REMARK    5  A    between atoms: C_20  and  C_22
REMARK                            x       y       z     vdW  Elec       q    Type
REMARK                         _______ _______ _______ _____ _____    ______ ____
ROOT
ATOM      1  C   UNL     1      -1.405  12.093  22.789  0.00  0.00    +0.000 C 
ATOM      2  O   UNL     1      -0.921  12.963  21.736  0.00  0.00    +0.000 OA
ATOM      3  C   UNL     1      -0.347  12.225  20.738  0.00  0.00    +0.000 C 
ATOM      4  O   UNL     1       0.146  12.741  19.750  0.00  0.00    +0.000 OA
ATOM      5  N   UNL     1      -0.377  10.899  21.086  0.00  0.00    +0.000 N 
ATOM      6  C   UNL     1       0.381   9.846  20.536  0.00  0.00    +0.000 A 
ATOM      7  C   UNL     1       0.882   9.879  19.239  0.00  0.00    +0.000 A 
ATOM      8  C   UNL     1       1.643   8.810  18.763  0.00  0.00    +0.000 A 
ATOM      9  F   UNL     1       2.088   8.888  17.498  0.00  0.00    +0.000 F 
ATOM     10  C   UNL     1       1.935   7.685  19.554  0.00  0.00    +0.000 A 
ATOM     11  C   UNL     1       1.415   7.665  20.861  0.00  0.00    +0.000 A 
ATOM     12  C   UNL     1       0.655   8.735  21.350  0.00  0.00    +0.000 A 
ATOM     13  O   UNL     1       0.243   8.639  22.665  0.00  0.00    +0.000 OA
ATOM     14  C   UNL     1      -0.090   9.915  23.257  0.00  0.00    +0.000 C 
ATOM     15  C   UNL     1      -1.032  10.686  22.342  0.00  0.00    +0.000 C 
ENDROOT
BRANCH  10  16
ATOM     16  C   UNL     1       2.814   6.594  19.061  0.00  0.00    +0.000 C 
ATOM     17  C   UNL     1       2.532   5.287  19.252  0.00  0.00    +0.000 C 
ATOM     18  C   UNL     1       3.385   4.137  18.773  0.00  0.00    +0.000 C 
ATOM     19  N   UNL     1       4.497   4.600  17.952  0.00  0.00    +0.000 N 
ATOM     20  C   UNL     1       4.889   3.811  16.876  0.00  0.00    +0.000 C 
ATOM     21  O   UNL     1       4.345   2.742  16.612  0.00  0.00    +0.000 OA
ATOM     22  C   UNL     1       5.112   5.852  18.384  0.00  0.00    +0.000 C 
ATOM     23  C   UNL     1       4.080   6.979  18.327  0.00  0.00    +0.000 C 
BRANCH  20  24
ATOM     24  C   UNL     1       5.982   4.305  15.979  0.00  0.00    +0.000 C 
ATOM     25  C   UNL     1       6.036   3.890  14.524  0.00  0.00    +0.000 C 
ATOM     26  C   UNL     1       5.632   5.289  14.882  0.00  0.00    +0.000 C 
ENDBRANCH  20  24
ENDBRANCH  10  16
BRANCH   1  27
ATOM     27  C   UNL     1      -2.926  12.290  22.865  0.00  0.00    +0.000 C 
BRANCH  27  31
ATOM     28  C   UNL     1      -4.715  15.454  23.945  0.00  0.00    +0.000 C 
ATOM     29  C   UNL     1      -4.526  13.981  23.692  0.00  0.00    +0.000 C 
ATOM     30  O   UNL     1      -5.381  13.141  23.952  0.00  0.00    +0.000 OA
ATOM     31  N   UNL     1      -3.304  13.666  23.148  0.00  0.00    +0.000 N 
ATOM     32  H   UNL     1      -2.582  14.378  23.118  0.00  0.00    +0.000 HD
ENDBRANCH  27  31
ENDBRANCH   1  27
TORSDOF 4
ENDMDL
MODEL 5
REMARK VINA RESULT:      -8.0      2.371     10.455
REMARK  Name = 
REMARK  5 active torsions:
REMARK  status: ('A' for Active; 'I' for Inactive)
REMARK    1  A    between atoms: C_1  and  C_2
REMARK    2  A    between atoms: N_4  and  C_5
REMARK    3  A    between atoms: C_5  and  C_6
REMARK    4  A    between atoms: C_15  and  C_16
REMARK    5  A    between atoms: C_20  and  C_22
REMARK                            x       y       z     vdW  Elec       q    Type
REMARK                         _______ _______ _______ _____ _____    ______ ____
ROOT
ATOM      1  C   UNL     1      -1.608  12.213  22.874  0.00  0.00    +0.000 C 
ATOM      2  O   UNL     1      -1.230  13.157  21.842  0.00  0.00    +0.000 OA
ATOM      3  C   UNL     1      -0.653  12.502  20.790  0.00  0.00    +0.000 C 
ATOM      4  O   UNL     1      -0.239  13.090  19.806  0.00  0.00    +0.000 OA
ATOM      5  N   UNL     1      -0.579  11.164  21.080  0.00  0.00    +0.000 N 
ATOM      6  C   UNL     1       0.223  10.188  20.454  0.00  0.00    +0.000 A 
ATOM      7  C   UNL     1       0.663  10.309  19.140  0.00  0.00    +0.000 A 
ATOM      8  C   UNL     1       1.473   9.315  18.586  0.00  0.00    +0.000 A 
ATOM      9  F   UNL     1       1.856   9.476  17.309  0.00  0.00    +0.000 F 
ATOM     10  C   UNL     1       1.873   8.181  19.315  0.00  0.00    +0.000 A 
ATOM     11  C   UNL     1       1.413   8.072  20.640  0.00  0.00    +0.000 A 
ATOM     12  C   UNL     1       0.606   9.067  21.207  0.00  0.00    +0.000 A 
ATOM     13  O   UNL     1       0.259   8.889  22.532  0.00  0.00    +0.000 OA
ATOM     14  C   UNL     1      -0.132  10.114  23.192  0.00  0.00    +0.000 C 
ATOM     15  C   UNL     1      -1.163  10.855  22.351  0.00  0.00    +0.000 C 
ENDROOT
BRANCH  10  16
ATOM     16  C   UNL     1       2.801   7.174  18.739  0.00  0.00    +0.000 C 
ATOM     17  C   UNL     1       2.868   5.903  19.189  0.00  0.00    +0.000 C 
ATOM     18  C   UNL     1       3.787   4.837  18.642  0.00  0.00    +0.000 C 
ATOM     19  N   UNL     1       4.512   5.306  17.467  0.00  0.00    +0.000 N 
ATOM     20  C   UNL     1       4.760   4.395  16.446  0.00  0.00    +0.000 C 
ATOM     21  O   UNL     1       4.408   3.220  16.512  0.00  0.00    +0.000 OA
ATOM     22  C   UNL     1       4.937   6.702  17.512  0.00  0.00    +0.000 C 
ATOM     23  C   UNL     1       3.710   7.610  17.610  0.00  0.00    +0.000 C 
BRANCH  20  24
ATOM     24  C   UNL     1       5.440   4.875  15.201  0.00  0.00    +0.000 C 
ATOM     25  C   UNL     1       6.939   4.741  15.036  0.00  0.00    +0.000 C 
ATOM     26  C   UNL     1       6.023   3.850  14.250  0.00  0.00    +0.000 C 
ENDBRANCH  20  24
ENDBRANCH  10  16
BRANCH   1  27
ATOM     27  C   UNL     1      -3.134  12.303  23.021  0.00  0.00    +0.000 C 
BRANCH  27  31
ATOM     28  C   UNL     1      -4.896  14.894  20.885  0.00  0.00    +0.000 C 
ATOM     29  C   UNL     1      -4.372  13.537  21.274  0.00  0.00    +0.000 C 
ATOM     30  O   UNL     1      -4.549  12.530  20.596  0.00  0.00    +0.000 OA
ATOM     31  N   UNL     1      -3.685  13.529  22.464  0.00  0.00    +0.000 N 
ATOM     32  H   UNL     1      -3.722  14.351  23.057  0.00  0.00    +0.000 HD
ENDBRANCH  27  31
ENDBRANCH   1  27
TORSDOF 4
ENDMDL
MODEL 6
REMARK VINA RESULT:      -7.9      1.501      1.947
REMARK  Name = 
REMARK  5 active torsions:
REMARK  status: ('A' for Active; 'I' for Inactive)
REMARK    1  A    between atoms: C_1  and  C_2
REMARK    2  A    between atoms: N_4  and  C_5
REMARK    3  A    between atoms: C_5  and  C_6
REMARK    4  A    between atoms: C_15  and  C_16
REMARK    5  A    between atoms: C_20  and  C_22
REMARK                            x       y       z     vdW  Elec       q    Type
REMARK                         _______ _______ _______ _____ _____    ______ ____
ROOT
ATOM      1  C   UNL     1       5.874   4.685  16.644  0.00  0.00    +0.000 C 
ATOM      2  O   UNL     1       5.898   4.132  17.983  0.00  0.00    +0.000 OA
ATOM      3  C   UNL     1       4.873   4.648  18.727  0.00  0.00    +0.000 C 
ATOM      4  O   UNL     1       4.699   4.341  19.894  0.00  0.00    +0.000 OA
ATOM      5  N   UNL     1       4.183   5.558  17.970  0.00  0.00    +0.000 N 
ATOM      6  C   UNL     1       3.290   6.553  18.418  0.00  0.00    +0.000 A 
ATOM      7  C   UNL     1       2.577   6.442  19.607  0.00  0.00    +0.000 A 
ATOM      8  C   UNL     1       1.724   7.473  20.004  0.00  0.00    +0.000 A 
ATOM      9  F   UNL     1       1.049   7.305  21.152  0.00  0.00    +0.000 F 
ATOM     10  C   UNL     1       1.556   8.643  19.242  0.00  0.00    +0.000 A 
ATOM     11  C   UNL     1       2.280   8.736  18.039  0.00  0.00    +0.000 A 
ATOM     12  C   UNL     1       3.143   7.709  17.635  0.00  0.00    +0.000 A 
ATOM     13  O   UNL     1       3.848   7.929  16.468  0.00  0.00    +0.000 OA
ATOM     14  C   UNL     1       5.037   7.115  16.354  0.00  0.00    +0.000 C 
ATOM     15  C   UNL     1       4.702   5.657  16.638  0.00  0.00    +0.000 C 
ENDROOT
BRANCH  10  16
ATOM     16  C   UNL     1       0.709   9.766  19.717  0.00  0.00    +0.000 C 
ATOM     17  C   UNL     1      -0.309  10.271  18.987  0.00  0.00    +0.000 C 
ATOM     18  C   UNL     1      -1.204  11.408  19.418  0.00  0.00    +0.000 C 
ATOM     19  N   UNL     1      -0.927  11.818  20.789  0.00  0.00    +0.000 N 
ATOM     20  C   UNL     1      -1.997  12.221  21.580  0.00  0.00    +0.000 C 
ATOM     21  O   UNL     1      -3.150  12.258  21.158  0.00  0.00    +0.000 OA
ATOM     22  C   UNL     1       0.481  11.793  21.175  0.00  0.00    +0.000 C 
ATOM     23  C   UNL     1       1.018  10.366  21.071  0.00  0.00    +0.000 C 
BRANCH  20  24
ATOM     24  C   UNL     1      -1.742  12.576  23.013  0.00  0.00    +0.000 C 
ATOM     25  C   UNL     1      -1.180  13.932  23.385  0.00  0.00    +0.000 C 
ATOM     26  C   UNL     1      -2.620  13.622  23.669  0.00  0.00    +0.000 C 
ENDBRANCH  20  24
ENDBRANCH  10  16
BRANCH   1  27
ATOM     27  C   UNL     1       5.651   3.508  15.682  0.00  0.00    +0.000 C 
BRANCH  27  31
ATOM     28  C   UNL     1       7.034   3.816  12.165  0.00  0.00    +0.000 C 
ATOM     29  C   UNL     1       5.988   3.741  13.245  0.00  0.00    +0.000 C 
ATOM     30  O   UNL     1       4.785   3.831  13.022  0.00  0.00    +0.000 OA
ATOM     31  N   UNL     1       6.506   3.569  14.507  0.00  0.00    +0.000 N 
ATOM     32  H   UNL     1       7.505   3.675  14.645  0.00  0.00    +0.000 HD
ENDBRANCH  27  31
ENDBRANCH   1  27
TORSDOF 4
ENDMDL
MODEL 7
REMARK VINA RESULT:      -7.9      1.809      2.448
REMARK  Name = 
REMARK  5 active torsions:
REMARK  status: ('A' for Active; 'I' for Inactive)
REMARK    1  A    between atoms: C_1  and  C_2
REMARK    2  A    between atoms: N_4  and  C_5
REMARK    3  A    between atoms: C_5  and  C_6
REMARK    4  A    between atoms: C_15  and  C_16
REMARK    5  A    between atoms: C_20  and  C_22
REMARK                            x       y       z     vdW  Elec       q    Type
REMARK                         _______ _______ _______ _____ _____    ______ ____
ROOT
ATOM      1  C   UNL     1       5.842   4.688  17.188  0.00  0.00    +0.000 C 
ATOM      2  O   UNL     1       5.786   4.251  18.568  0.00  0.00    +0.000 OA
ATOM      3  C   UNL     1       4.716   4.819  19.201  0.00  0.00    +0.000 C 
ATOM      4  O   UNL     1       4.470   4.611  20.377  0.00  0.00    +0.000 OA
ATOM      5  N   UNL     1       4.071   5.657  18.329  0.00  0.00    +0.000 N 
ATOM      6  C   UNL     1       3.150   6.679  18.635  0.00  0.00    +0.000 A 
ATOM      7  C   UNL     1       2.365   6.663  19.784  0.00  0.00    +0.000 A 
ATOM      8  C   UNL     1       1.487   7.718  20.038  0.00  0.00    +0.000 A 
ATOM      9  F   UNL     1       0.743   7.642  21.154  0.00  0.00    +0.000 F 
ATOM     10  C   UNL     1       1.363   8.818  19.171  0.00  0.00    +0.000 A 
ATOM     11  C   UNL     1       2.159   8.815  18.011  0.00  0.00    +0.000 A 
ATOM     12  C   UNL     1       3.048   7.764  17.749  0.00  0.00    +0.000 A 
ATOM     13  O   UNL     1       3.824   7.890  16.613  0.00  0.00    +0.000 OA
ATOM     14  C   UNL     1       5.019   7.078  16.642  0.00  0.00    +0.000 C 
ATOM     15  C   UNL     1       4.671   5.647  17.028  0.00  0.00    +0.000 C 
ENDROOT
BRANCH  10  16
ATOM     16  C   UNL     1       0.485   9.970  19.496  0.00  0.00    +0.000 C 
ATOM     17  C   UNL     1      -0.421  10.466  18.626  0.00  0.00    +0.000 C 
ATOM     18  C   UNL     1      -1.340  11.631  18.901  0.00  0.00    +0.000 C 
ATOM     19  N   UNL     1      -1.232  12.085  20.282  0.00  0.00    +0.000 N 
ATOM     20  C   UNL     1      -2.386  12.532  20.916  0.00  0.00    +0.000 C 
ATOM     21  O   UNL     1      -3.475  12.573  20.348  0.00  0.00    +0.000 OA
ATOM     22  C   UNL     1       0.115  12.052  20.846  0.00  0.00    +0.000 C 
ATOM     23  C   UNL     1       0.631  10.613  20.859  0.00  0.00    +0.000 C 
BRANCH  20  24
ATOM     24  C   UNL     1      -2.309  12.934  22.356  0.00  0.00    +0.000 C 
ATOM     25  C   UNL     1      -3.553  12.967  23.219  0.00  0.00    +0.000 C 
ATOM     26  C   UNL     1      -2.539  11.880  23.418  0.00  0.00    +0.000 C 
ENDBRANCH  20  24
ENDBRANCH  10  16
BRANCH   1  27
ATOM     27  C   UNL     1       5.683   3.432  16.318  0.00  0.00    +0.000 C 
BRANCH  27  31
ATOM     28  C   UNL     1       6.938   4.569  12.925  0.00  0.00    +0.000 C 
ATOM     29  C   UNL     1       6.917   4.431  14.425  0.00  0.00    +0.000 C 
ATOM     30  O   UNL     1       7.774   4.919  15.155  0.00  0.00    +0.000 OA
ATOM     31  N   UNL     1       5.853   3.702  14.898  0.00  0.00    +0.000 N 
ATOM     32  H   UNL     1       5.281   3.184  14.240  0.00  0.00    +0.000 HD
ENDBRANCH  27  31
ENDBRANCH   1  27
TORSDOF 4
ENDMDL
MODEL 8
REMARK VINA RESULT:      -7.8      2.639     10.158
REMARK  Name = 
REMARK  5 active torsions:
REMARK  status: ('A' for Active; 'I' for Inactive)
REMARK    1  A    between atoms: C_1  and  C_2
REMARK    2  A    between atoms: N_4  and  C_5
REMARK    3  A    between atoms: C_5  and  C_6
REMARK    4  A    between atoms: C_15  and  C_16
REMARK    5  A    between atoms: C_20  and  C_22
REMARK                            x       y       z     vdW  Elec       q    Type
REMARK                         _______ _______ _______ _____ _____    ______ ____
ROOT
ATOM      1  C   UNL     1      -1.596  13.210  21.550  0.00  0.00    +0.000 C 
ATOM      2  O   UNL     1      -1.028  13.886  20.401  0.00  0.00    +0.000 OA
ATOM      3  C   UNL     1      -0.438  12.981  19.563  0.00  0.00    +0.000 C 
ATOM      4  O   UNL     1       0.122  13.318  18.533  0.00  0.00    +0.000 OA
ATOM      5  N   UNL     1      -0.537  11.729  20.111  0.00  0.00    +0.000 N 
ATOM      6  C   UNL     1       0.203  10.578  19.775  0.00  0.00    +0.000 A 
ATOM      7  C   UNL     1       0.766  10.389  18.517  0.00  0.00    +0.000 A 
ATOM      8  C   UNL     1       1.506   9.235  18.255  0.00  0.00    +0.000 A 
ATOM      9  F   UNL     1       2.013   9.097  17.019  0.00  0.00    +0.000 F 
ATOM     10  C   UNL     1       1.715   8.240  19.227  0.00  0.00    +0.000 A 
ATOM     11  C   UNL     1       1.133   8.444  20.491  0.00  0.00    +0.000 A 
ATOM     12  C   UNL     1       0.394   9.602  20.766  0.00  0.00    +0.000 A 
ATOM     13  O   UNL     1      -0.084   9.729  22.056  0.00  0.00    +0.000 OA
ATOM     14  C   UNL     1      -0.393  11.093  22.422  0.00  0.00    +0.000 C 
ATOM     15  C   UNL     1      -1.259  11.739  21.349  0.00  0.00    +0.000 C 
ENDROOT
BRANCH  10  16
ATOM     16  C   UNL     1       2.572   7.057  18.958  0.00  0.00    +0.000 C 
ATOM     17  C   UNL     1       2.227   5.807  19.331  0.00  0.00    +0.000 C 
ATOM     18  C   UNL     1       3.054   4.569  19.084  0.00  0.00    +0.000 C 
ATOM     19  N   UNL     1       4.226   4.861  18.267  0.00  0.00    +0.000 N 
ATOM     20  C   UNL     1       4.639   3.902  17.349  0.00  0.00    +0.000 C 
ATOM     21  O   UNL     1       4.065   2.823  17.222  0.00  0.00    +0.000 OA
ATOM     22  C   UNL     1       4.869   6.144  18.536  0.00  0.00    +0.000 C 
ATOM     23  C   UNL     1       3.889   7.282  18.247  0.00  0.00    +0.000 C 
BRANCH  20  24
ATOM     24  C   UNL     1       5.796   4.213  16.450  0.00  0.00    +0.000 C 
ATOM     25  C   UNL     1       5.783   3.790  14.997  0.00  0.00    +0.000 C 
ATOM     26  C   UNL     1       5.606   5.236  15.350  0.00  0.00    +0.000 C 
ENDBRANCH  20  24
ENDBRANCH  10  16
BRANCH   1  27
ATOM     27  C   UNL     1      -3.110  13.465  21.512  0.00  0.00    +0.000 C 
BRANCH  27  31
ATOM     28  C   UNL     1      -5.428  12.098  18.842  0.00  0.00    +0.000 C 
ATOM     29  C   UNL     1      -4.945  12.418  20.232  0.00  0.00    +0.000 C 
ATOM     30  O   UNL     1      -5.585  12.148  21.243  0.00  0.00    +0.000 OA
ATOM     31  N   UNL     1      -3.723  13.047  20.261  0.00  0.00    +0.000 N 
ATOM     32  H   UNL     1      -3.329  13.394  19.394  0.00  0.00    +0.000 HD
ENDBRANCH  27  31
ENDBRANCH   1  27
TORSDOF 4
ENDMDL
MODEL 9
REMARK VINA RESULT:      -7.8      3.180      5.022
REMARK  Name = 
REMARK  5 active torsions:
REMARK  status: ('A' for Active; 'I' for Inactive)
REMARK    1  A    between atoms: C_1  and  C_2
REMARK    2  A    between atoms: N_4  and  C_5
REMARK    3  A    between atoms: C_5  and  C_6
REMARK    4  A    between atoms: C_15  and  C_16
REMARK    5  A    between atoms: C_20  and  C_22
REMARK                            x       y       z     vdW  Elec       q    Type
REMARK                         _______ _______ _______ _____ _____    ______ ____
ROOT
ATOM      1  C   UNL     1       4.029   2.473  19.815  0.00  0.00    +0.000 C 
ATOM      2  O   UNL     1       4.228   2.699  18.398  0.00  0.00    +0.000 OA
ATOM      3  C   UNL     1       3.975   4.006  18.086  0.00  0.00    +0.000 C 
ATOM      4  O   UNL     1       4.062   4.431  16.947  0.00  0.00    +0.000 OA
ATOM      5  N   UNL     1       3.569   4.667  19.216  0.00  0.00    +0.000 N 
ATOM      6  C   UNL     1       2.899   5.904  19.299  0.00  0.00    +0.000 A 
ATOM      7  C   UNL     1       3.001   6.880  18.314  0.00  0.00    +0.000 A 
ATOM      8  C   UNL     1       2.294   8.077  18.447  0.00  0.00    +0.000 A 
ATOM      9  F   UNL     1       2.443   8.990  17.474  0.00  0.00    +0.000 F 
ATOM     10  C   UNL     1       1.464   8.338  19.551  0.00  0.00    +0.000 A 
ATOM     11  C   UNL     1       1.376   7.343  20.541  0.00  0.00    +0.000 A 
ATOM     12  C   UNL     1       2.077   6.136  20.413  0.00  0.00    +0.000 A 
ATOM     13  O   UNL     1       1.874   5.205  21.413  0.00  0.00    +0.000 OA
ATOM     14  C   UNL     1       2.200   3.854  21.013  0.00  0.00    +0.000 C 
ATOM     15  C   UNL     1       3.580   3.817  20.370  0.00  0.00    +0.000 C 
ENDROOT
BRANCH  10  16
ATOM     16  C   UNL     1       0.655   9.581  19.639  0.00  0.00    +0.000 C 
ATOM     17  C   UNL     1      -0.131  10.013  18.630  0.00  0.00    +0.000 C 
ATOM     18  C   UNL     1      -0.976  11.263  18.662  0.00  0.00    +0.000 C 
ATOM     19  N   UNL     1      -0.950  11.894  19.976  0.00  0.00    +0.000 N 
ATOM     20  C   UNL     1      -2.115  12.500  20.434  0.00  0.00    +0.000 C 
ATOM     21  O   UNL     1      -3.145  12.536  19.765  0.00  0.00    +0.000 OA
ATOM     22  C   UNL     1       0.337  11.847  20.665  0.00  0.00    +0.000 C 
ATOM     23  C   UNL     1       0.735  10.392  20.914  0.00  0.00    +0.000 C 
BRANCH  20  24
ATOM     24  C   UNL     1      -2.129  13.089  21.811  0.00  0.00    +0.000 C 
ATOM     25  C   UNL     1      -3.431  13.271  22.562  0.00  0.00    +0.000 C 
ATOM     26  C   UNL     1      -2.477  12.193  22.981  0.00  0.00    +0.000 C 
ENDBRANCH  20  24
ENDBRANCH  10  16
BRANCH   1  27
ATOM     27  C   UNL     1       5.384   2.036  20.389  0.00  0.00    +0.000 C 
BRANCH  27  31
ATOM     28  C   UNL     1       5.984  -1.364  21.956  0.00  0.00    +0.000 C 
ATOM     29  C   UNL     1       6.065   0.132  21.810  0.00  0.00    +0.000 C 
ATOM     30  O   UNL     1       6.629   0.856  22.623  0.00  0.00    +0.000 OA
ATOM     31  N   UNL     1       5.441   0.612  20.683  0.00  0.00    +0.000 N 
ATOM     32  H   UNL     1       4.849  -0.012  20.146  0.00  0.00    +0.000 HD
ENDBRANCH  27  31
ENDBRANCH   1  27
TORSDOF 4
ENDMDL
