MODEL 1
REMARK VINA RESULT:      -7.2      0.000      0.000
REMARK  Name = 
REMARK  6 active torsions:
REMARK  status: ('A' for Active; 'I' for Inactive)
REMARK    1  A    between atoms: C_1  and  C_2
REMARK    2  A    between atoms: C_5  and  C_6
REMARK    3  A    between atoms: C_6  and  C_7
REMARK    4  A    between atoms: C_6  and  C_8
REMARK    5  A    between atoms: C_11  and  C_12
REMARK    6  A    between atoms: C_13  and  O_14
REMARK                            x       y       z     vdW  Elec       q    Type
REMARK                         _______ _______ _______ _____ _____    ______ ____
ROOT
ATOM      1  C   UNL     1       4.986   6.325  16.194  0.00  0.00    +0.000 C 
ATOM      2  C   UNL     1       4.346   5.954  17.501  0.00  0.00    +0.000 C 
ATOM      3  C   UNL     1       4.699   4.819  18.129  0.00  0.00    +0.000 C 
ATOM      4  C   UNL     1       4.139   4.347  19.429  0.00  0.00    +0.000 C 
ATOM      5  C   UNL     1       2.986   5.180  20.040  0.00  0.00    +0.000 C 
ATOM      6  C   UNL     1       2.744   6.525  19.353  0.00  0.00    +0.000 A 
ATOM      7  C   UNL     1       1.870   7.457  19.959  0.00  0.00    +0.000 A 
ATOM      8  C   UNL     1       1.527   8.668  19.339  0.00  0.00    +0.000 A 
ATOM      9  C   UNL     1       0.549   9.595  20.000  0.00  0.00    +0.000 C 
ATOM     10  C   UNL     1       2.105   8.955  18.105  0.00  0.00    +0.000 A 
ATOM     11  C   UNL     1       3.007   8.072  17.516  0.00  0.00    +0.000 A 
ATOM     12  C   UNL     1       3.352   6.855  18.127  0.00  0.00    +0.000 A 
ENDROOT
BRANCH   5  13
ATOM     13  C   UNL     1       1.665   4.348  20.191  0.00  0.00    +0.000 C 
ATOM     14  C   UNL     1       1.264   3.615  18.906  0.00  0.00    +0.000 C 
ATOM     15  C   UNL     1       1.736   3.352  21.361  0.00  0.00    +0.000 C 
ENDBRANCH   5  13
BRANCH  10  16
ATOM     16  O   UNL     1       1.841  10.098  17.403  0.00  0.00    +0.000 OA
ATOM     17  H   UNL     1       0.882  10.232  17.354  0.00  0.00    +0.000 HD
ENDBRANCH  10  16
TORSDOF 2
ENDMDL
MODEL 2
REMARK VINA RESULT:      -7.1      1.735      3.957
REMARK  Name = 
REMARK  6 active torsions:
REMARK  status: ('A' for Active; 'I' for Inactive)
REMARK    1  A    between atoms: C_1  and  C_2
REMARK    2  A    between atoms: C_5  and  C_6
REMARK    3  A    between atoms: C_6  and  C_7
REMARK    4  A    between atoms: C_6  and  C_8
REMARK    5  A    between atoms: C_11  and  C_12
REMARK    6  A    between atoms: C_13  and  O_14
REMARK                            x       y       z     vdW  Elec       q    Type
REMARK                         _______ _______ _______ _____ _____    ______ ____
ROOT
ATOM      1  C   UNL     1       1.478   2.839  21.514  0.00  0.00    +0.000 C 
ATOM      2  C   UNL     1       1.992   3.076  20.123  0.00  0.00    +0.000 C 
ATOM      3  C   UNL     1       2.235   2.037  19.306  0.00  0.00    +0.000 C 
ATOM      4  C   UNL     1       2.742   2.145  17.907  0.00  0.00    +0.000 C 
ATOM      5  C   UNL     1       3.115   3.560  17.403  0.00  0.00    +0.000 C 
ATOM      6  C   UNL     1       2.674   4.697  18.327  0.00  0.00    +0.000 A 
ATOM      7  C   UNL     1       2.765   6.030  17.864  0.00  0.00    +0.000 A 
ATOM      8  C   UNL     1       2.469   7.126  18.689  0.00  0.00    +0.000 A 
ATOM      9  C   UNL     1       2.640   8.523  18.166  0.00  0.00    +0.000 C 
ATOM     10  C   UNL     1       2.041   6.867  19.989  0.00  0.00    +0.000 A 
ATOM     11  C   UNL     1       1.896   5.559  20.446  0.00  0.00    +0.000 A 
ATOM     12  C   UNL     1       2.196   4.456  19.629  0.00  0.00    +0.000 A 
ENDROOT
BRANCH   5  13
ATOM     13  C   UNL     1       4.629   3.673  17.010  0.00  0.00    +0.000 C 
ATOM     14  C   UNL     1       4.859   4.465  15.718  0.00  0.00    +0.000 C 
ATOM     15  C   UNL     1       5.482   4.263  18.144  0.00  0.00    +0.000 C 
ENDBRANCH   5  13
BRANCH  10  16
ATOM     16  O   UNL     1       1.733   7.852  20.885  0.00  0.00    +0.000 OA
ATOM     17  H   UNL     1       2.214   8.661  20.654  0.00  0.00    +0.000 HD
ENDBRANCH  10  16
TORSDOF 2
ENDMDL
MODEL 3
REMARK VINA RESULT:      -7.0      1.776      3.902
REMARK  Name = 
REMARK  6 active torsions:
REMARK  status: ('A' for Active; 'I' for Inactive)
REMARK    1  A    between atoms: C_1  and  C_2
REMARK    2  A    between atoms: C_5  and  C_6
REMARK    3  A    between atoms: C_6  and  C_7
REMARK    4  A    between atoms: C_6  and  C_8
REMARK    5  A    between atoms: C_11  and  C_12
REMARK    6  A    between atoms: C_13  and  O_14
REMARK                            x       y       z     vdW  Elec       q    Type
REMARK                         _______ _______ _______ _____ _____    ______ ____
ROOT
ATOM      1  C   UNL     1       2.156   2.974  21.492  0.00  0.00    +0.000 C 
ATOM      2  C   UNL     1       2.588   3.356  20.105  0.00  0.00    +0.000 C 
ATOM      3  C   UNL     1       2.998   2.412  19.241  0.00  0.00    +0.000 C 
ATOM      4  C   UNL     1       3.446   2.666  17.841  0.00  0.00    +0.000 C 
ATOM      5  C   UNL     1       3.544   4.145  17.393  0.00  0.00    +0.000 C 
ATOM      6  C   UNL     1       2.923   5.143  18.370  0.00  0.00    +0.000 A 
ATOM      7  C   UNL     1       2.759   6.488  17.964  0.00  0.00    +0.000 A 
ATOM      8  C   UNL     1       2.287   7.478  18.840  0.00  0.00    +0.000 A 
ATOM      9  C   UNL     1       2.189   8.902  18.375  0.00  0.00    +0.000 C 
ATOM     10  C   UNL     1       1.942   7.094  20.133  0.00  0.00    +0.000 A 
ATOM     11  C   UNL     1       2.048   5.764  20.536  0.00  0.00    +0.000 A 
ATOM     12  C   UNL     1       2.525   4.768  19.668  0.00  0.00    +0.000 A 
ENDROOT
BRANCH   5  13
ATOM     13  C   UNL     1       5.003   4.547  16.983  0.00  0.00    +0.000 C 
ATOM     14  C   UNL     1       5.986   4.523  18.158  0.00  0.00    +0.000 C 
ATOM     15  C   UNL     1       5.542   3.685  15.831  0.00  0.00    +0.000 C 
ENDBRANCH   5  13
BRANCH  10  16
ATOM     16  O   UNL     1       1.479   7.969  21.075  0.00  0.00    +0.000 OA
ATOM     17  H   UNL     1       1.267   7.487  21.888  0.00  0.00    +0.000 HD
ENDBRANCH  10  16
TORSDOF 2
ENDMDL
MODEL 4
REMARK VINA RESULT:      -6.8      3.804      5.343
REMARK  Name = 
REMARK  6 active torsions:
REMARK  status: ('A' for Active; 'I' for Inactive)
REMARK    1  A    between atoms: C_1  and  C_2
REMARK    2  A    between atoms: C_5  and  C_6
REMARK    3  A    between atoms: C_6  and  C_7
REMARK    4  A    between atoms: C_6  and  C_8
REMARK    5  A    between atoms: C_11  and  C_12
REMARK    6  A    between atoms: C_13  and  O_14
REMARK                            x       y       z     vdW  Elec       q    Type
REMARK                         _______ _______ _______ _____ _____    ______ ____
ROOT
ATOM      1  C   UNL     1       7.834   6.354  18.824  0.00  0.00    +0.000 C 
ATOM      2  C   UNL     1       6.543   5.654  18.504  0.00  0.00    +0.000 C 
ATOM      3  C   UNL     1       5.603   5.505  19.452  0.00  0.00    +0.000 C 
ATOM      4  C   UNL     1       4.285   4.833  19.255  0.00  0.00    +0.000 C 
ATOM      5  C   UNL     1       4.035   4.167  17.880  0.00  0.00    +0.000 C 
ATOM      6  C   UNL     1       5.078   4.506  16.815  0.00  0.00    +0.000 A 
ATOM      7  C   UNL     1       4.833   4.135  15.472  0.00  0.00    +0.000 A 
ATOM      8  C   UNL     1       5.786   4.327  14.460  0.00  0.00    +0.000 A 
ATOM      9  C   UNL     1       5.497   3.860  13.063  0.00  0.00    +0.000 C 
ATOM     10  C   UNL     1       6.990   4.936  14.806  0.00  0.00    +0.000 A 
ATOM     11  C   UNL     1       7.229   5.355  16.112  0.00  0.00    +0.000 A 
ATOM     12  C   UNL     1       6.283   5.161  17.133  0.00  0.00    +0.000 A 
ENDROOT
BRANCH   5  13
ATOM     13  C   UNL     1       3.795   2.622  18.002  0.00  0.00    +0.000 C 
ATOM     14  C   UNL     1       4.220   2.052  19.359  0.00  0.00    +0.000 C 
ATOM     15  C   UNL     1       2.337   2.235  17.705  0.00  0.00    +0.000 C 
ENDBRANCH   5  13
BRANCH  10  16
ATOM     16  O   UNL     1       7.995   5.168  13.909  0.00  0.00    +0.000 OA
ATOM     17  H   UNL     1       8.178   4.356  13.412  0.00  0.00    +0.000 HD
ENDBRANCH  10  16
TORSDOF 2
ENDMDL
MODEL 5
REMARK VINA RESULT:      -6.6      0.711      1.147
REMARK  Name = 
REMARK  6 active torsions:
REMARK  status: ('A' for Active; 'I' for Inactive)
REMARK    1  A    between atoms: C_1  and  C_2
REMARK    2  A    between atoms: C_5  and  C_6
REMARK    3  A    between atoms: C_6  and  C_7
REMARK    4  A    between atoms: C_6  and  C_8
REMARK    5  A    between atoms: C_11  and  C_12
REMARK    6  A    between atoms: C_13  and  O_14
REMARK                            x       y       z     vdW  Elec       q    Type
REMARK                         _______ _______ _______ _____ _____    ______ ____
ROOT
ATOM      1  C   UNL     1       5.276   6.275  15.706  0.00  0.00    +0.000 C 
ATOM      2  C   UNL     1       4.705   5.733  16.986  0.00  0.00    +0.000 C 
ATOM      3  C   UNL     1       5.110   4.542  17.457  0.00  0.00    +0.000 C 
ATOM      4  C   UNL     1       4.621   3.903  18.713  0.00  0.00    +0.000 C 
ATOM      5  C   UNL     1       3.480   4.627  19.470  0.00  0.00    +0.000 C 
ATOM      6  C   UNL     1       3.179   6.037  18.960  0.00  0.00    +0.000 A 
ATOM      7  C   UNL     1       2.315   6.867  19.712  0.00  0.00    +0.000 A 
ATOM      8  C   UNL     1       1.919   8.134  19.258  0.00  0.00    +0.000 A 
ATOM      9  C   UNL     1       0.953   8.949  20.068  0.00  0.00    +0.000 C 
ATOM     10  C   UNL     1       2.433   8.582  18.043  0.00  0.00    +0.000 A 
ATOM     11  C   UNL     1       3.325   7.799  17.313  0.00  0.00    +0.000 A 
ATOM     12  C   UNL     1       3.722   6.527  17.758  0.00  0.00    +0.000 A 
ENDROOT
BRANCH   5  13
ATOM     13  C   UNL     1       2.186   3.748  19.577  0.00  0.00    +0.000 C 
ATOM     14  C   UNL     1       1.283   4.147  20.750  0.00  0.00    +0.000 C 
ATOM     15  C   UNL     1       1.376   3.744  18.271  0.00  0.00    +0.000 C 
ENDBRANCH   5  13
BRANCH  10  16
ATOM     16  O   UNL     1       2.112   9.792  17.497  0.00  0.00    +0.000 OA
ATOM     17  H   UNL     1       1.487  10.254  18.076  0.00  0.00    +0.000 HD
ENDBRANCH  10  16
TORSDOF 2
ENDMDL
MODEL 6
REMARK VINA RESULT:      -6.6      3.113      5.087
REMARK  Name = 
REMARK  6 active torsions:
REMARK  status: ('A' for Active; 'I' for Inactive)
REMARK    1  A    between atoms: C_1  and  C_2
REMARK    2  A    between atoms: C_5  and  C_6
REMARK    3  A    between atoms: C_6  and  C_7
REMARK    4  A    between atoms: C_6  and  C_8
REMARK    5  A    between atoms: C_11  and  C_12
REMARK    6  A    between atoms: C_13  and  O_14
REMARK                            x       y       z     vdW  Elec       q    Type
REMARK                         _______ _______ _______ _____ _____    ______ ____
ROOT
ATOM      1  C   UNL     1       7.600   5.794  19.664  0.00  0.00    +0.000 C 
ATOM      2  C   UNL     1       6.981   5.114  18.476  0.00  0.00    +0.000 C 
ATOM      3  C   UNL     1       7.747   4.728  17.442  0.00  0.00    +0.000 C 
ATOM      4  C   UNL     1       7.250   4.044  16.213  0.00  0.00    +0.000 C 
ATOM      5  C   UNL     1       5.718   3.863  16.081  0.00  0.00    +0.000 C 
ATOM      6  C   UNL     1       4.932   4.187  17.353  0.00  0.00    +0.000 A 
ATOM      7  C   UNL     1       3.560   3.849  17.415  0.00  0.00    +0.000 A 
ATOM      8  C   UNL     1       2.755   4.202  18.509  0.00  0.00    +0.000 A 
ATOM      9  C   UNL     1       1.291   3.871  18.497  0.00  0.00    +0.000 C 
ATOM     10  C   UNL     1       3.356   4.874  19.571  0.00  0.00    +0.000 A 
ATOM     11  C   UNL     1       4.717   5.170  19.550  0.00  0.00    +0.000 A 
ATOM     12  C   UNL     1       5.529   4.826  18.456  0.00  0.00    +0.000 A 
ENDROOT
BRANCH   5  13
ATOM     13  C   UNL     1       5.137   4.599  14.824  0.00  0.00    +0.000 C 
ATOM     14  C   UNL     1       5.292   6.122  14.893  0.00  0.00    +0.000 C 
ATOM     15  C   UNL     1       5.738   4.071  13.512  0.00  0.00    +0.000 C 
ENDBRANCH   5  13
BRANCH  10  16
ATOM     16  O   UNL     1       2.673   5.276  20.684  0.00  0.00    +0.000 OA
ATOM     17  H   UNL     1       1.738   5.035  20.594  0.00  0.00    +0.000 HD
ENDBRANCH  10  16
TORSDOF 2
ENDMDL
MODEL 7
REMARK VINA RESULT:      -6.5      2.246      4.492
REMARK  Name = 
REMARK  6 active torsions:
REMARK  status: ('A' for Active; 'I' for Inactive)
REMARK    1  A    between atoms: C_1  and  C_2
REMARK    2  A    between atoms: C_5  and  C_6
REMARK    3  A    between atoms: C_6  and  C_7
REMARK    4  A    between atoms: C_6  and  C_8
REMARK    5  A    between atoms: C_11  and  C_12
REMARK    6  A    between atoms: C_13  and  O_14
REMARK                            x       y       z     vdW  Elec       q    Type
REMARK                         _______ _______ _______ _____ _____    ______ ____
ROOT
ATOM      1  C   UNL     1       2.367   7.802  18.672  0.00  0.00    +0.000 C 
ATOM      2  C   UNL     1       2.509   6.386  18.190  0.00  0.00    +0.000 C 
ATOM      3  C   UNL     1       1.481   5.528  18.300  0.00  0.00    +0.000 C 
ATOM      4  C   UNL     1       1.500   4.104  17.856  0.00  0.00    +0.000 C 
ATOM      5  C   UNL     1       2.846   3.551  17.327  0.00  0.00    +0.000 C 
ATOM      6  C   UNL     1       3.918   4.617  17.093  0.00  0.00    +0.000 A 
ATOM      7  C   UNL     1       5.102   4.258  16.408  0.00  0.00    +0.000 A 
ATOM      8  C   UNL     1       6.167   5.157  16.242  0.00  0.00    +0.000 A 
ATOM      9  C   UNL     1       7.425   4.706  15.559  0.00  0.00    +0.000 C 
ATOM     10  C   UNL     1       6.016   6.447  16.745  0.00  0.00    +0.000 A 
ATOM     11  C   UNL     1       4.837   6.834  17.378  0.00  0.00    +0.000 A 
ATOM     12  C   UNL     1       3.768   5.939  17.553  0.00  0.00    +0.000 A 
ENDROOT
BRANCH   5  13
ATOM     13  C   UNL     1       3.379   2.356  18.190  0.00  0.00    +0.000 C 
ATOM     14  C   UNL     1       4.312   2.800  19.322  0.00  0.00    +0.000 C 
ATOM     15  C   UNL     1       2.240   1.495  18.759  0.00  0.00    +0.000 C 
ENDBRANCH   5  13
BRANCH  10  16
ATOM     16  O   UNL     1       6.987   7.404  16.651  0.00  0.00    +0.000 OA
ATOM     17  H   UNL     1       6.768   8.145  17.236  0.00  0.00    +0.000 HD
ENDBRANCH  10  16
TORSDOF 2
ENDMDL
MODEL 8
REMARK VINA RESULT:      -6.5      2.349      4.782
REMARK  Name = 
REMARK  6 active torsions:
REMARK  status: ('A' for Active; 'I' for Inactive)
REMARK    1  A    between atoms: C_1  and  C_2
REMARK    2  A    between atoms: C_5  and  C_6
REMARK    3  A    between atoms: C_6  and  C_7
REMARK    4  A    between atoms: C_6  and  C_8
REMARK    5  A    between atoms: C_11  and  C_12
REMARK    6  A    between atoms: C_13  and  O_14
REMARK                            x       y       z     vdW  Elec       q    Type
REMARK                         _______ _______ _______ _____ _____    ______ ____
ROOT
ATOM      1  C   UNL     1       1.555   2.128  18.327  0.00  0.00    +0.000 C 
ATOM      2  C   UNL     1       2.013   3.439  18.901  0.00  0.00    +0.000 C 
ATOM      3  C   UNL     1       1.325   4.016  19.901  0.00  0.00    +0.000 C 
ATOM      4  C   UNL     1       1.682   5.309  20.554  0.00  0.00    +0.000 C 
ATOM      5  C   UNL     1       2.876   6.092  19.955  0.00  0.00    +0.000 C 
ATOM      6  C   UNL     1       3.694   5.308  18.927  0.00  0.00    +0.000 A 
ATOM      7  C   UNL     1       4.927   5.840  18.483  0.00  0.00    +0.000 A 
ATOM      8  C   UNL     1       5.682   5.224  17.472  0.00  0.00    +0.000 A 
ATOM      9  C   UNL     1       6.954   5.863  16.997  0.00  0.00    +0.000 C 
ATOM     10  C   UNL     1       5.200   4.035  16.931  0.00  0.00    +0.000 A 
ATOM     11  C   UNL     1       4.013   3.469  17.392  0.00  0.00    +0.000 A 
ATOM     12  C   UNL     1       3.248   4.082  18.399  0.00  0.00    +0.000 A 
ENDROOT
BRANCH   5  13
ATOM     13  C   UNL     1       2.455   7.505  19.422  0.00  0.00    +0.000 C 
ATOM     14  C   UNL     1       1.856   7.462  18.012  0.00  0.00    +0.000 C 
ATOM     15  C   UNL     1       1.491   8.224  20.379  0.00  0.00    +0.000 C 
ENDBRANCH   5  13
BRANCH  10  16
ATOM     16  O   UNL     1       5.843   3.351  15.938  0.00  0.00    +0.000 OA
ATOM     17  H   UNL     1       6.626   2.911  16.303  0.00  0.00    +0.000 HD
ENDBRANCH  10  16
TORSDOF 2
ENDMDL
MODEL 9
REMARK VINA RESULT:      -6.5      1.606      3.941
REMARK  Name = 
REMARK  6 active torsions:
REMARK  status: ('A' for Active; 'I' for Inactive)
REMARK    1  A    between atoms: C_1  and  C_2
REMARK    2  A    between atoms: C_5  and  C_6
REMARK    3  A    between atoms: C_6  and  C_7
REMARK    4  A    between atoms: C_6  and  C_8
REMARK    5  A    between atoms: C_11  and  C_12
REMARK    6  A    between atoms: C_13  and  O_14
REMARK                            x       y       z     vdW  Elec       q    Type
REMARK                         _______ _______ _______ _____ _____    ______ ____
ROOT
ATOM      1  C   UNL     1       3.035   3.283  20.460  0.00  0.00    +0.000 C 
ATOM      2  C   UNL     1       3.507   3.909  19.179  0.00  0.00    +0.000 C 
ATOM      3  C   UNL     1       4.176   3.175  18.274  0.00  0.00    +0.000 C 
ATOM      4  C   UNL     1       4.690   3.681  16.968  0.00  0.00    +0.000 C 
ATOM      5  C   UNL     1       4.529   5.196  16.690  0.00  0.00    +0.000 C 
ATOM      6  C   UNL     1       3.632   5.929  17.689  0.00  0.00    +0.000 A 
ATOM      7  C   UNL     1       3.239   7.259  17.408  0.00  0.00    +0.000 A 
ATOM      8  C   UNL     1       2.499   8.025  18.322  0.00  0.00    +0.000 A 
ATOM      9  C   UNL     1       2.159   9.450  17.999  0.00  0.00    +0.000 C 
ATOM     10  C   UNL     1       2.121   7.424  19.520  0.00  0.00    +0.000 A 
ATOM     11  C   UNL     1       2.455   6.099  19.792  0.00  0.00    +0.000 A 
ATOM     12  C   UNL     1       3.202   5.327  18.886  0.00  0.00    +0.000 A 
ENDROOT
BRANCH   5  13
ATOM     13  C   UNL     1       5.908   5.915  16.494  0.00  0.00    +0.000 C 
ATOM     14  C   UNL     1       6.659   6.146  17.810  0.00  0.00    +0.000 C 
ATOM     15  C   UNL     1       6.814   5.175  15.497  0.00  0.00    +0.000 C 
ENDBRANCH   5  13
BRANCH  10  16
ATOM     16  O   UNL     1       1.408   8.072  20.489  0.00  0.00    +0.000 OA
ATOM     17  H   UNL     1       1.117   8.934  20.154  0.00  0.00    +0.000 HD
ENDBRANCH  10  16
TORSDOF 2
ENDMDL
