MODEL 1
REMARK VINA RESULT:      -8.9      0.000      0.000
REMARK  Name = 
REMARK  7 active torsions:
REMARK  status: ('A' for Active; 'I' for Inactive)
REMARK    1  A    between atoms: C_1  and  C_2
REMARK    2  A    between atoms: C_6  and  C_7
REMARK    3  A    between atoms: C_9  and  C_10
REMARK    4  A    between atoms: C_10  and  N_11
REMARK    5  A    between atoms: N_11  and  C_12
REMARK    6  A    between atoms: C_15  and  C_16
REMARK    7  A    between atoms: C_21  and  C_22
REMARK                            x       y       z     vdW  Elec       q    Type
REMARK                         _______ _______ _______ _____ _____    ______ ____
ROOT
ATOM      1  C   UNL     1       2.214   6.455  19.317  0.00  0.00    +0.000 A 
ATOM      2  N   UNL     1       1.383   7.537  19.521  0.00  0.00    +0.000 N 
ATOM      3  C   UNL     1       1.897   8.623  18.855  0.00  0.00    +0.000 A 
ATOM      4  N   UNL     1       3.003   8.294  18.215  0.00  0.00    +0.000 NA
ATOM      5  C   UNL     1       3.207   6.968  18.504  0.00  0.00    +0.000 A 
ATOM      6  H   UNL     1       0.558   7.551  20.104  0.00  0.00    +0.000 HD
ENDROOT
BRANCH   5   7
ATOM      7  C   UNL     1       4.313   6.269  17.937  0.00  0.00    +0.000 A 
ATOM      8  C   UNL     1       5.209   5.494  18.803  0.00  0.00    +0.000 A 
ATOM      9  C   UNL     1       6.293   4.854  18.327  0.00  0.00    +0.000 A 
ATOM     10  C   UNL     1       6.587   4.917  16.940  0.00  0.00    +0.000 A 
ATOM     11  N   UNL     1       7.565   4.410  16.223  0.00  0.00    +0.000 NA
ATOM     12  C   UNL     1       7.265   4.837  14.965  0.00  0.00    +0.000 A 
ATOM     13  N   UNL     1       6.163   5.576  14.842  0.00  0.00    +0.000 NA
ATOM     14  N   UNL     1       5.712   5.641  16.123  0.00  0.00    +0.000 N 
ATOM     15  C   UNL     1       4.592   6.301  16.619  0.00  0.00    +0.000 A 
ENDBRANCH   5   7
BRANCH   1  21
ATOM     16  C   UNL     1       0.664   1.970  18.640  0.00  0.00    +0.000 C 
ATOM     17  C   UNL     1       1.271   2.971  19.578  0.00  0.00    +0.000 A 
ATOM     18  C   UNL     1       1.659   2.599  20.860  0.00  0.00    +0.000 A 
ATOM     19  C   UNL     1       2.228   3.557  21.691  0.00  0.00    +0.000 A 
ATOM     20  C   UNL     1       2.404   4.853  21.219  0.00  0.00    +0.000 A 
ATOM     21  C   UNL     1       2.002   5.146  19.922  0.00  0.00    +0.000 A 
ATOM     22  N   UNL     1       1.436   4.230  19.105  0.00  0.00    +0.000 NA
ENDBRANCH   1  21
BRANCH   3  23
ATOM     23  C   UNL     1       1.245   9.975  18.913  0.00  0.00    +0.000 C 
BRANCH  23  24
ATOM     24  N   UNL     1       0.414  10.265  17.744  0.00  0.00    +0.000 N 
ATOM     25  H   UNL     1       0.613   9.615  16.984  0.00  0.00    +0.000 HD
BRANCH  24  26
ATOM     26  C   UNL     1      -0.964  10.468  17.892  0.00  0.00    +0.000 A 
ATOM     27  C   UNL     1      -1.525  11.450  18.718  0.00  0.00    +0.000 A 
ATOM     28  C   UNL     1      -2.910  11.676  18.746  0.00  0.00    +0.000 A 
ATOM     29  C   UNL     1      -3.761  10.937  17.922  0.00  0.00    +0.000 A 
ATOM     30  C   UNL     1      -3.220   9.972  17.074  0.00  0.00    +0.000 A 
ATOM     31  C   UNL     1      -1.836   9.752  17.057  0.00  0.00    +0.000 A 
BRANCH  29  32
ATOM     32  C   UNL     1      -5.177  11.184  17.937  0.00  0.00    +0.000 C 
ATOM     33  N   UNL     1      -6.319  11.383  17.942  0.00  0.00    +0.000 NA
ENDBRANCH  29  32
ENDBRANCH  24  26
ENDBRANCH  23  24
ENDBRANCH   3  23
TORSDOF 6
ENDMDL
MODEL 2
REMARK VINA RESULT:      -8.7      2.662      8.178
REMARK  Name = 
REMARK  7 active torsions:
REMARK  status: ('A' for Active; 'I' for Inactive)
REMARK    1  A    between atoms: C_1  and  C_2
REMARK    2  A    between atoms: C_6  and  C_7
REMARK    3  A    between atoms: C_9  and  C_10
REMARK    4  A    between atoms: C_10  and  N_11
REMARK    5  A    between atoms: N_11  and  C_12
REMARK    6  A    between atoms: C_15  and  C_16
REMARK    7  A    between atoms: C_21  and  C_22
REMARK                            x       y       z     vdW  Elec       q    Type
REMARK                         _______ _______ _______ _____ _____    ______ ____
ROOT
ATOM      1  C   UNL     1       3.838   5.010  18.423  0.00  0.00    +0.000 A 
ATOM      2  N   UNL     1       5.088   4.580  18.030  0.00  0.00    +0.000 N 
ATOM      3  C   UNL     1       5.841   5.672  17.672  0.00  0.00    +0.000 A 
ATOM      4  N   UNL     1       5.150   6.784  17.833  0.00  0.00    +0.000 NA
ATOM      5  C   UNL     1       3.918   6.383  18.284  0.00  0.00    +0.000 A 
ATOM      6  H   UNL     1       5.393   3.619  17.965  0.00  0.00    +0.000 HD
ENDROOT
BRANCH   5   7
ATOM      7  C   UNL     1       2.917   7.348  18.600  0.00  0.00    +0.000 A 
ATOM      8  C   UNL     1       2.543   8.364  17.610  0.00  0.00    +0.000 A 
ATOM      9  C   UNL     1       1.639   9.325  17.873  0.00  0.00    +0.000 A 
ATOM     10  C   UNL     1       1.012   9.365  19.146  0.00  0.00    +0.000 A 
ATOM     11  N   UNL     1       0.124  10.182  19.666  0.00  0.00    +0.000 NA
ATOM     12  C   UNL     1      -0.057   9.670  20.916  0.00  0.00    +0.000 A 
ATOM     13  N   UNL     1       0.657   8.585  21.215  0.00  0.00    +0.000 NA
ATOM     14  N   UNL     1       1.362   8.376  20.073  0.00  0.00    +0.000 N 
ATOM     15  C   UNL     1       2.297   7.384  19.797  0.00  0.00    +0.000 A 
ENDBRANCH   5   7
BRANCH   1  21
ATOM     16  C   UNL     1       1.754   2.662  22.045  0.00  0.00    +0.000 C 
ATOM     17  C   UNL     1       1.745   2.997  20.583  0.00  0.00    +0.000 A 
ATOM     18  C   UNL     1       0.726   2.540  19.755  0.00  0.00    +0.000 A 
ATOM     19  C   UNL     1       0.752   2.885  18.409  0.00  0.00    +0.000 A 
ATOM     20  C   UNL     1       1.785   3.683  17.928  0.00  0.00    +0.000 A 
ATOM     21  C   UNL     1       2.761   4.112  18.819  0.00  0.00    +0.000 A 
ATOM     22  N   UNL     1       2.757   3.775  20.128  0.00  0.00    +0.000 NA
ENDBRANCH   1  21
BRANCH   3  23
ATOM     23  C   UNL     1       7.244   5.538  17.154  0.00  0.00    +0.000 C 
BRANCH  23  24
ATOM     24  N   UNL     1       7.399   6.015  15.779  0.00  0.00    +0.000 N 
ATOM     25  H   UNL     1       8.342   6.371  15.620  0.00  0.00    +0.000 HD
BRANCH  24  26
ATOM     26  C   UNL     1       6.967   5.226  14.706  0.00  0.00    +0.000 A 
ATOM     27  C   UNL     1       7.664   5.099  13.499  0.00  0.00    +0.000 A 
ATOM     28  C   UNL     1       7.236   4.212  12.498  0.00  0.00    +0.000 A 
ATOM     29  C   UNL     1       6.111   3.411  12.701  0.00  0.00    +0.000 A 
ATOM     30  C   UNL     1       5.417   3.505  13.906  0.00  0.00    +0.000 A 
ATOM     31  C   UNL     1       5.850   4.396  14.897  0.00  0.00    +0.000 A 
BRANCH  29  32
ATOM     32  C   UNL     1       5.686   2.489  11.684  0.00  0.00    +0.000 C 
ATOM     33  N   UNL     1       5.348   1.741  10.865  0.00  0.00    +0.000 NA
ENDBRANCH  29  32
ENDBRANCH  24  26
ENDBRANCH  23  24
ENDBRANCH   3  23
TORSDOF 6
ENDMDL
MODEL 3
REMARK VINA RESULT:      -8.5      2.192      2.597
REMARK  Name = 
REMARK  7 active torsions:
REMARK  status: ('A' for Active; 'I' for Inactive)
REMARK    1  A    between atoms: C_1  and  C_2
REMARK    2  A    between atoms: C_6  and  C_7
REMARK    3  A    between atoms: C_9  and  C_10
REMARK    4  A    between atoms: C_10  and  N_11
REMARK    5  A    between atoms: N_11  and  C_12
REMARK    6  A    between atoms: C_15  and  C_16
REMARK    7  A    between atoms: C_21  and  C_22
REMARK                            x       y       z     vdW  Elec       q    Type
REMARK                         _______ _______ _______ _____ _____    ______ ____
ROOT
ATOM      1  C   UNL     1       2.193   6.472  19.281  0.00  0.00    +0.000 A 
ATOM      2  N   UNL     1       1.351   7.549  19.462  0.00  0.00    +0.000 N 
ATOM      3  C   UNL     1       1.861   8.630  18.785  0.00  0.00    +0.000 A 
ATOM      4  N   UNL     1       2.976   8.303  18.161  0.00  0.00    +0.000 NA
ATOM      5  C   UNL     1       3.190   6.983  18.471  0.00  0.00    +0.000 A 
ATOM      6  H   UNL     1       0.520   7.564  20.036  0.00  0.00    +0.000 HD
ENDROOT
BRANCH   5   7
ATOM      7  C   UNL     1       4.308   6.286  17.925  0.00  0.00    +0.000 A 
ATOM      8  C   UNL     1       5.205   5.536  18.812  0.00  0.00    +0.000 A 
ATOM      9  C   UNL     1       6.299   4.899  18.356  0.00  0.00    +0.000 A 
ATOM     10  C   UNL     1       6.604   4.941  16.970  0.00  0.00    +0.000 A 
ATOM     11  N   UNL     1       7.593   4.432  16.270  0.00  0.00    +0.000 NA
ATOM     12  C   UNL     1       7.299   4.834  15.002  0.00  0.00    +0.000 A 
ATOM     13  N   UNL     1       6.190   5.560  14.858  0.00  0.00    +0.000 NA
ATOM     14  N   UNL     1       5.728   5.642  16.134  0.00  0.00    +0.000 N 
ATOM     15  C   UNL     1       4.597   6.298  16.609  0.00  0.00    +0.000 A 
ENDBRANCH   5   7
BRANCH   1  21
ATOM     16  C   UNL     1       0.663   1.972  18.662  0.00  0.00    +0.000 C 
ATOM     17  C   UNL     1       1.265   2.987  19.587  0.00  0.00    +0.000 A 
ATOM     18  C   UNL     1       1.656   2.634  20.874  0.00  0.00    +0.000 A 
ATOM     19  C   UNL     1       2.220   3.605  21.693  0.00  0.00    +0.000 A 
ATOM     20  C   UNL     1       2.390   4.896  21.204  0.00  0.00    +0.000 A 
ATOM     21  C   UNL     1       1.987   5.171  19.903  0.00  0.00    +0.000 A 
ATOM     22  N   UNL     1       1.425   4.241  19.099  0.00  0.00    +0.000 NA
ENDBRANCH   1  21
BRANCH   3  23
ATOM     23  C   UNL     1       1.197   9.977  18.817  0.00  0.00    +0.000 C 
BRANCH  23  24
ATOM     24  N   UNL     1       1.367  10.673  20.093  0.00  0.00    +0.000 N 
ATOM     25  H   UNL     1       1.923  11.520  19.975  0.00  0.00    +0.000 HD
BRANCH  24  26
ATOM     26  C   UNL     1       0.263  10.901  20.924  0.00  0.00    +0.000 A 
ATOM     27  C   UNL     1       0.080  10.283  22.167  0.00  0.00    +0.000 A 
ATOM     28  C   UNL     1      -0.992  10.628  23.003  0.00  0.00    +0.000 A 
ATOM     29  C   UNL     1      -1.892  11.625  22.621  0.00  0.00    +0.000 A 
ATOM     30  C   UNL     1      -1.713  12.271  21.398  0.00  0.00    +0.000 A 
ATOM     31  C   UNL     1      -0.641  11.915  20.569  0.00  0.00    +0.000 A 
BRANCH  29  32
ATOM     32  C   UNL     1      -2.978  11.993  23.488  0.00  0.00    +0.000 C 
ATOM     33  N   UNL     1      -3.856  12.292  24.182  0.00  0.00    +0.000 NA
ENDBRANCH  29  32
ENDBRANCH  24  26
ENDBRANCH  23  24
ENDBRANCH   3  23
TORSDOF 6
ENDMDL
MODEL 4
REMARK VINA RESULT:      -8.5      0.951      1.459
REMARK  Name = 
REMARK  7 active torsions:
REMARK  status: ('A' for Active; 'I' for Inactive)
REMARK    1  A    between atoms: C_1  and  C_2
REMARK    2  A    between atoms: C_6  and  C_7
REMARK    3  A    between atoms: C_9  and  C_10
REMARK    4  A    between atoms: C_10  and  N_11
REMARK    5  A    between atoms: N_11  and  C_12
REMARK    6  A    between atoms: C_15  and  C_16
REMARK    7  A    between atoms: C_21  and  C_22
REMARK                            x       y       z     vdW  Elec       q    Type
REMARK                         _______ _______ _______ _____ _____    ______ ____
ROOT
ATOM      1  C   UNL     1       2.399   6.210  18.544  0.00  0.00    +0.000 A 
ATOM      2  N   UNL     1       1.528   7.182  18.991  0.00  0.00    +0.000 N 
ATOM      3  C   UNL     1       2.003   8.414  18.609  0.00  0.00    +0.000 A 
ATOM      4  N   UNL     1       3.122   8.287  17.923  0.00  0.00    +0.000 NA
ATOM      5  C   UNL     1       3.375   6.938  17.889  0.00  0.00    +0.000 A 
ATOM      6  H   UNL     1       0.701   7.027  19.550  0.00  0.00    +0.000 HD
ENDROOT
BRANCH   5   7
ATOM      7  C   UNL     1       4.508   6.435  17.184  0.00  0.00    +0.000 A 
ATOM      8  C   UNL     1       5.861   6.796  17.624  0.00  0.00    +0.000 A 
ATOM      9  C   UNL     1       6.962   6.387  16.969  0.00  0.00    +0.000 A 
ATOM     10  C   UNL     1       6.825   5.572  15.814  0.00  0.00    +0.000 A 
ATOM     11  N   UNL     1       7.710   5.052  14.993  0.00  0.00    +0.000 NA
ATOM     12  C   UNL     1       6.930   4.380  14.101  0.00  0.00    +0.000 A 
ATOM     13  N   UNL     1       5.615   4.440  14.308  0.00  0.00    +0.000 NA
ATOM     14  N   UNL     1       5.531   5.218  15.420  0.00  0.00    +0.000 N 
ATOM     15  C   UNL     1       4.394   5.642  16.100  0.00  0.00    +0.000 A 
ENDBRANCH   5   7
BRANCH   1  21
ATOM     16  C   UNL     1       2.240   2.804  21.912  0.00  0.00    +0.000 C 
ATOM     17  C   UNL     1       2.136   3.149  20.457  0.00  0.00    +0.000 A 
ATOM     18  C   UNL     1       1.818   2.176  19.516  0.00  0.00    +0.000 A 
ATOM     19  C   UNL     1       1.721   2.543  18.179  0.00  0.00    +0.000 A 
ATOM     20  C   UNL     1       1.933   3.870  17.818  0.00  0.00    +0.000 A 
ATOM     21  C   UNL     1       2.234   4.789  18.816  0.00  0.00    +0.000 A 
ATOM     22  N   UNL     1       2.345   4.445  20.119  0.00  0.00    +0.000 NA
ENDBRANCH   1  21
BRANCH   3  23
ATOM     23  C   UNL     1       1.301   9.688  18.981  0.00  0.00    +0.000 C 
BRANCH  23  24
ATOM     24  N   UNL     1       0.548  10.276  17.873  0.00  0.00    +0.000 N 
ATOM     25  H   UNL     1       0.786   9.826  16.990  0.00  0.00    +0.000 HD
BRANCH  24  26
ATOM     26  C   UNL     1      -0.834  10.472  17.986  0.00  0.00    +0.000 A 
ATOM     27  C   UNL     1      -1.421  11.464  18.782  0.00  0.00    +0.000 A 
ATOM     28  C   UNL     1      -2.807  11.681  18.775  0.00  0.00    +0.000 A 
ATOM     29  C   UNL     1      -3.635  10.922  17.945  0.00  0.00    +0.000 A 
ATOM     30  C   UNL     1      -3.068   9.946  17.127  0.00  0.00    +0.000 A 
ATOM     31  C   UNL     1      -1.683   9.735  17.144  0.00  0.00    +0.000 A 
BRANCH  29  32
ATOM     32  C   UNL     1      -5.052  11.160  17.923  0.00  0.00    +0.000 C 
ATOM     33  N   UNL     1      -6.194  11.357  17.906  0.00  0.00    +0.000 NA
ENDBRANCH  29  32
ENDBRANCH  24  26
ENDBRANCH  23  24
ENDBRANCH   3  23
TORSDOF 6
ENDMDL
MODEL 5
REMARK VINA RESULT:      -8.5      0.795      1.177
REMARK  Name = 
REMARK  7 active torsions:
REMARK  status: ('A' for Active; 'I' for Inactive)
REMARK    1  A    between atoms: C_1  and  C_2
REMARK    2  A    between atoms: C_6  and  C_7
REMARK    3  A    between atoms: C_9  and  C_10
REMARK    4  A    between atoms: C_10  and  N_11
REMARK    5  A    between atoms: N_11  and  C_12
REMARK    6  A    between atoms: C_15  and  C_16
REMARK    7  A    between atoms: C_21  and  C_22
REMARK                            x       y       z     vdW  Elec       q    Type
REMARK                         _______ _______ _______ _____ _____    ______ ____
ROOT
ATOM      1  C   UNL     1       2.523   6.252  19.247  0.00  0.00    +0.000 A 
ATOM      2  N   UNL     1       1.619   7.250  19.547  0.00  0.00    +0.000 N 
ATOM      3  C   UNL     1       1.970   8.388  18.862  0.00  0.00    +0.000 A 
ATOM      4  N   UNL     1       3.039   8.171  18.121  0.00  0.00    +0.000 NA
ATOM      5  C   UNL     1       3.388   6.866  18.361  0.00  0.00    +0.000 A 
ATOM      6  H   UNL     1       0.852   7.179  20.200  0.00  0.00    +0.000 HD
ENDROOT
BRANCH   5   7
ATOM      7  C   UNL     1       4.498   6.280  17.684  0.00  0.00    +0.000 A 
ATOM      8  C   UNL     1       5.769   6.090  18.394  0.00  0.00    +0.000 A 
ATOM      9  C   UNL     1       6.860   5.585  17.790  0.00  0.00    +0.000 A 
ATOM     10  C   UNL     1       6.792   5.213  16.421  0.00  0.00    +0.000 A 
ATOM     11  N   UNL     1       7.688   4.718  15.597  0.00  0.00    +0.000 NA
ATOM     12  C   UNL     1       6.986   4.588  14.437  0.00  0.00    +0.000 A 
ATOM     13  N   UNL     1       5.708   4.965  14.477  0.00  0.00    +0.000 NA
ATOM     14  N   UNL     1       5.568   5.379  15.764  0.00  0.00    +0.000 N 
ATOM     15  C   UNL     1       4.441   5.901  16.392  0.00  0.00    +0.000 A 
ENDBRANCH   5   7
BRANCH   1  21
ATOM     16  C   UNL     1       3.438   1.591  18.605  0.00  0.00    +0.000 C 
ATOM     17  C   UNL     1       2.954   2.670  19.528  0.00  0.00    +0.000 A 
ATOM     18  C   UNL     1       2.607   2.378  20.842  0.00  0.00    +0.000 A 
ATOM     19  C   UNL     1       2.175   3.411  21.666  0.00  0.00    +0.000 A 
ATOM     20  C   UNL     1       2.111   4.706  21.160  0.00  0.00    +0.000 A 
ATOM     21  C   UNL     1       2.486   4.922  19.840  0.00  0.00    +0.000 A 
ATOM     22  N   UNL     1       2.896   3.926  19.023  0.00  0.00    +0.000 NA
ENDBRANCH   1  21
BRANCH   3  23
ATOM     23  C   UNL     1       1.206   9.673  19.006  0.00  0.00    +0.000 C 
BRANCH  23  24
ATOM     24  N   UNL     1       0.567  10.106  17.763  0.00  0.00    +0.000 N 
ATOM     25  H   UNL     1       0.844   9.511  16.983  0.00  0.00    +0.000 HD
BRANCH  24  26
ATOM     26  C   UNL     1      -0.807  10.376  17.734  0.00  0.00    +0.000 A 
ATOM     27  C   UNL     1      -1.726   9.666  16.952  0.00  0.00    +0.000 A 
ATOM     28  C   UNL     1      -3.105   9.912  17.042  0.00  0.00    +0.000 A 
ATOM     29  C   UNL     1      -3.594  10.861  17.942  0.00  0.00    +0.000 A 
ATOM     30  C   UNL     1      -2.697  11.561  18.747  0.00  0.00    +0.000 A 
ATOM     31  C   UNL     1      -1.322  11.311  18.647  0.00  0.00    +0.000 A 
BRANCH  29  32
ATOM     32  C   UNL     1      -5.008  11.097  18.048  0.00  0.00    +0.000 C 
ATOM     33  N   UNL     1      -6.147  11.293  18.135  0.00  0.00    +0.000 NA
ENDBRANCH  29  32
ENDBRANCH  24  26
ENDBRANCH  23  24
ENDBRANCH   3  23
TORSDOF 6
ENDMDL
MODEL 6
REMARK VINA RESULT:      -8.5      1.330      4.676
REMARK  Name = 
REMARK  7 active torsions:
REMARK  status: ('A' for Active; 'I' for Inactive)
REMARK    1  A    between atoms: C_1  and  C_2
REMARK    2  A    between atoms: C_6  and  C_7
REMARK    3  A    between atoms: C_9  and  C_10
REMARK    4  A    between atoms: C_10  and  N_11
REMARK    5  A    between atoms: N_11  and  C_12
REMARK    6  A    between atoms: C_15  and  C_16
REMARK    7  A    between atoms: C_21  and  C_22
REMARK                            x       y       z     vdW  Elec       q    Type
REMARK                         _______ _______ _______ _____ _____    ______ ____
ROOT
ATOM      1  C   UNL     1       3.791   7.232  17.560  0.00  0.00    +0.000 A 
ATOM      2  N   UNL     1       3.593   8.584  17.372  0.00  0.00    +0.000 N 
ATOM      3  C   UNL     1       2.422   8.951  17.990  0.00  0.00    +0.000 A 
ATOM      4  N   UNL     1       1.865   7.913  18.583  0.00  0.00    +0.000 NA
ATOM      5  C   UNL     1       2.696   6.854  18.314  0.00  0.00    +0.000 A 
ATOM      6  H   UNL     1       4.180   9.201  16.829  0.00  0.00    +0.000 HD
ENDROOT
BRANCH   5   7
ATOM      7  C   UNL     1       2.410   5.561  18.843  0.00  0.00    +0.000 A 
ATOM      8  C   UNL     1       1.973   4.485  17.945  0.00  0.00    +0.000 A 
ATOM      9  C   UNL     1       1.647   3.260  18.398  0.00  0.00    +0.000 A 
ATOM     10  C   UNL     1       1.729   2.985  19.788  0.00  0.00    +0.000 A 
ATOM     11  N   UNL     1       1.463   1.905  20.489  0.00  0.00    +0.000 NA
ATOM     12  C   UNL     1       1.750   2.298  21.761  0.00  0.00    +0.000 A 
ATOM     13  N   UNL     1       2.180   3.552  21.907  0.00  0.00    +0.000 NA
ATOM     14  N   UNL     1       2.167   4.013  20.629  0.00  0.00    +0.000 N 
ATOM     15  C   UNL     1       2.505   5.278  20.157  0.00  0.00    +0.000 A 
ENDBRANCH   5   7
BRANCH   1  21
ATOM     16  C   UNL     1       7.895   4.929  18.470  0.00  0.00    +0.000 C 
ATOM     17  C   UNL     1       6.885   5.359  17.447  0.00  0.00    +0.000 A 
ATOM     18  C   UNL     1       7.013   4.976  16.117  0.00  0.00    +0.000 A 
ATOM     19  C   UNL     1       6.048   5.388  15.206  0.00  0.00    +0.000 A 
ATOM     20  C   UNL     1       4.977   6.159  15.647  0.00  0.00    +0.000 A 
ATOM     21  C   UNL     1       4.911   6.492  16.994  0.00  0.00    +0.000 A 
ATOM     22  N   UNL     1       5.849   6.111  17.890  0.00  0.00    +0.000 NA
ENDBRANCH   1  21
BRANCH   3  23
ATOM     23  C   UNL     1       1.898  10.358  17.934  0.00  0.00    +0.000 C 
BRANCH  23  24
ATOM     24  N   UNL     1       0.992  10.680  19.037  0.00  0.00    +0.000 N 
ATOM     25  H   UNL     1       1.364  11.443  19.604  0.00  0.00    +0.000 HD
BRANCH  24  26
ATOM     26  C   UNL     1      -0.378  10.847  18.799  0.00  0.00    +0.000 A 
ATOM     27  C   UNL     1      -1.162  11.836  19.404  0.00  0.00    +0.000 A 
ATOM     28  C   UNL     1      -2.507  12.021  19.048  0.00  0.00    +0.000 A 
ATOM     29  C   UNL     1      -3.088  11.232  18.054  0.00  0.00    +0.000 A 
ATOM     30  C   UNL     1      -2.317  10.258  17.421  0.00  0.00    +0.000 A 
ATOM     31  C   UNL     1      -0.976  10.079  17.787  0.00  0.00    +0.000 A 
BRANCH  29  32
ATOM     32  C   UNL     1      -4.459  11.437  17.676  0.00  0.00    +0.000 C 
ATOM     33  N   UNL     1      -5.567  11.601  17.376  0.00  0.00    +0.000 NA
ENDBRANCH  29  32
ENDBRANCH  24  26
ENDBRANCH  23  24
ENDBRANCH   3  23
TORSDOF 6
ENDMDL
MODEL 7
REMARK VINA RESULT:      -8.4      1.328      4.585
REMARK  Name = 
REMARK  7 active torsions:
REMARK  status: ('A' for Active; 'I' for Inactive)
REMARK    1  A    between atoms: C_1  and  C_2
REMARK    2  A    between atoms: C_6  and  C_7
REMARK    3  A    between atoms: C_9  and  C_10
REMARK    4  A    between atoms: C_10  and  N_11
REMARK    5  A    between atoms: N_11  and  C_12
REMARK    6  A    between atoms: C_15  and  C_16
REMARK    7  A    between atoms: C_21  and  C_22
REMARK                            x       y       z     vdW  Elec       q    Type
REMARK                         _______ _______ _______ _____ _____    ______ ____
ROOT
ATOM      1  C   UNL     1       3.851   7.198  17.645  0.00  0.00    +0.000 A 
ATOM      2  N   UNL     1       3.652   8.543  17.414  0.00  0.00    +0.000 N 
ATOM      3  C   UNL     1       2.438   8.910  17.943  0.00  0.00    +0.000 A 
ATOM      4  N   UNL     1       1.853   7.877  18.519  0.00  0.00    +0.000 NA
ATOM      5  C   UNL     1       2.711   6.823  18.330  0.00  0.00    +0.000 A 
ATOM      6  H   UNL     1       4.268   9.155  16.899  0.00  0.00    +0.000 HD
ENDROOT
BRANCH   5   7
ATOM      7  C   UNL     1       2.403   5.538  18.867  0.00  0.00    +0.000 A 
ATOM      8  C   UNL     1       1.881   4.485  17.987  0.00  0.00    +0.000 A 
ATOM      9  C   UNL     1       1.532   3.271  18.449  0.00  0.00    +0.000 A 
ATOM     10  C   UNL     1       1.673   2.982  19.832  0.00  0.00    +0.000 A 
ATOM     11  N   UNL     1       1.402   1.909  20.540  0.00  0.00    +0.000 NA
ATOM     12  C   UNL     1       1.766   2.282  21.798  0.00  0.00    +0.000 A 
ATOM     13  N   UNL     1       2.250   3.518  21.928  0.00  0.00    +0.000 NA
ATOM     14  N   UNL     1       2.191   3.988  20.655  0.00  0.00    +0.000 N 
ATOM     15  C   UNL     1       2.553   5.242  20.173  0.00  0.00    +0.000 A 
ENDBRANCH   5   7
BRANCH   1  21
ATOM     16  C   UNL     1       5.618   4.328  14.236  0.00  0.00    +0.000 C 
ATOM     17  C   UNL     1       5.868   5.088  15.505  0.00  0.00    +0.000 A 
ATOM     18  C   UNL     1       7.135   5.121  16.076  0.00  0.00    +0.000 A 
ATOM     19  C   UNL     1       7.323   5.848  17.246  0.00  0.00    +0.000 A 
ATOM     20  C   UNL     1       6.248   6.529  17.807  0.00  0.00    +0.000 A 
ATOM     21  C   UNL     1       5.014   6.459  17.172  0.00  0.00    +0.000 A 
ATOM     22  N   UNL     1       4.812   5.746  16.041  0.00  0.00    +0.000 NA
ENDBRANCH   1  21
BRANCH   3  23
ATOM     23  C   UNL     1       1.905  10.308  17.820  0.00  0.00    +0.000 C 
BRANCH  23  24
ATOM     24  N   UNL     1       1.038  10.694  18.934  0.00  0.00    +0.000 N 
ATOM     25  H   UNL     1       1.426  11.490  19.441  0.00  0.00    +0.000 HD
BRANCH  24  26
ATOM     26  C   UNL     1      -0.341  10.843  18.736  0.00  0.00    +0.000 A 
ATOM     27  C   UNL     1      -1.121  11.815  19.372  0.00  0.00    +0.000 A 
ATOM     28  C   UNL     1      -2.478  11.984  19.056  0.00  0.00    +0.000 A 
ATOM     29  C   UNL     1      -3.076  11.195  18.071  0.00  0.00    +0.000 A 
ATOM     30  C   UNL     1      -2.309  10.238  17.408  0.00  0.00    +0.000 A 
ATOM     31  C   UNL     1      -0.956  10.074  17.735  0.00  0.00    +0.000 A 
BRANCH  29  32
ATOM     32  C   UNL     1      -4.460  11.383  17.733  0.00  0.00    +0.000 C 
ATOM     33  N   UNL     1      -5.578  11.530  17.465  0.00  0.00    +0.000 NA
ENDBRANCH  29  32
ENDBRANCH  24  26
ENDBRANCH  23  24
ENDBRANCH   3  23
TORSDOF 6
ENDMDL
MODEL 8
REMARK VINA RESULT:      -8.3      1.023      1.042
REMARK  Name = 
REMARK  7 active torsions:
REMARK  status: ('A' for Active; 'I' for Inactive)
REMARK    1  A    between atoms: C_1  and  C_2
REMARK    2  A    between atoms: C_6  and  C_7
REMARK    3  A    between atoms: C_9  and  C_10
REMARK    4  A    between atoms: C_10  and  N_11
REMARK    5  A    between atoms: N_11  and  C_12
REMARK    6  A    between atoms: C_15  and  C_16
REMARK    7  A    between atoms: C_21  and  C_22
REMARK                            x       y       z     vdW  Elec       q    Type
REMARK                         _______ _______ _______ _____ _____    ______ ____
ROOT
ATOM      1  C   UNL     1       2.577   6.572  18.837  0.00  0.00    +0.000 A 
ATOM      2  N   UNL     1       1.707   7.616  19.070  0.00  0.00    +0.000 N 
ATOM      3  C   UNL     1       2.114   8.706  18.339  0.00  0.00    +0.000 A 
ATOM      4  N   UNL     1       3.189   8.413  17.632  0.00  0.00    +0.000 NA
ATOM      5  C   UNL     1       3.483   7.109  17.941  0.00  0.00    +0.000 A 
ATOM      6  H   UNL     1       0.925   7.606  19.709  0.00  0.00    +0.000 HD
ENDROOT
BRANCH   5   7
ATOM      7  C   UNL     1       4.582   6.449  17.316  0.00  0.00    +0.000 A 
ATOM      8  C   UNL     1       5.889   6.418  17.983  0.00  0.00    +0.000 A 
ATOM      9  C   UNL     1       6.970   5.850  17.418  0.00  0.00    +0.000 A 
ATOM     10  C   UNL     1       6.854   5.251  16.136  0.00  0.00    +0.000 A 
ATOM     11  N   UNL     1       7.730   4.651  15.361  0.00  0.00    +0.000 NA
ATOM     12  C   UNL     1       6.982   4.307  14.276  0.00  0.00    +0.000 A 
ATOM     13  N   UNL     1       5.695   4.649  14.317  0.00  0.00    +0.000 NA
ATOM     14  N   UNL     1       5.597   5.269  15.522  0.00  0.00    +0.000 N 
ATOM     15  C   UNL     1       4.481   5.856  16.110  0.00  0.00    +0.000 A 
ENDBRANCH   5   7
BRANCH   1  21
ATOM     16  C   UNL     1       3.219   1.842  18.396  0.00  0.00    +0.000 C 
ATOM     17  C   UNL     1       2.813   2.987  19.276  0.00  0.00    +0.000 A 
ATOM     18  C   UNL     1       2.474   2.775  20.608  0.00  0.00    +0.000 A 
ATOM     19  C   UNL     1       2.115   3.867  21.389  0.00  0.00    +0.000 A 
ATOM     20  C   UNL     1       2.114   5.139  20.826  0.00  0.00    +0.000 A 
ATOM     21  C   UNL     1       2.477   5.274  19.491  0.00  0.00    +0.000 A 
ATOM     22  N   UNL     1       2.816   4.220  18.714  0.00  0.00    +0.000 NA
ENDBRANCH   1  21
BRANCH   3  23
ATOM     23  C   UNL     1       1.398  10.024  18.406  0.00  0.00    +0.000 C 
BRANCH  23  24
ATOM     24  N   UNL     1       0.297  10.033  19.369  0.00  0.00    +0.000 N 
ATOM     25  H   UNL     1       0.581  10.475  20.244  0.00  0.00    +0.000 HD
BRANCH  24  26
ATOM     26  C   UNL     1      -0.979  10.456  18.977  0.00  0.00    +0.000 A 
ATOM     27  C   UNL     1      -1.675  11.507  19.586  0.00  0.00    +0.000 A 
ATOM     28  C   UNL     1      -2.907  11.955  19.083  0.00  0.00    +0.000 A 
ATOM     29  C   UNL     1      -3.454  11.375  17.938  0.00  0.00    +0.000 A 
ATOM     30  C   UNL     1      -2.764  10.344  17.302  0.00  0.00    +0.000 A 
ATOM     31  C   UNL     1      -1.537   9.901  17.814  0.00  0.00    +0.000 A 
BRANCH  29  32
ATOM     32  C   UNL     1      -4.704  11.849  17.412  0.00  0.00    +0.000 C 
ATOM     33  N   UNL     1      -5.715  12.225  16.988  0.00  0.00    +0.000 NA
ENDBRANCH  29  32
ENDBRANCH  24  26
ENDBRANCH  23  24
ENDBRANCH   3  23
TORSDOF 6
ENDMDL
MODEL 9
REMARK VINA RESULT:      -8.3      0.885      1.638
REMARK  Name = 
REMARK  7 active torsions:
REMARK  status: ('A' for Active; 'I' for Inactive)
REMARK    1  A    between atoms: C_1  and  C_2
REMARK    2  A    between atoms: C_6  and  C_7
REMARK    3  A    between atoms: C_9  and  C_10
REMARK    4  A    between atoms: C_10  and  N_11
REMARK    5  A    between atoms: N_11  and  C_12
REMARK    6  A    between atoms: C_15  and  C_16
REMARK    7  A    between atoms: C_21  and  C_22
REMARK                            x       y       z     vdW  Elec       q    Type
REMARK                         _______ _______ _______ _____ _____    ______ ____
ROOT
ATOM      1  C   UNL     1       2.327   6.434  18.457  0.00  0.00    +0.000 A 
ATOM      2  N   UNL     1       1.516   7.517  18.724  0.00  0.00    +0.000 N 
ATOM      3  C   UNL     1       2.143   8.659  18.287  0.00  0.00    +0.000 A 
ATOM      4  N   UNL     1       3.305   8.368  17.736  0.00  0.00    +0.000 NA
ATOM      5  C   UNL     1       3.428   7.006  17.847  0.00  0.00    +0.000 A 
ATOM      6  H   UNL     1       0.629   7.490  19.205  0.00  0.00    +0.000 HD
ENDROOT
BRANCH   5   7
ATOM      7  C   UNL     1       4.569   6.339  17.311  0.00  0.00    +0.000 A 
ATOM      8  C   UNL     1       5.590   5.797  18.216  0.00  0.00    +0.000 A 
ATOM      9  C   UNL     1       6.707   5.200  17.763  0.00  0.00    +0.000 A 
ATOM     10  C   UNL     1       6.915   5.077  16.364  0.00  0.00    +0.000 A 
ATOM     11  N   UNL     1       7.900   4.563  15.662  0.00  0.00    +0.000 NA
ATOM     12  C   UNL     1       7.486   4.760  14.380  0.00  0.00    +0.000 A 
ATOM     13  N   UNL     1       6.306   5.362  14.228  0.00  0.00    +0.000 NA
ATOM     14  N   UNL     1       5.924   5.578  15.514  0.00  0.00    +0.000 N 
ATOM     15  C   UNL     1       4.769   6.194  15.986  0.00  0.00    +0.000 A 
ENDBRANCH   5   7
BRANCH   1  21
ATOM     16  C   UNL     1       2.143   3.231  22.019  0.00  0.00    +0.000 C 
ATOM     17  C   UNL     1       1.893   3.528  20.570  0.00  0.00    +0.000 A 
ATOM     18  C   UNL     1       1.314   2.575  19.739  0.00  0.00    +0.000 A 
ATOM     19  C   UNL     1       1.089   2.898  18.406  0.00  0.00    +0.000 A 
ATOM     20  C   UNL     1       1.437   4.162  17.941  0.00  0.00    +0.000 A 
ATOM     21  C   UNL     1       2.000   5.065  18.834  0.00  0.00    +0.000 A 
ATOM     22  N   UNL     1       2.237   4.763  20.131  0.00  0.00    +0.000 NA
ENDBRANCH   1  21
BRANCH   3  23
ATOM     23  C   UNL     1       1.536  10.021  18.471  0.00  0.00    +0.000 C 
BRANCH  23  24
ATOM     24  N   UNL     1       0.306  10.001  19.263  0.00  0.00    +0.000 N 
ATOM     25  H   UNL     1       0.465  10.389  20.194  0.00  0.00    +0.000 HD
BRANCH  24  26
ATOM     26  C   UNL     1      -0.893  10.473  18.715  0.00  0.00    +0.000 A 
ATOM     27  C   UNL     1      -1.500   9.927  17.577  0.00  0.00    +0.000 A 
ATOM     28  C   UNL     1      -2.755  10.373  17.134  0.00  0.00    +0.000 A 
ATOM     29  C   UNL     1      -3.442  11.361  17.842  0.00  0.00    +0.000 A 
ATOM     30  C   UNL     1      -2.866  11.900  18.991  0.00  0.00    +0.000 A 
ATOM     31  C   UNL     1      -1.611  11.450  19.423  0.00  0.00    +0.000 A 
BRANCH  29  32
ATOM     32  C   UNL     1      -4.737  11.801  17.399  0.00  0.00    +0.000 C 
ATOM     33  N   UNL     1      -5.778  12.160  17.038  0.00  0.00    +0.000 NA
ENDBRANCH  29  32
ENDBRANCH  24  26
ENDBRANCH  23  24
ENDBRANCH   3  23
TORSDOF 6
ENDMDL
