MODEL 1
REMARK VINA RESULT:      -6.8      0.000      0.000
REMARK  Name = 
REMARK  11 active torsions:
REMARK  status: ('A' for Active; 'I' for Inactive)
REMARK    1  A    between atoms: C_1  and  O_2
REMARK    2  A    between atoms: O_2  and  C_3
REMARK    3  A    between atoms: C_5  and  O_6
REMARK    4  A    between atoms: O_6  and  C_7
REMARK    5  A    between atoms: C_15  and  C_16
REMARK    6  A    between atoms: C_16  and  C_17
REMARK    7  A    between atoms: C_17  and  O_18
REMARK    8  A    between atoms: C_17  and  C_19
REMARK    9  A    between atoms: C_19  and  C_20
REMARK   10  A    between atoms: C_19  and  C_21
REMARK   11  A    between atoms: C_19  and  O_22
REMARK                            x       y       z     vdW  Elec       q    Type
REMARK                         _______ _______ _______ _____ _____    ______ ____
ROOT
ATOM      1  C   UNL     1       3.727   3.871  18.427  0.00  0.00    +0.000 A 
ATOM      2  C   UNL     1       3.214   3.747  19.722  0.00  0.00    +0.000 A 
ATOM      3  C   UNL     1       2.563   4.803  20.388  0.00  0.00    +0.000 A 
ATOM      4  C   UNL     1       2.448   6.044  19.745  0.00  0.00    +0.000 A 
ATOM      5  C   UNL     1       1.762   7.230  20.259  0.00  0.00    +0.000 A 
ATOM      6  C   UNL     1       1.709   8.372  19.563  0.00  0.00    +0.000 A 
ATOM      7  C   UNL     1       2.330   8.522  18.249  0.00  0.00    +0.000 A 
ATOM      8  O   UNL     1       2.266   9.575  17.633  0.00  0.00    +0.000 OA
ATOM      9  O   UNL     1       2.971   7.399  17.752  0.00  0.00    +0.000 OA
ATOM     10  C   UNL     1       3.030   6.165  18.458  0.00  0.00    +0.000 A 
ATOM     11  C   UNL     1       3.667   5.106  17.776  0.00  0.00    +0.000 A 
ENDROOT
BRANCH   1  13
ATOM     12  C   UNL     1       3.753   1.540  18.067  0.00  0.00    +0.000 C 
ATOM     13  O   UNL     1       4.308   2.822  17.757  0.00  0.00    +0.000 OA
ENDBRANCH   1  13
BRANCH   3  14
ATOM     14  O   UNL     1       2.133   4.364  21.609  0.00  0.00    +0.000 OA
ATOM     15  C   UNL     1       1.746   3.029  21.852  0.00  0.00    +0.000 C 
ENDBRANCH   3  14
BRANCH  11  16
ATOM     16  C   UNL     1       4.205   5.285  16.363  0.00  0.00    +0.000 C 
BRANCH  16  17
ATOM     17  C   UNL     1       5.578   5.978  16.264  0.00  0.00    +0.000 C 
BRANCH  17  18
ATOM     18  C   UNL     1       6.760   5.009  15.937  0.00  0.00    +0.000 C 
ATOM     19  C   UNL     1       7.505   4.527  17.189  0.00  0.00    +0.000 C 
ATOM     20  C   UNL     1       6.328   3.809  15.095  0.00  0.00    +0.000 C 
BRANCH  18  21
ATOM     21  O   UNL     1       7.719   5.739  15.150  0.00  0.00    +0.000 OA
ATOM     22  H   UNL     1       7.187   6.341  14.589  0.00  0.00    +0.000 HD
ENDBRANCH  18  21
ENDBRANCH  17  18
BRANCH  17  23
ATOM     23  O   UNL     1       5.920   6.653  17.493  0.00  0.00    +0.000 OA
ATOM     24  H   UNL     1       5.187   6.520  18.123  0.00  0.00    +0.000 HD
ENDBRANCH  17  23
ENDBRANCH  16  17
ENDBRANCH  11  16
TORSDOF 7
ENDMDL
MODEL 2
REMARK VINA RESULT:      -6.6      0.824      1.081
REMARK  Name = 
REMARK  11 active torsions:
REMARK  status: ('A' for Active; 'I' for Inactive)
REMARK    1  A    between atoms: C_1  and  O_2
REMARK    2  A    between atoms: O_2  and  C_3
REMARK    3  A    between atoms: C_5  and  O_6
REMARK    4  A    between atoms: O_6  and  C_7
REMARK    5  A    between atoms: C_15  and  C_16
REMARK    6  A    between atoms: C_16  and  C_17
REMARK    7  A    between atoms: C_17  and  O_18
REMARK    8  A    between atoms: C_17  and  C_19
REMARK    9  A    between atoms: C_19  and  C_20
REMARK   10  A    between atoms: C_19  and  C_21
REMARK   11  A    between atoms: C_19  and  O_22
REMARK                            x       y       z     vdW  Elec       q    Type
REMARK                         _______ _______ _______ _____ _____    ______ ____
ROOT
ATOM      1  C   UNL     1       3.561   3.581  18.578  0.00  0.00    +0.000 A 
ATOM      2  C   UNL     1       3.063   3.408  19.873  0.00  0.00    +0.000 A 
ATOM      3  C   UNL     1       2.438   4.443  20.596  0.00  0.00    +0.000 A 
ATOM      4  C   UNL     1       2.337   5.713  20.011  0.00  0.00    +0.000 A 
ATOM      5  C   UNL     1       1.678   6.886  20.586  0.00  0.00    +0.000 A 
ATOM      6  C   UNL     1       1.636   8.060  19.943  0.00  0.00    +0.000 A 
ATOM      7  C   UNL     1       2.242   8.258  18.629  0.00  0.00    +0.000 A 
ATOM      8  O   UNL     1       2.189   9.338  18.062  0.00  0.00    +0.000 OA
ATOM      9  O   UNL     1       2.857   7.148  18.073  0.00  0.00    +0.000 OA
ATOM     10  C   UNL     1       2.905   5.883  18.722  0.00  0.00    +0.000 A 
ATOM     11  C   UNL     1       3.514   4.845  17.985  0.00  0.00    +0.000 A 
ENDROOT
BRANCH   1  13
ATOM     12  C   UNL     1       3.727   1.247  18.287  0.00  0.00    +0.000 C 
ATOM     13  O   UNL     1       4.114   2.554  17.854  0.00  0.00    +0.000 OA
ENDBRANCH   1  13
BRANCH   3  14
ATOM     14  O   UNL     1       2.017   3.956  21.802  0.00  0.00    +0.000 OA
ATOM     15  C   UNL     1       1.597   2.622  21.986  0.00  0.00    +0.000 C 
ENDBRANCH   3  14
BRANCH  11  16
ATOM     16  C   UNL     1       4.036   5.079  16.574  0.00  0.00    +0.000 C 
BRANCH  16  17
ATOM     17  C   UNL     1       5.451   5.685  16.487  0.00  0.00    +0.000 C 
BRANCH  17  18
ATOM     18  C   UNL     1       6.572   4.645  16.160  0.00  0.00    +0.000 C 
ATOM     19  C   UNL     1       7.278   4.922  14.827  0.00  0.00    +0.000 C 
ATOM     20  C   UNL     1       7.605   4.516  17.279  0.00  0.00    +0.000 C 
BRANCH  18  21
ATOM     21  O   UNL     1       5.946   3.356  16.028  0.00  0.00    +0.000 OA
ATOM     22  H   UNL     1       5.343   3.282  16.796  0.00  0.00    +0.000 HD
ENDBRANCH  18  21
ENDBRANCH  17  18
BRANCH  17  23
ATOM     23  O   UNL     1       5.827   6.328  17.724  0.00  0.00    +0.000 OA
ATOM     24  H   UNL     1       5.580   7.270  17.660  0.00  0.00    +0.000 HD
ENDBRANCH  17  23
ENDBRANCH  16  17
ENDBRANCH  11  16
TORSDOF 7
ENDMDL
MODEL 3
REMARK VINA RESULT:      -6.4      1.347      3.979
REMARK  Name = 
REMARK  11 active torsions:
REMARK  status: ('A' for Active; 'I' for Inactive)
REMARK    1  A    between atoms: C_1  and  O_2
REMARK    2  A    between atoms: O_2  and  C_3
REMARK    3  A    between atoms: C_5  and  O_6
REMARK    4  A    between atoms: O_6  and  C_7
REMARK    5  A    between atoms: C_15  and  C_16
REMARK    6  A    between atoms: C_16  and  C_17
REMARK    7  A    between atoms: C_17  and  O_18
REMARK    8  A    between atoms: C_17  and  C_19
REMARK    9  A    between atoms: C_19  and  C_20
REMARK   10  A    between atoms: C_19  and  C_21
REMARK   11  A    between atoms: C_19  and  O_22
REMARK                            x       y       z     vdW  Elec       q    Type
REMARK                         _______ _______ _______ _____ _____    ______ ____
ROOT
ATOM      1  C   UNL     1       2.739   7.538  18.516  0.00  0.00    +0.000 A 
ATOM      2  C   UNL     1       1.887   7.715  19.611  0.00  0.00    +0.000 A 
ATOM      3  C   UNL     1       1.617   6.693  20.541  0.00  0.00    +0.000 A 
ATOM      4  C   UNL     1       2.197   5.431  20.350  0.00  0.00    +0.000 A 
ATOM      5  C   UNL     1       2.073   4.273  21.236  0.00  0.00    +0.000 A 
ATOM      6  C   UNL     1       2.670   3.106  20.963  0.00  0.00    +0.000 A 
ATOM      7  C   UNL     1       3.482   2.901  19.765  0.00  0.00    +0.000 A 
ATOM      8  O   UNL     1       4.017   1.826  19.539  0.00  0.00    +0.000 OA
ATOM      9  O   UNL     1       3.613   3.997  18.928  0.00  0.00    +0.000 OA
ATOM     10  C   UNL     1       3.006   5.255  19.199  0.00  0.00    +0.000 A 
ATOM     11  C   UNL     1       3.297   6.280  18.274  0.00  0.00    +0.000 A 
ENDROOT
BRANCH   1  13
ATOM     12  C   UNL     1       2.195   9.698  17.743  0.00  0.00    +0.000 C 
ATOM     13  O   UNL     1       3.047   8.554  17.645  0.00  0.00    +0.000 OA
ENDBRANCH   1  13
BRANCH   3  14
ATOM     14  O   UNL     1       0.796   7.183  21.518  0.00  0.00    +0.000 OA
ATOM     15  C   UNL     1       0.287   8.499  21.504  0.00  0.00    +0.000 C 
ENDBRANCH   3  14
BRANCH  11  16
ATOM     16  C   UNL     1       4.236   6.042  17.099  0.00  0.00    +0.000 C 
BRANCH  16  17
ATOM     17  C   UNL     1       5.738   6.176  17.419  0.00  0.00    +0.000 C 
BRANCH  17  18
ATOM     18  C   UNL     1       6.652   5.192  16.619  0.00  0.00    +0.000 C 
ATOM     19  C   UNL     1       7.684   4.479  17.501  0.00  0.00    +0.000 C 
ATOM     20  C   UNL     1       5.855   4.165  15.816  0.00  0.00    +0.000 C 
BRANCH  18  21
ATOM     21  O   UNL     1       7.399   5.969  15.665  0.00  0.00    +0.000 OA
ATOM     22  H   UNL     1       7.713   6.754  16.161  0.00  0.00    +0.000 HD
ENDBRANCH  18  21
ENDBRANCH  17  18
BRANCH  17  23
ATOM     23  O   UNL     1       6.003   5.945  18.820  0.00  0.00    +0.000 OA
ATOM     24  H   UNL     1       5.183   5.611  19.229  0.00  0.00    +0.000 HD
ENDBRANCH  17  23
ENDBRANCH  16  17
ENDBRANCH  11  16
TORSDOF 7
ENDMDL
MODEL 4
REMARK VINA RESULT:      -6.4      2.105      6.040
REMARK  Name = 
REMARK  11 active torsions:
REMARK  status: ('A' for Active; 'I' for Inactive)
REMARK    1  A    between atoms: C_1  and  O_2
REMARK    2  A    between atoms: O_2  and  C_3
REMARK    3  A    between atoms: C_5  and  O_6
REMARK    4  A    between atoms: O_6  and  C_7
REMARK    5  A    between atoms: C_15  and  C_16
REMARK    6  A    between atoms: C_16  and  C_17
REMARK    7  A    between atoms: C_17  and  O_18
REMARK    8  A    between atoms: C_17  and  C_19
REMARK    9  A    between atoms: C_19  and  C_20
REMARK   10  A    between atoms: C_19  and  C_21
REMARK   11  A    between atoms: C_19  and  O_22
REMARK                            x       y       z     vdW  Elec       q    Type
REMARK                         _______ _______ _______ _____ _____    ______ ____
ROOT
ATOM      1  C   UNL     1       4.847   5.499  18.317  0.00  0.00    +0.000 A 
ATOM      2  C   UNL     1       6.028   6.247  18.356  0.00  0.00    +0.000 A 
ATOM      3  C   UNL     1       6.936   6.297  17.280  0.00  0.00    +0.000 A 
ATOM      4  C   UNL     1       6.668   5.540  16.131  0.00  0.00    +0.000 A 
ATOM      5  C   UNL     1       7.464   5.511  14.904  0.00  0.00    +0.000 A 
ATOM      6  C   UNL     1       7.120   4.751  13.856  0.00  0.00    +0.000 A 
ATOM      7  C   UNL     1       5.934   3.899  13.859  0.00  0.00    +0.000 A 
ATOM      8  O   UNL     1       5.641   3.216  12.890  0.00  0.00    +0.000 OA
ATOM      9  O   UNL     1       5.169   3.932  15.014  0.00  0.00    +0.000 OA
ATOM     10  C   UNL     1       5.497   4.740  16.137  0.00  0.00    +0.000 A 
ATOM     11  C   UNL     1       4.573   4.701  17.203  0.00  0.00    +0.000 A 
ENDROOT
BRANCH   1  13
ATOM     12  C   UNL     1       3.026   6.606  19.327  0.00  0.00    +0.000 C 
ATOM     13  O   UNL     1       3.935   5.502  19.344  0.00  0.00    +0.000 OA
ENDBRANCH   1  13
BRANCH   3  14
ATOM     14  O   UNL     1       7.960   7.144  17.598  0.00  0.00    +0.000 OA
ATOM     15  C   UNL     1       7.798   8.542  17.694  0.00  0.00    +0.000 C 
ENDBRANCH   3  14
BRANCH  11  16
ATOM     16  C   UNL     1       3.296   3.878  17.113  0.00  0.00    +0.000 C 
BRANCH  16  17
ATOM     17  C   UNL     1       3.271   2.605  17.982  0.00  0.00    +0.000 C 
BRANCH  17  18
ATOM     18  C   UNL     1       2.100   2.561  19.018  0.00  0.00    +0.000 C 
ATOM     19  C   UNL     1       2.581   2.643  20.472  0.00  0.00    +0.000 C 
ATOM     20  C   UNL     1       1.041   3.632  18.759  0.00  0.00    +0.000 C 
BRANCH  18  21
ATOM     21  O   UNL     1       1.442   1.289  18.879  0.00  0.00    +0.000 OA
ATOM     22  H   UNL     1       1.616   0.815  19.718  0.00  0.00    +0.000 HD
ENDBRANCH  18  21
ENDBRANCH  17  18
BRANCH  17  23
ATOM     23  O   UNL     1       4.496   2.452  18.731  0.00  0.00    +0.000 OA
ATOM     24  H   UNL     1       4.539   3.173  19.386  0.00  0.00    +0.000 HD
ENDBRANCH  17  23
ENDBRANCH  16  17
ENDBRANCH  11  16
TORSDOF 7
ENDMDL
MODEL 5
REMARK VINA RESULT:      -6.4      1.177      1.399
REMARK  Name = 
REMARK  11 active torsions:
REMARK  status: ('A' for Active; 'I' for Inactive)
REMARK    1  A    between atoms: C_1  and  O_2
REMARK    2  A    between atoms: O_2  and  C_3
REMARK    3  A    between atoms: C_5  and  O_6
REMARK    4  A    between atoms: O_6  and  C_7
REMARK    5  A    between atoms: C_15  and  C_16
REMARK    6  A    between atoms: C_16  and  C_17
REMARK    7  A    between atoms: C_17  and  O_18
REMARK    8  A    between atoms: C_17  and  C_19
REMARK    9  A    between atoms: C_19  and  C_20
REMARK   10  A    between atoms: C_19  and  C_21
REMARK   11  A    between atoms: C_19  and  O_22
REMARK                            x       y       z     vdW  Elec       q    Type
REMARK                         _______ _______ _______ _____ _____    ______ ____
ROOT
ATOM      1  C   UNL     1       3.373   3.043  18.488  0.00  0.00    +0.000 A 
ATOM      2  C   UNL     1       2.814   3.059  19.770  0.00  0.00    +0.000 A 
ATOM      3  C   UNL     1       2.319   4.232  20.372  0.00  0.00    +0.000 A 
ATOM      4  C   UNL     1       2.418   5.446  19.677  0.00  0.00    +0.000 A 
ATOM      5  C   UNL     1       1.914   6.746  20.120  0.00  0.00    +0.000 A 
ATOM      6  C   UNL     1       2.059   7.851  19.378  0.00  0.00    +0.000 A 
ATOM      7  C   UNL     1       2.729   7.843  18.080  0.00  0.00    +0.000 A 
ATOM      8  O   UNL     1       2.848   8.864  17.422  0.00  0.00    +0.000 OA
ATOM      9  O   UNL     1       3.198   6.613  17.650  0.00  0.00    +0.000 OA
ATOM     10  C   UNL     1       3.045   5.417  18.406  0.00  0.00    +0.000 A 
ATOM     11  C   UNL     1       3.525   4.243  17.788  0.00  0.00    +0.000 A 
ENDROOT
BRANCH   1  13
ATOM     12  C   UNL     1       4.081   0.813  18.780  0.00  0.00    +0.000 C 
ATOM     13  O   UNL     1       3.799   1.888  17.880  0.00  0.00    +0.000 OA
ENDBRANCH   1  13
BRANCH   3  14
ATOM     14  O   UNL     1       1.795   3.920  21.595  0.00  0.00    +0.000 OA
ATOM     15  C   UNL     1       1.421   2.608  21.958  0.00  0.00    +0.000 C 
ENDBRANCH   3  14
BRANCH  11  16
ATOM     16  C   UNL     1       4.120   4.273  16.387  0.00  0.00    +0.000 C 
BRANCH  16  17
ATOM     17  C   UNL     1       5.658   4.176  16.322  0.00  0.00    +0.000 C 
BRANCH  17  18
ATOM     18  C   UNL     1       6.357   5.469  15.790  0.00  0.00    +0.000 C 
ATOM     19  C   UNL     1       7.200   6.180  16.857  0.00  0.00    +0.000 C 
ATOM     20  C   UNL     1       7.203   5.215  14.543  0.00  0.00    +0.000 C 
BRANCH  18  21
ATOM     21  O   UNL     1       5.325   6.396  15.404  0.00  0.00    +0.000 OA
ATOM     22  H   UNL     1       5.328   7.088  16.097  0.00  0.00    +0.000 HD
ENDBRANCH  18  21
ENDBRANCH  17  18
BRANCH  17  23
ATOM     23  O   UNL     1       6.083   3.091  15.470  0.00  0.00    +0.000 OA
ATOM     24  H   UNL     1       6.578   3.474  14.722  0.00  0.00    +0.000 HD
ENDBRANCH  17  23
ENDBRANCH  16  17
ENDBRANCH  11  16
TORSDOF 7
ENDMDL
MODEL 6
REMARK VINA RESULT:      -6.4      1.490      4.121
REMARK  Name = 
REMARK  11 active torsions:
REMARK  status: ('A' for Active; 'I' for Inactive)
REMARK    1  A    between atoms: C_1  and  O_2
REMARK    2  A    between atoms: O_2  and  C_3
REMARK    3  A    between atoms: C_5  and  O_6
REMARK    4  A    between atoms: O_6  and  C_7
REMARK    5  A    between atoms: C_15  and  C_16
REMARK    6  A    between atoms: C_16  and  C_17
REMARK    7  A    between atoms: C_17  and  O_18
REMARK    8  A    between atoms: C_17  and  C_19
REMARK    9  A    between atoms: C_19  and  C_20
REMARK   10  A    between atoms: C_19  and  C_21
REMARK   11  A    between atoms: C_19  and  O_22
REMARK                            x       y       z     vdW  Elec       q    Type
REMARK                         _______ _______ _______ _____ _____    ______ ____
ROOT
ATOM      1  C   UNL     1       2.669   7.553  18.547  0.00  0.00    +0.000 A 
ATOM      2  C   UNL     1       1.848   7.745  19.663  0.00  0.00    +0.000 A 
ATOM      3  C   UNL     1       1.572   6.724  20.593  0.00  0.00    +0.000 A 
ATOM      4  C   UNL     1       2.114   5.448  20.380  0.00  0.00    +0.000 A 
ATOM      5  C   UNL     1       1.979   4.288  21.262  0.00  0.00    +0.000 A 
ATOM      6  C   UNL     1       2.538   3.108  20.967  0.00  0.00    +0.000 A 
ATOM      7  C   UNL     1       3.317   2.889  19.750  0.00  0.00    +0.000 A 
ATOM      8  O   UNL     1       3.819   1.803  19.505  0.00  0.00    +0.000 OA
ATOM      9  O   UNL     1       3.458   3.987  18.918  0.00  0.00    +0.000 OA
ATOM     10  C   UNL     1       2.892   5.259  19.210  0.00  0.00    +0.000 A 
ATOM     11  C   UNL     1       3.188   6.283  18.285  0.00  0.00    +0.000 A 
ENDROOT
BRANCH   1  13
ATOM     12  C   UNL     1       2.148   9.723  17.784  0.00  0.00    +0.000 C 
ATOM     13  O   UNL     1       2.984   8.567  17.677  0.00  0.00    +0.000 OA
ENDBRANCH   1  13
BRANCH   3  14
ATOM     14  O   UNL     1       0.786   7.228  21.591  0.00  0.00    +0.000 OA
ATOM     15  C   UNL     1       0.195   8.508  21.530  0.00  0.00    +0.000 C 
ENDBRANCH   3  14
BRANCH  11  16
ATOM     16  C   UNL     1       4.093   6.029  17.088  0.00  0.00    +0.000 C 
BRANCH  16  17
ATOM     17  C   UNL     1       5.603   6.001  17.398  0.00  0.00    +0.000 C 
BRANCH  17  18
ATOM     18  C   UNL     1       6.362   4.787  16.771  0.00  0.00    +0.000 C 
ATOM     19  C   UNL     1       6.579   4.929  15.259  0.00  0.00    +0.000 C 
ATOM     20  C   UNL     1       7.695   4.500  17.462  0.00  0.00    +0.000 C 
BRANCH  18  21
ATOM     21  O   UNL     1       5.544   3.618  16.956  0.00  0.00    +0.000 OA
ATOM     22  H   UNL     1       4.758   3.929  17.451  0.00  0.00    +0.000 HD
ENDBRANCH  18  21
ENDBRANCH  17  18
BRANCH  17  23
ATOM     23  O   UNL     1       5.850   5.958  18.820  0.00  0.00    +0.000 OA
ATOM     24  H   UNL     1       6.189   6.831  19.093  0.00  0.00    +0.000 HD
ENDBRANCH  17  23
ENDBRANCH  16  17
ENDBRANCH  11  16
TORSDOF 7
ENDMDL
MODEL 7
REMARK VINA RESULT:      -6.4      1.499      4.139
REMARK  Name = 
REMARK  11 active torsions:
REMARK  status: ('A' for Active; 'I' for Inactive)
REMARK    1  A    between atoms: C_1  and  O_2
REMARK    2  A    between atoms: O_2  and  C_3
REMARK    3  A    between atoms: C_5  and  O_6
REMARK    4  A    between atoms: O_6  and  C_7
REMARK    5  A    between atoms: C_15  and  C_16
REMARK    6  A    between atoms: C_16  and  C_17
REMARK    7  A    between atoms: C_17  and  O_18
REMARK    8  A    between atoms: C_17  and  C_19
REMARK    9  A    between atoms: C_19  and  C_20
REMARK   10  A    between atoms: C_19  and  C_21
REMARK   11  A    between atoms: C_19  and  O_22
REMARK                            x       y       z     vdW  Elec       q    Type
REMARK                         _______ _______ _______ _____ _____    ______ ____
ROOT
ATOM      1  C   UNL     1       2.976   7.094  18.388  0.00  0.00    +0.000 A 
ATOM      2  C   UNL     1       2.155   7.355  19.489  0.00  0.00    +0.000 A 
ATOM      3  C   UNL     1       1.849   6.383  20.462  0.00  0.00    +0.000 A 
ATOM      4  C   UNL     1       2.361   5.086  20.309  0.00  0.00    +0.000 A 
ATOM      5  C   UNL     1       2.194   3.971  21.241  0.00  0.00    +0.000 A 
ATOM      6  C   UNL     1       2.726   2.765  21.002  0.00  0.00    +0.000 A 
ATOM      7  C   UNL     1       3.505   2.474  19.800  0.00  0.00    +0.000 A 
ATOM      8  O   UNL     1       3.981   1.366  19.606  0.00  0.00    +0.000 OA
ATOM      9  O   UNL     1       3.677   3.530  18.921  0.00  0.00    +0.000 OA
ATOM     10  C   UNL     1       3.140   4.827  19.153  0.00  0.00    +0.000 A 
ATOM     11  C   UNL     1       3.465   5.801  18.185  0.00  0.00    +0.000 A 
ENDROOT
BRANCH   1  13
ATOM     12  C   UNL     1       2.491   9.225  17.503  0.00  0.00    +0.000 C 
ATOM     13  O   UNL     1       3.320   8.060  17.475  0.00  0.00    +0.000 OA
ENDBRANCH   1  13
BRANCH   3  14
ATOM     14  O   UNL     1       1.071   6.950  21.432  0.00  0.00    +0.000 OA
ATOM     15  C   UNL     1       0.868   8.342  21.536  0.00  0.00    +0.000 C 
ENDBRANCH   3  14
BRANCH  11  16
ATOM     16  C   UNL     1       4.370   5.472  17.006  0.00  0.00    +0.000 C 
BRANCH  16  17
ATOM     17  C   UNL     1       5.580   4.574  17.334  0.00  0.00    +0.000 C 
BRANCH  17  18
ATOM     18  C   UNL     1       6.931   5.079  16.732  0.00  0.00    +0.000 C 
ATOM     19  C   UNL     1       6.971   5.009  15.200  0.00  0.00    +0.000 C 
ATOM     20  C   UNL     1       7.298   6.488  17.197  0.00  0.00    +0.000 C 
BRANCH  18  21
ATOM     21  O   UNL     1       7.973   4.207  17.205  0.00  0.00    +0.000 OA
ATOM     22  H   UNL     1       7.765   3.327  16.828  0.00  0.00    +0.000 HD
ENDBRANCH  18  21
ENDBRANCH  17  18
BRANCH  17  23
ATOM     23  O   UNL     1       5.386   3.228  16.851  0.00  0.00    +0.000 OA
ATOM     24  H   UNL     1       6.005   2.645  17.330  0.00  0.00    +0.000 HD
ENDBRANCH  17  23
ENDBRANCH  16  17
ENDBRANCH  11  16
TORSDOF 7
ENDMDL
MODEL 8
REMARK VINA RESULT:      -6.3      0.852      1.275
REMARK  Name = 
REMARK  11 active torsions:
REMARK  status: ('A' for Active; 'I' for Inactive)
REMARK    1  A    between atoms: C_1  and  O_2
REMARK    2  A    between atoms: O_2  and  C_3
REMARK    3  A    between atoms: C_5  and  O_6
REMARK    4  A    between atoms: O_6  and  C_7
REMARK    5  A    between atoms: C_15  and  C_16
REMARK    6  A    between atoms: C_16  and  C_17
REMARK    7  A    between atoms: C_17  and  O_18
REMARK    8  A    between atoms: C_17  and  C_19
REMARK    9  A    between atoms: C_19  and  C_20
REMARK   10  A    between atoms: C_19  and  C_21
REMARK   11  A    between atoms: C_19  and  O_22
REMARK                            x       y       z     vdW  Elec       q    Type
REMARK                         _______ _______ _______ _____ _____    ______ ____
ROOT
ATOM      1  C   UNL     1       3.609   3.506  18.481  0.00  0.00    +0.000 A 
ATOM      2  C   UNL     1       3.062   3.363  19.760  0.00  0.00    +0.000 A 
ATOM      3  C   UNL     1       2.449   4.426  20.451  0.00  0.00    +0.000 A 
ATOM      4  C   UNL     1       2.411   5.693  19.851  0.00  0.00    +0.000 A 
ATOM      5  C   UNL     1       1.773   6.893  20.393  0.00  0.00    +0.000 A 
ATOM      6  C   UNL     1       1.792   8.061  19.738  0.00  0.00    +0.000 A 
ATOM      7  C   UNL     1       2.449   8.225  18.444  0.00  0.00    +0.000 A 
ATOM      8  O   UNL     1       2.451   9.300  17.866  0.00  0.00    +0.000 OA
ATOM      9  O   UNL     1       3.044   7.089  17.920  0.00  0.00    +0.000 OA
ATOM     10  C   UNL     1       3.027   5.830  18.582  0.00  0.00    +0.000 A 
ATOM     11  C   UNL     1       3.625   4.765  17.875  0.00  0.00    +0.000 A 
ENDROOT
BRANCH   1  13
ATOM     12  C   UNL     1       3.861   1.166  18.337  0.00  0.00    +0.000 C 
ATOM     13  O   UNL     1       4.152   2.453  17.786  0.00  0.00    +0.000 OA
ENDBRANCH   1  13
BRANCH   3  14
ATOM     14  O   UNL     1       1.971   3.966  21.646  0.00  0.00    +0.000 OA
ATOM     15  C   UNL     1       1.626   2.616  21.867  0.00  0.00    +0.000 C 
ENDBRANCH   3  14
BRANCH  11  16
ATOM     16  C   UNL     1       4.202   4.966  16.481  0.00  0.00    +0.000 C 
BRANCH  16  17
ATOM     17  C   UNL     1       5.595   4.346  16.249  0.00  0.00    +0.000 C 
BRANCH  17  18
ATOM     18  C   UNL     1       6.784   5.283  16.639  0.00  0.00    +0.000 C 
ATOM     19  C   UNL     1       6.336   6.705  17.002  0.00  0.00    +0.000 C 
ATOM     20  C   UNL     1       7.647   4.708  17.762  0.00  0.00    +0.000 C 
BRANCH  18  21
ATOM     21  O   UNL     1       7.638   5.408  15.487  0.00  0.00    +0.000 OA
ATOM     22  H   UNL     1       7.823   6.366  15.406  0.00  0.00    +0.000 HD
ENDBRANCH  18  21
ENDBRANCH  17  18
BRANCH  17  23
ATOM     23  O   UNL     1       5.788   3.984  14.865  0.00  0.00    +0.000 OA
ATOM     24  H   UNL     1       4.911   3.795  14.479  0.00  0.00    +0.000 HD
ENDBRANCH  17  23
ENDBRANCH  16  17
ENDBRANCH  11  16
TORSDOF 7
ENDMDL
MODEL 9
REMARK VINA RESULT:      -6.3      1.021      1.477
REMARK  Name = 
REMARK  11 active torsions:
REMARK  status: ('A' for Active; 'I' for Inactive)
REMARK    1  A    between atoms: C_1  and  O_2
REMARK    2  A    between atoms: O_2  and  C_3
REMARK    3  A    between atoms: C_5  and  O_6
REMARK    4  A    between atoms: O_6  and  C_7
REMARK    5  A    between atoms: C_15  and  C_16
REMARK    6  A    between atoms: C_16  and  C_17
REMARK    7  A    between atoms: C_17  and  O_18
REMARK    8  A    between atoms: C_17  and  C_19
REMARK    9  A    between atoms: C_19  and  C_20
REMARK   10  A    between atoms: C_19  and  C_21
REMARK   11  A    between atoms: C_19  and  O_22
REMARK                            x       y       z     vdW  Elec       q    Type
REMARK                         _______ _______ _______ _____ _____    ______ ____
ROOT
ATOM      1  C   UNL     1       3.509   3.124  18.632  0.00  0.00    +0.000 A 
ATOM      2  C   UNL     1       3.007   3.060  19.936  0.00  0.00    +0.000 A 
ATOM      3  C   UNL     1       2.460   4.176  20.599  0.00  0.00    +0.000 A 
ATOM      4  C   UNL     1       2.444   5.415  19.942  0.00  0.00    +0.000 A 
ATOM      5  C   UNL     1       1.871   6.662  20.450  0.00  0.00    +0.000 A 
ATOM      6  C   UNL     1       1.907   7.797  19.741  0.00  0.00    +0.000 A 
ATOM      7  C   UNL     1       2.517   7.876  18.416  0.00  0.00    +0.000 A 
ATOM      8  O   UNL     1       2.536   8.924  17.788  0.00  0.00    +0.000 OA
ATOM      9  O   UNL     1       3.051   6.696  17.924  0.00  0.00    +0.000 OA
ATOM     10  C   UNL     1       3.014   5.470  18.645  0.00  0.00    +0.000 A 
ATOM     11  C   UNL     1       3.546   4.352  17.967  0.00  0.00    +0.000 A 
ENDROOT
BRANCH   1  13
ATOM     12  C   UNL     1       4.016   0.824  18.750  0.00  0.00    +0.000 C 
ATOM     13  O   UNL     1       3.985   2.021  17.968  0.00  0.00    +0.000 OA
ENDBRANCH   1  13
BRANCH   3  14
ATOM     14  O   UNL     1       2.014   3.790  21.831  0.00  0.00    +0.000 OA
ATOM     15  C   UNL     1       1.362   2.560  22.061  0.00  0.00    +0.000 C 
ENDBRANCH   3  14
BRANCH  11  16
ATOM     16  C   UNL     1       4.074   4.467  16.544  0.00  0.00    +0.000 C 
BRANCH  16  17
ATOM     17  C   UNL     1       5.601   4.313  16.394  0.00  0.00    +0.000 C 
BRANCH  17  18
ATOM     18  C   UNL     1       6.268   5.404  15.494  0.00  0.00    +0.000 C 
ATOM     19  C   UNL     1       6.771   4.853  14.155  0.00  0.00    +0.000 C 
ATOM     20  C   UNL     1       5.359   6.609  15.252  0.00  0.00    +0.000 C 
BRANCH  18  21
ATOM     21  O   UNL     1       7.426   5.897  16.192  0.00  0.00    +0.000 OA
ATOM     22  H   UNL     1       8.097   6.057  15.497  0.00  0.00    +0.000 HD
ENDBRANCH  18  21
ENDBRANCH  17  18
BRANCH  17  23
ATOM     23  O   UNL     1       5.949   3.033  15.824  0.00  0.00    +0.000 OA
ATOM     24  H   UNL     1       6.190   2.434  16.556  0.00  0.00    +0.000 HD
ENDBRANCH  17  23
ENDBRANCH  16  17
ENDBRANCH  11  16
TORSDOF 7
ENDMDL
