MODEL 1
REMARK VINA RESULT:      -7.9      0.000      0.000
REMARK  Name = 
REMARK  5 active torsions:
REMARK  status: ('A' for Active; 'I' for Inactive)
REMARK    1  A    between atoms: C_1  and  N_2
REMARK    2  A    between atoms: C_4  and  C_5
REMARK    3  A    between atoms: C_10  and  C_11
REMARK    4  A    between atoms: C_11  and  O_12
REMARK    5  A    between atoms: C_11  and  C_13
REMARK                            x       y       z     vdW  Elec       q    Type
REMARK                         _______ _______ _______ _____ _____    ______ ____
ROOT
ATOM      1  C   UNL     1       5.063   4.394  16.243  0.00  0.00    +0.000 A 
ATOM      2  C   UNL     1       4.501   4.164  14.968  0.00  0.00    +0.000 A 
ATOM      3  C   UNL     1       5.295   4.058  13.827  0.00  0.00    +0.000 A 
ATOM      4  C   UNL     1       6.671   4.189  13.937  0.00  0.00    +0.000 A 
ATOM      5  C   UNL     1       7.242   4.433  15.186  0.00  0.00    +0.000 A 
ATOM      6  C   UNL     1       6.462   4.540  16.364  0.00  0.00    +0.000 A 
ENDROOT
BRANCH   1  10
ATOM      7  C   UNL     1       1.966   1.913  19.070  0.00  0.00    +0.000 C 
ATOM      8  N   UNL     1       2.529   3.204  18.722  0.00  0.00    +0.000 N 
ATOM      9  C   UNL     1       3.585   3.281  17.804  0.00  0.00    +0.000 A 
ATOM     10  C   UNL     1       4.086   4.461  17.356  0.00  0.00    +0.000 A 
ATOM     11  C   UNL     1       3.484   5.667  17.846  0.00  0.00    +0.000 A 
ATOM     12  C   UNL     1       3.683   7.032  17.544  0.00  0.00    +0.000 A 
ATOM     13  C   UNL     1       2.770   7.743  18.301  0.00  0.00    +0.000 A 
ATOM     14  N   UNL     1       2.034   6.850  19.044  0.00  0.00    +0.000 N 
ATOM     15  C   UNL     1       2.458   5.580  18.762  0.00  0.00    +0.000 A 
ATOM     16  C   UNL     1       1.916   4.347  19.275  0.00  0.00    +0.000 A 
ATOM     17  O   UNL     1       0.996   4.309  20.082  0.00  0.00    +0.000 OA
ATOM     18  H   UNL     1       1.275   7.074  19.675  0.00  0.00    +0.000 HD
ENDBRANCH   1  10
BRANCH   6  19
ATOM     19  C   UNL     1       7.218   4.857  17.651  0.00  0.00    +0.000 C 
BRANCH  19  20
ATOM     20  C   UNL     1       7.553   6.309  17.966  0.00  0.00    +0.000 A 
ATOM     21  C   UNL     1       8.368   6.680  19.047  0.00  0.00    +0.000 A 
ATOM     22  C   UNL     1       8.751   8.014  19.230  0.00  0.00    +0.000 A 
ATOM     23  C   UNL     1       8.349   8.989  18.319  0.00  0.00    +0.000 A 
ATOM     24 CL   UNL     1       8.864  10.618  18.517  0.00  0.00    +0.000 Cl
ATOM     25  C   UNL     1       7.553   8.645  17.233  0.00  0.00    +0.000 A 
ATOM     26  C   UNL     1       7.161   7.315  17.060  0.00  0.00    +0.000 A 
ENDBRANCH  19  20
BRANCH  19  27
ATOM     27  O   UNL     1       8.377   4.034  17.788  0.00  0.00    +0.000 OA
ATOM     28  H   UNL     1       8.082   3.132  17.980  0.00  0.00    +0.000 HD
ENDBRANCH  19  27
ENDBRANCH   6  19
TORSDOF 4
ENDMDL
MODEL 2
REMARK VINA RESULT:      -7.9      3.211      6.186
REMARK  Name = 
REMARK  5 active torsions:
REMARK  status: ('A' for Active; 'I' for Inactive)
REMARK    1  A    between atoms: C_1  and  N_2
REMARK    2  A    between atoms: C_4  and  C_5
REMARK    3  A    between atoms: C_10  and  C_11
REMARK    4  A    between atoms: C_11  and  O_12
REMARK    5  A    between atoms: C_11  and  C_13
REMARK                            x       y       z     vdW  Elec       q    Type
REMARK                         _______ _______ _______ _____ _____    ______ ____
ROOT
ATOM      1  C   UNL     1       3.321   4.470  18.330  0.00  0.00    +0.000 A 
ATOM      2  C   UNL     1       2.952   3.110  18.439  0.00  0.00    +0.000 A 
ATOM      3  C   UNL     1       1.829   2.713  19.163  0.00  0.00    +0.000 A 
ATOM      4  C   UNL     1       1.055   3.668  19.803  0.00  0.00    +0.000 A 
ATOM      5  C   UNL     1       1.412   5.014  19.720  0.00  0.00    +0.000 A 
ATOM      6  C   UNL     1       2.544   5.449  18.987  0.00  0.00    +0.000 A 
ENDROOT
BRANCH   1  10
ATOM      7  C   UNL     1       5.446   3.950  13.977  0.00  0.00    +0.000 C 
ATOM      8  N   UNL     1       5.569   4.424  15.343  0.00  0.00    +0.000 N 
ATOM      9  C   UNL     1       4.455   4.401  16.193  0.00  0.00    +0.000 A 
ATOM     10  C   UNL     1       4.527   4.728  17.508  0.00  0.00    +0.000 A 
ATOM     11  C   UNL     1       5.810   5.099  18.032  0.00  0.00    +0.000 A 
ATOM     12  C   UNL     1       6.264   5.410  19.333  0.00  0.00    +0.000 A 
ATOM     13  C   UNL     1       7.623   5.641  19.233  0.00  0.00    +0.000 A 
ATOM     14  N   UNL     1       7.996   5.477  17.919  0.00  0.00    +0.000 N 
ATOM     15  C   UNL     1       6.895   5.136  17.184  0.00  0.00    +0.000 A 
ATOM     16  C   UNL     1       6.851   4.814  15.779  0.00  0.00    +0.000 A 
ATOM     17  O   UNL     1       7.840   4.850  15.058  0.00  0.00    +0.000 OA
ATOM     18  H   UNL     1       8.934   5.558  17.546  0.00  0.00    +0.000 HD
ENDBRANCH   1  10
BRANCH   6  19
ATOM     19  C   UNL     1       2.841   6.945  19.025  0.00  0.00    +0.000 C 
BRANCH  19  20
ATOM     20  C   UNL     1       1.853   7.871  19.724  0.00  0.00    +0.000 A 
ATOM     21  C   UNL     1       1.562   7.770  21.093  0.00  0.00    +0.000 A 
ATOM     22  C   UNL     1       0.743   8.716  21.723  0.00  0.00    +0.000 A 
ATOM     23  C   UNL     1       0.231   9.790  20.998  0.00  0.00    +0.000 A 
ATOM     24 CL   UNL     1      -0.732  10.978  21.785  0.00  0.00    +0.000 Cl
ATOM     25  C   UNL     1       0.515   9.919  19.644  0.00  0.00    +0.000 A 
ATOM     26  C   UNL     1       1.321   8.967  19.015  0.00  0.00    +0.000 A 
ENDBRANCH  19  20
BRANCH  19  27
ATOM     27  O   UNL     1       3.161   7.444  17.726  0.00  0.00    +0.000 OA
ATOM     28  H   UNL     1       2.420   7.987  17.423  0.00  0.00    +0.000 HD
ENDBRANCH  19  27
ENDBRANCH   6  19
TORSDOF 4
ENDMDL
MODEL 3
REMARK VINA RESULT:      -7.6      0.624      2.319
REMARK  Name = 
REMARK  5 active torsions:
REMARK  status: ('A' for Active; 'I' for Inactive)
REMARK    1  A    between atoms: C_1  and  N_2
REMARK    2  A    between atoms: C_4  and  C_5
REMARK    3  A    between atoms: C_10  and  C_11
REMARK    4  A    between atoms: C_11  and  O_12
REMARK    5  A    between atoms: C_11  and  C_13
REMARK                            x       y       z     vdW  Elec       q    Type
REMARK                         _______ _______ _______ _____ _____    ______ ____
ROOT
ATOM      1  C   UNL     1       5.034   4.446  16.113  0.00  0.00    +0.000 A 
ATOM      2  C   UNL     1       4.527   4.223  14.813  0.00  0.00    +0.000 A 
ATOM      3  C   UNL     1       5.370   4.097  13.710  0.00  0.00    +0.000 A 
ATOM      4  C   UNL     1       6.741   4.203  13.883  0.00  0.00    +0.000 A 
ATOM      5  C   UNL     1       7.260   4.440  15.156  0.00  0.00    +0.000 A 
ATOM      6  C   UNL     1       6.429   4.566  16.297  0.00  0.00    +0.000 A 
ENDROOT
BRANCH   1  10
ATOM      7  C   UNL     1       2.500   7.379  19.064  0.00  0.00    +0.000 C 
ATOM      8  N   UNL     1       2.790   6.017  18.657  0.00  0.00    +0.000 N 
ATOM      9  C   UNL     1       3.612   5.780  17.548  0.00  0.00    +0.000 A 
ATOM     10  C   UNL     1       4.008   4.535  17.180  0.00  0.00    +0.000 A 
ATOM     11  C   UNL     1       3.564   3.431  17.981  0.00  0.00    +0.000 A 
ATOM     12  C   UNL     1       3.840   2.046  17.948  0.00  0.00    +0.000 A 
ATOM     13  C   UNL     1       3.159   1.481  19.010  0.00  0.00    +0.000 A 
ATOM     14  N   UNL     1       2.488   2.480  19.675  0.00  0.00    +0.000 N 
ATOM     15  C   UNL     1       2.740   3.674  19.058  0.00  0.00    +0.000 A 
ATOM     16  C   UNL     1       2.284   4.979  19.466  0.00  0.00    +0.000 A 
ATOM     17  O   UNL     1       1.559   5.157  20.437  0.00  0.00    +0.000 OA
ATOM     18  H   UNL     1       1.923   2.373  20.509  0.00  0.00    +0.000 HD
ENDBRANCH   1  10
BRANCH   6  19
ATOM     19  C   UNL     1       7.131   4.872  17.616  0.00  0.00    +0.000 C 
BRANCH  19  20
ATOM     20  C   UNL     1       7.482   6.319  17.941  0.00  0.00    +0.000 A 
ATOM     21  C   UNL     1       8.345   6.670  18.990  0.00  0.00    +0.000 A 
ATOM     22  C   UNL     1       8.738   8.000  19.179  0.00  0.00    +0.000 A 
ATOM     23  C   UNL     1       8.297   8.991  18.304  0.00  0.00    +0.000 A 
ATOM     24 CL   UNL     1       8.823  10.616  18.507  0.00  0.00    +0.000 Cl
ATOM     25  C   UNL     1       7.453   8.667  17.249  0.00  0.00    +0.000 A 
ATOM     26  C   UNL     1       7.051   7.341  17.071  0.00  0.00    +0.000 A 
ENDBRANCH  19  20
BRANCH  19  27
ATOM     27  O   UNL     1       8.264   4.026  17.810  0.00  0.00    +0.000 OA
ATOM     28  H   UNL     1       9.033   4.590  17.980  0.00  0.00    +0.000 HD
ENDBRANCH  19  27
ENDBRANCH   6  19
TORSDOF 4
ENDMDL
MODEL 4
REMARK VINA RESULT:      -7.4      2.804      5.925
REMARK  Name = 
REMARK  5 active torsions:
REMARK  status: ('A' for Active; 'I' for Inactive)
REMARK    1  A    between atoms: C_1  and  N_2
REMARK    2  A    between atoms: C_4  and  C_5
REMARK    3  A    between atoms: C_10  and  C_11
REMARK    4  A    between atoms: C_11  and  O_12
REMARK    5  A    between atoms: C_11  and  C_13
REMARK                            x       y       z     vdW  Elec       q    Type
REMARK                         _______ _______ _______ _____ _____    ______ ____
ROOT
ATOM      1  C   UNL     1       4.399   3.863  18.277  0.00  0.00    +0.000 A 
ATOM      2  C   UNL     1       5.052   2.885  19.059  0.00  0.00    +0.000 A 
ATOM      3  C   UNL     1       4.398   2.219  20.094  0.00  0.00    +0.000 A 
ATOM      4  C   UNL     1       3.076   2.524  20.375  0.00  0.00    +0.000 A 
ATOM      5  C   UNL     1       2.418   3.499  19.624  0.00  0.00    +0.000 A 
ATOM      6  C   UNL     1       3.055   4.189  18.563  0.00  0.00    +0.000 A 
ENDROOT
BRANCH   1  10
ATOM      7  C   UNL     1       5.977   3.476  13.684  0.00  0.00    +0.000 C 
ATOM      8  N   UNL     1       6.020   4.223  14.927  0.00  0.00    +0.000 N 
ATOM      9  C   UNL     1       5.164   3.876  15.980  0.00  0.00    +0.000 A 
ATOM     10  C   UNL     1       5.226   4.463  17.203  0.00  0.00    +0.000 A 
ATOM     11  C   UNL     1       6.227   5.469  17.407  0.00  0.00    +0.000 A 
ATOM     12  C   UNL     1       6.628   6.211  18.540  0.00  0.00    +0.000 A 
ATOM     13  C   UNL     1       7.688   7.003  18.140  0.00  0.00    +0.000 A 
ATOM     14  N   UNL     1       7.934   6.760  16.809  0.00  0.00    +0.000 N 
ATOM     15  C   UNL     1       7.052   5.816  16.359  0.00  0.00    +0.000 A 
ATOM     16  C   UNL     1       7.000   5.229  15.043  0.00  0.00    +0.000 A 
ATOM     17  O   UNL     1       7.758   5.557  14.138  0.00  0.00    +0.000 OA
ATOM     18  H   UNL     1       8.666   7.175  16.246  0.00  0.00    +0.000 HD
ENDBRANCH   1  10
BRANCH   6  19
ATOM     19  C   UNL     1       2.229   5.262  17.861  0.00  0.00    +0.000 C 
BRANCH  19  20
ATOM     20  C   UNL     1       2.048   6.612  18.545  0.00  0.00    +0.000 A 
ATOM     21  C   UNL     1       1.914   7.811  17.828  0.00  0.00    +0.000 A 
ATOM     22  C   UNL     1       1.627   9.012  18.488  0.00  0.00    +0.000 A 
ATOM     23  C   UNL     1       1.443   9.024  19.870  0.00  0.00    +0.000 A 
ATOM     24 CL   UNL     1       1.040  10.491  20.672  0.00  0.00    +0.000 Cl
ATOM     25  C   UNL     1       1.558   7.848  20.601  0.00  0.00    +0.000 A 
ATOM     26  C   UNL     1       1.857   6.653  19.941  0.00  0.00    +0.000 A 
ENDBRANCH  19  20
BRANCH  19  27
ATOM     27  O   UNL     1       0.970   4.749  17.426  0.00  0.00    +0.000 OA
ATOM     28  H   UNL     1       0.905   4.885  16.470  0.00  0.00    +0.000 HD
ENDBRANCH  19  27
ENDBRANCH   6  19
TORSDOF 4
ENDMDL
MODEL 5
REMARK VINA RESULT:      -7.4      0.489      1.062
REMARK  Name = 
REMARK  5 active torsions:
REMARK  status: ('A' for Active; 'I' for Inactive)
REMARK    1  A    between atoms: C_1  and  N_2
REMARK    2  A    between atoms: C_4  and  C_5
REMARK    3  A    between atoms: C_10  and  C_11
REMARK    4  A    between atoms: C_11  and  O_12
REMARK    5  A    between atoms: C_11  and  C_13
REMARK                            x       y       z     vdW  Elec       q    Type
REMARK                         _______ _______ _______ _____ _____    ______ ____
ROOT
ATOM      1  C   UNL     1       5.114   4.617  16.529  0.00  0.00    +0.000 A 
ATOM      2  C   UNL     1       4.665   4.207  15.253  0.00  0.00    +0.000 A 
ATOM      3  C   UNL     1       5.529   4.133  14.162  0.00  0.00    +0.000 A 
ATOM      4  C   UNL     1       6.862   4.477  14.321  0.00  0.00    +0.000 A 
ATOM      5  C   UNL     1       7.321   4.899  15.570  0.00  0.00    +0.000 A 
ATOM      6  C   UNL     1       6.469   4.979  16.698  0.00  0.00    +0.000 A 
ENDROOT
BRANCH   1  10
ATOM      7  C   UNL     1       1.997   1.953  19.160  0.00  0.00    +0.000 C 
ATOM      8  N   UNL     1       2.513   3.274  18.855  0.00  0.00    +0.000 N 
ATOM      9  C   UNL     1       3.612   3.414  17.997  0.00  0.00    +0.000 A 
ATOM     10  C   UNL     1       4.077   4.622  17.587  0.00  0.00    +0.000 A 
ATOM     11  C   UNL     1       3.391   5.791  18.055  0.00  0.00    +0.000 A 
ATOM     12  C   UNL     1       3.538   7.168  17.777  0.00  0.00    +0.000 A 
ATOM     13  C   UNL     1       2.552   7.824  18.490  0.00  0.00    +0.000 A 
ATOM     14  N   UNL     1       1.822   6.887  19.183  0.00  0.00    +0.000 N 
ATOM     15  C   UNL     1       2.323   5.644  18.913  0.00  0.00    +0.000 A 
ATOM     16  C   UNL     1       1.816   4.379  19.384  0.00  0.00    +0.000 A 
ATOM     17  O   UNL     1       0.857   4.287  20.140  0.00  0.00    +0.000 OA
ATOM     18  H   UNL     1       1.019   7.067  19.774  0.00  0.00    +0.000 HD
ENDBRANCH   1  10
BRANCH   6  19
ATOM     19  C   UNL     1       7.096   5.503  17.986  0.00  0.00    +0.000 C 
BRANCH  19  20
ATOM     20  C   UNL     1       7.629   6.930  18.013  0.00  0.00    +0.000 A 
ATOM     21  C   UNL     1       7.129   7.940  17.178  0.00  0.00    +0.000 A 
ATOM     22  C   UNL     1       7.559   9.266  17.318  0.00  0.00    +0.000 A 
ATOM     23  C   UNL     1       8.472   9.602  18.316  0.00  0.00    +0.000 A 
ATOM     24 CL   UNL     1       8.960  11.238  18.520  0.00  0.00    +0.000 Cl
ATOM     25  C   UNL     1       8.973   8.622  19.165  0.00  0.00    +0.000 A 
ATOM     26  C   UNL     1       8.552   7.299  19.013  0.00  0.00    +0.000 A 
ENDBRANCH  19  20
BRANCH  19  27
ATOM     27  O   UNL     1       8.073   4.595  18.496  0.00  0.00    +0.000 OA
ATOM     28  H   UNL     1       8.819   4.581  17.879  0.00  0.00    +0.000 HD
ENDBRANCH  19  27
ENDBRANCH   6  19
TORSDOF 4
ENDMDL
MODEL 6
REMARK VINA RESULT:      -7.3      0.705      2.519
REMARK  Name = 
REMARK  5 active torsions:
REMARK  status: ('A' for Active; 'I' for Inactive)
REMARK    1  A    between atoms: C_1  and  N_2
REMARK    2  A    between atoms: C_4  and  C_5
REMARK    3  A    between atoms: C_10  and  C_11
REMARK    4  A    between atoms: C_11  and  O_12
REMARK    5  A    between atoms: C_11  and  C_13
REMARK                            x       y       z     vdW  Elec       q    Type
REMARK                         _______ _______ _______ _____ _____    ______ ____
ROOT
ATOM      1  C   UNL     1       5.029   4.634  16.340  0.00  0.00    +0.000 A 
ATOM      2  C   UNL     1       4.618   4.255  15.042  0.00  0.00    +0.000 A 
ATOM      3  C   UNL     1       5.525   4.149  13.989  0.00  0.00    +0.000 A 
ATOM      4  C   UNL     1       6.864   4.429  14.210  0.00  0.00    +0.000 A 
ATOM      5  C   UNL     1       7.287   4.821  15.481  0.00  0.00    +0.000 A 
ATOM      6  C   UNL     1       6.390   4.932  16.571  0.00  0.00    +0.000 A 
ENDROOT
BRANCH   1  10
ATOM      7  C   UNL     1       2.389   7.436  19.326  0.00  0.00    +0.000 C 
ATOM      8  N   UNL     1       2.676   6.095  18.851  0.00  0.00    +0.000 N 
ATOM      9  C   UNL     1       3.555   5.908  17.776  0.00  0.00    +0.000 A 
ATOM     10  C   UNL     1       3.947   4.680  17.352  0.00  0.00    +0.000 A 
ATOM     11  C   UNL     1       3.439   3.539  18.057  0.00  0.00    +0.000 A 
ATOM     12  C   UNL     1       3.689   2.153  17.953  0.00  0.00    +0.000 A 
ATOM     13  C   UNL     1       2.940   1.539  18.939  0.00  0.00    +0.000 A 
ATOM     14  N   UNL     1       2.251   2.510  19.628  0.00  0.00    +0.000 N 
ATOM     15  C   UNL     1       2.560   3.734  19.101  0.00  0.00    +0.000 A 
ATOM     16  C   UNL     1       2.107   5.021  19.564  0.00  0.00    +0.000 A 
ATOM     17  O   UNL     1       1.331   5.155  20.503  0.00  0.00    +0.000 OA
ATOM     18  H   UNL     1       1.638   2.364  20.421  0.00  0.00    +0.000 HD
ENDBRANCH   1  10
BRANCH   6  19
ATOM     19  C   UNL     1       6.984   5.418  17.890  0.00  0.00    +0.000 C 
BRANCH  19  20
ATOM     20  C   UNL     1       7.551   6.830  17.962  0.00  0.00    +0.000 A 
ATOM     21  C   UNL     1       7.088   7.873  17.145  0.00  0.00    +0.000 A 
ATOM     22  C   UNL     1       7.548   9.184  17.327  0.00  0.00    +0.000 A 
ATOM     23  C   UNL     1       8.454   9.471  18.346  0.00  0.00    +0.000 A 
ATOM     24 CL   UNL     1       8.978  11.090  18.600  0.00  0.00    +0.000 Cl
ATOM     25  C   UNL     1       8.917   8.458  19.177  0.00  0.00    +0.000 A 
ATOM     26  C   UNL     1       8.467   7.150  18.985  0.00  0.00    +0.000 A 
ENDBRANCH  19  20
BRANCH  19  27
ATOM     27  O   UNL     1       7.918   4.476  18.417  0.00  0.00    +0.000 OA
ATOM     28  H   UNL     1       8.026   4.658  19.362  0.00  0.00    +0.000 HD
ENDBRANCH  19  27
ENDBRANCH   6  19
TORSDOF 4
ENDMDL
MODEL 7
REMARK VINA RESULT:      -7.2      2.784      4.981
REMARK  Name = 
REMARK  5 active torsions:
REMARK  status: ('A' for Active; 'I' for Inactive)
REMARK    1  A    between atoms: C_1  and  N_2
REMARK    2  A    between atoms: C_4  and  C_5
REMARK    3  A    between atoms: C_10  and  C_11
REMARK    4  A    between atoms: C_11  and  O_12
REMARK    5  A    between atoms: C_11  and  C_13
REMARK                            x       y       z     vdW  Elec       q    Type
REMARK                         _______ _______ _______ _____ _____    ______ ____
ROOT
ATOM      1  C   UNL     1       5.503   5.461  18.459  0.00  0.00    +0.000 A 
ATOM      2  C   UNL     1       6.359   5.477  19.582  0.00  0.00    +0.000 A 
ATOM      3  C   UNL     1       7.673   5.934  19.494  0.00  0.00    +0.000 A 
ATOM      4  C   UNL     1       8.163   6.377  18.275  0.00  0.00    +0.000 A 
ATOM      5  C   UNL     1       7.337   6.353  17.151  0.00  0.00    +0.000 A 
ATOM      6  C   UNL     1       5.996   5.900  17.210  0.00  0.00    +0.000 A 
ENDROOT
BRANCH   1  10
ATOM      7  C   UNL     1       1.303   6.221  20.807  0.00  0.00    +0.000 C 
ATOM      8  N   UNL     1       2.068   5.354  19.931  0.00  0.00    +0.000 N 
ATOM      9  C   UNL     1       3.319   5.769  19.457  0.00  0.00    +0.000 A 
ATOM     10  C   UNL     1       4.131   4.965  18.723  0.00  0.00    +0.000 A 
ATOM     11  C   UNL     1       3.673   3.635  18.443  0.00  0.00    +0.000 A 
ATOM     12  C   UNL     1       4.270   2.528  17.799  0.00  0.00    +0.000 A 
ATOM     13  C   UNL     1       3.360   1.490  17.874  0.00  0.00    +0.000 A 
ATOM     14  N   UNL     1       2.243   1.938  18.538  0.00  0.00    +0.000 N 
ATOM     15  C   UNL     1       2.433   3.244  18.898  0.00  0.00    +0.000 A 
ATOM     16  C   UNL     1       1.537   4.076  19.661  0.00  0.00    +0.000 A 
ATOM     17  O   UNL     1       0.445   3.689  20.057  0.00  0.00    +0.000 OA
ATOM     18  H   UNL     1       1.419   1.394  18.765  0.00  0.00    +0.000 HD
ENDBRANCH   1  10
BRANCH   6  19
ATOM     19  C   UNL     1       5.227   5.885  15.893  0.00  0.00    +0.000 C 
BRANCH  19  20
ATOM     20  C   UNL     1       5.716   4.980  14.769  0.00  0.00    +0.000 A 
ATOM     21  C   UNL     1       4.878   4.061  14.119  0.00  0.00    +0.000 A 
ATOM     22  C   UNL     1       5.333   3.336  13.010  0.00  0.00    +0.000 A 
ATOM     23  C   UNL     1       6.622   3.542  12.522  0.00  0.00    +0.000 A 
ATOM     24 CL   UNL     1       7.161   2.688  11.129  0.00  0.00    +0.000 Cl
ATOM     25  C   UNL     1       7.467   4.455  13.140  0.00  0.00    +0.000 A 
ATOM     26  C   UNL     1       7.015   5.168  14.253  0.00  0.00    +0.000 A 
ENDBRANCH  19  20
BRANCH  19  27
ATOM     27  O   UNL     1       5.001   7.208  15.408  0.00  0.00    +0.000 OA
ATOM     28  H   UNL     1       5.085   7.191  14.443  0.00  0.00    +0.000 HD
ENDBRANCH  19  27
ENDBRANCH   6  19
TORSDOF 4
ENDMDL
MODEL 8
REMARK VINA RESULT:      -7.0      3.222      6.276
REMARK  Name = 
REMARK  5 active torsions:
REMARK  status: ('A' for Active; 'I' for Inactive)
REMARK    1  A    between atoms: C_1  and  N_2
REMARK    2  A    between atoms: C_4  and  C_5
REMARK    3  A    between atoms: C_10  and  C_11
REMARK    4  A    between atoms: C_11  and  O_12
REMARK    5  A    between atoms: C_11  and  C_13
REMARK                            x       y       z     vdW  Elec       q    Type
REMARK                         _______ _______ _______ _____ _____    ______ ____
ROOT
ATOM      1  C   UNL     1       3.319   4.710  18.304  0.00  0.00    +0.000 A 
ATOM      2  C   UNL     1       2.851   3.387  18.466  0.00  0.00    +0.000 A 
ATOM      3  C   UNL     1       1.691   3.104  19.186  0.00  0.00    +0.000 A 
ATOM      4  C   UNL     1       0.978   4.140  19.768  0.00  0.00    +0.000 A 
ATOM      5  C   UNL     1       1.434   5.452  19.633  0.00  0.00    +0.000 A 
ATOM      6  C   UNL     1       2.605   5.771  18.903  0.00  0.00    +0.000 A 
ENDROOT
BRANCH   1  10
ATOM      7  C   UNL     1       5.449   3.899  13.999  0.00  0.00    +0.000 C 
ATOM      8  N   UNL     1       5.594   4.396  15.354  0.00  0.00    +0.000 N 
ATOM      9  C   UNL     1       4.471   4.490  16.187  0.00  0.00    +0.000 A 
ATOM     10  C   UNL     1       4.554   4.844  17.495  0.00  0.00    +0.000 A 
ATOM     11  C   UNL     1       5.856   5.118  18.029  0.00  0.00    +0.000 A 
ATOM     12  C   UNL     1       6.319   5.424  19.328  0.00  0.00    +0.000 A 
ATOM     13  C   UNL     1       7.694   5.536  19.243  0.00  0.00    +0.000 A 
ATOM     14  N   UNL     1       8.068   5.307  17.940  0.00  0.00    +0.000 N 
ATOM     15  C   UNL     1       6.952   5.041  17.196  0.00  0.00    +0.000 A 
ATOM     16  C   UNL     1       6.899   4.688  15.799  0.00  0.00    +0.000 A 
ATOM     17  O   UNL     1       7.897   4.620  15.093  0.00  0.00    +0.000 OA
ATOM     18  H   UNL     1       9.014   5.299  17.578  0.00  0.00    +0.000 HD
ENDBRANCH   1  10
BRANCH   6  19
ATOM     19  C   UNL     1       3.010   7.242  18.881  0.00  0.00    +0.000 C 
BRANCH  19  20
ATOM     20  C   UNL     1       1.938   8.301  19.108  0.00  0.00    +0.000 A 
ATOM     21  C   UNL     1       1.309   8.980  18.053  0.00  0.00    +0.000 A 
ATOM     22  C   UNL     1       0.244   9.855  18.298  0.00  0.00    +0.000 A 
ATOM     23  C   UNL     1      -0.224  10.040  19.597  0.00  0.00    +0.000 A 
ATOM     24 CL   UNL     1      -1.566  11.076  19.889  0.00  0.00    +0.000 Cl
ATOM     25  C   UNL     1       0.372   9.370  20.658  0.00  0.00    +0.000 A 
ATOM     26  C   UNL     1       1.443   8.507  20.412  0.00  0.00    +0.000 A 
ENDBRANCH  19  20
BRANCH  19  27
ATOM     27  O   UNL     1       3.780   7.552  17.719  0.00  0.00    +0.000 OA
ATOM     28  H   UNL     1       4.538   6.950  17.694  0.00  0.00    +0.000 HD
ENDBRANCH  19  27
ENDBRANCH   6  19
TORSDOF 4
ENDMDL
MODEL 9
REMARK VINA RESULT:      -6.9      3.009      5.247
REMARK  Name = 
REMARK  5 active torsions:
REMARK  status: ('A' for Active; 'I' for Inactive)
REMARK    1  A    between atoms: C_1  and  N_2
REMARK    2  A    between atoms: C_4  and  C_5
REMARK    3  A    between atoms: C_10  and  C_11
REMARK    4  A    between atoms: C_11  and  O_12
REMARK    5  A    between atoms: C_11  and  C_13
REMARK                            x       y       z     vdW  Elec       q    Type
REMARK                         _______ _______ _______ _____ _____    ______ ____
ROOT
ATOM      1  C   UNL     1       2.215   5.265  20.080  0.00  0.00    +0.000 A 
ATOM      2  C   UNL     1       1.133   4.452  20.487  0.00  0.00    +0.000 A 
ATOM      3  C   UNL     1       1.219   3.061  20.478  0.00  0.00    +0.000 A 
ATOM      4  C   UNL     1       2.388   2.451  20.053  0.00  0.00    +0.000 A 
ATOM      5  C   UNL     1       3.462   3.237  19.632  0.00  0.00    +0.000 A 
ATOM      6  C   UNL     1       3.407   4.652  19.635  0.00  0.00    +0.000 A 
ENDROOT
BRANCH   1  10
ATOM      7  C   UNL     1       0.147   8.883  22.603  0.00  0.00    +0.000 C 
ATOM      8  N   UNL     1       0.903   8.497  21.427  0.00  0.00    +0.000 N 
ATOM      9  C   UNL     1       1.353   7.177  21.289  0.00  0.00    +0.000 A 
ATOM     10  C   UNL     1       1.971   6.725  20.168  0.00  0.00    +0.000 A 
ATOM     11  C   UNL     1       2.148   7.650  19.086  0.00  0.00    +0.000 A 
ATOM     12  C   UNL     1       2.658   7.512  17.776  0.00  0.00    +0.000 A 
ATOM     13  C   UNL     1       2.531   8.748  17.170  0.00  0.00    +0.000 A 
ATOM     14  N   UNL     1       1.964   9.618  18.072  0.00  0.00    +0.000 N 
ATOM     15  C   UNL     1       1.718   8.950  19.240  0.00  0.00    +0.000 A 
ATOM     16  C   UNL     1       1.078   9.470  20.422  0.00  0.00    +0.000 A 
ATOM     17  O   UNL     1       0.700  10.631  20.518  0.00  0.00    +0.000 OA
ATOM     18  H   UNL     1       1.727  10.588  17.905  0.00  0.00    +0.000 HD
ENDBRANCH   1  10
BRANCH   6  19
ATOM     19  C   UNL     1       4.637   5.380  19.102  0.00  0.00    +0.000 C 
BRANCH  19  20
ATOM     20  C   UNL     1       5.183   4.992  17.733  0.00  0.00    +0.000 A 
ATOM     21  C   UNL     1       4.360   4.526  16.696  0.00  0.00    +0.000 A 
ATOM     22  C   UNL     1       4.881   4.297  15.416  0.00  0.00    +0.000 A 
ATOM     23  C   UNL     1       6.223   4.558  15.151  0.00  0.00    +0.000 A 
ATOM     24 CL   UNL     1       6.849   4.325  13.566  0.00  0.00    +0.000 Cl
ATOM     25  C   UNL     1       7.056   5.033  16.158  0.00  0.00    +0.000 A 
ATOM     26  C   UNL     1       6.537   5.248  17.436  0.00  0.00    +0.000 A 
ENDBRANCH  19  20
BRANCH  19  27
ATOM     27  O   UNL     1       5.686   5.404  20.070  0.00  0.00    +0.000 OA
ATOM     28  H   UNL     1       6.531   5.396  19.597  0.00  0.00    +0.000 HD
ENDBRANCH  19  27
ENDBRANCH   6  19
TORSDOF 4
ENDMDL
