MODEL 1
REMARK VINA RESULT:      -6.7      0.000      0.000
REMARK  Name = 
REMARK  5 active torsions:
REMARK  status: ('A' for Active; 'I' for Inactive)
REMARK    1  A    between atoms: C_1  and  C_2
REMARK    2  A    between atoms: C_6  and  N_7
REMARK    3  A    between atoms: C_8  and  S_9
REMARK    4  A    between atoms: S_9  and  C_10
REMARK    5  A    between atoms: C_10  and  C_11
REMARK                            x       y       z     vdW  Elec       q    Type
REMARK                         _______ _______ _______ _____ _____    ______ ____
ROOT
ATOM      1  N   UNL     1      -1.593  13.864  22.100  0.00  0.00    +0.000 N 
ATOM      2  C   UNL     1      -2.261  14.313  20.975  0.00  0.00    +0.000 A 
ATOM      3  N   UNL     1      -2.514  13.590  19.937  0.00  0.00    +0.000 NA
ATOM      4  C   UNL     1      -1.984  12.335  19.905  0.00  0.00    +0.000 A 
ATOM      5  C   UNL     1      -1.052  11.879  20.757  0.00  0.00    +0.000 A 
ATOM      6  C   UNL     1      -0.972  12.613  22.049  0.00  0.00    +0.000 A 
ATOM      7  O   UNL     1      -0.471  12.046  23.024  0.00  0.00    +0.000 OA
ATOM      8  C   UNL     1      -0.286  10.584  20.493  0.00  0.00    +0.000 C 
ATOM      9  C   UNL     1       1.142  10.497  21.085  0.00  0.00    +0.000 C 
ATOM     10  C   UNL     1       1.373   9.009  21.313  0.00  0.00    +0.000 C 
ATOM     11  C   UNL     1       0.024   8.476  21.759  0.00  0.00    +0.000 C 
ATOM     12  C   UNL     1      -1.032   9.385  21.133  0.00  0.00    +0.000 C 
ATOM     13  C   UNL     1      -0.146  10.404  18.933  0.00  0.00    +0.000 C 
ATOM     14  C   UNL     1      -1.465  10.588  18.225  0.00  0.00    +0.000 A 
ATOM     15  C   UNL     1      -1.784   9.894  17.055  0.00  0.00    +0.000 A 
ATOM     16  C   UNL     1      -3.081   9.954  16.544  0.00  0.00    +0.000 A 
ATOM     17  C   UNL     1      -4.060  10.694  17.204  0.00  0.00    +0.000 A 
ATOM     18  C   UNL     1      -3.714  11.470  18.308  0.00  0.00    +0.000 A 
ATOM     19  C   UNL     1      -2.398  11.464  18.790  0.00  0.00    +0.000 A 
ENDROOT
BRANCH   1  25
ATOM     20  C   UNL     1       0.030  16.781  25.774  0.00  0.00    +0.000 C 
ATOM     21  C   UNL     1      -1.015  15.860  25.217  0.00  0.00    +0.000 A 
ATOM     22  C   UNL     1      -2.134  15.493  25.970  0.00  0.00    +0.000 A 
ATOM     23  C   UNL     1      -3.067  14.597  25.455  0.00  0.00    +0.000 A 
ATOM     24  C   UNL     1      -2.898  14.075  24.174  0.00  0.00    +0.000 A 
ATOM     25  C   UNL     1      -1.795  14.448  23.386  0.00  0.00    +0.000 A 
ATOM     26  C   UNL     1      -0.847  15.323  23.932  0.00  0.00    +0.000 A 
ENDBRANCH   1  25
BRANCH   2  27
ATOM     27  S   UNL     1      -2.760  15.987  20.808  0.00  0.00    +0.000 S 
BRANCH  27  28
ATOM     28  C   UNL     1      -1.228  16.792  20.270  0.00  0.00    +0.000 C 
BRANCH  28  29
ATOM     29  C   UNL     1      -0.769  16.577  18.834  0.00  0.00    +0.000 C 
ATOM     30  N   UNL     1      -0.328  15.362  18.435  0.00  0.00    +0.000 N 
ATOM     31  O   UNL     1      -0.803  17.498  18.021  0.00  0.00    +0.000 OA
ATOM     32  H   UNL     1      -0.286  14.545  19.044  0.00  0.00    +0.000 HD
ATOM     33  H   UNL     1      -0.045  15.252  17.467  0.00  0.00    +0.000 HD
ENDBRANCH  28  29
ENDBRANCH  27  28
ENDBRANCH   2  27
TORSDOF 4
ENDMDL
MODEL 2
REMARK VINA RESULT:      -6.6      3.017      5.095
REMARK  Name = 
REMARK  5 active torsions:
REMARK  status: ('A' for Active; 'I' for Inactive)
REMARK    1  A    between atoms: C_1  and  C_2
REMARK    2  A    between atoms: C_6  and  N_7
REMARK    3  A    between atoms: C_8  and  S_9
REMARK    4  A    between atoms: S_9  and  C_10
REMARK    5  A    between atoms: C_10  and  C_11
REMARK                            x       y       z     vdW  Elec       q    Type
REMARK                         _______ _______ _______ _____ _____    ______ ____
ROOT
ATOM      1  N   UNL     1      -2.714  14.289  23.159  0.00  0.00    +0.000 N 
ATOM      2  C   UNL     1      -3.037  13.011  23.578  0.00  0.00    +0.000 A 
ATOM      3  N   UNL     1      -2.408  11.942  23.221  0.00  0.00    +0.000 NA
ATOM      4  C   UNL     1      -1.434  12.077  22.277  0.00  0.00    +0.000 A 
ATOM      5  C   UNL     1      -1.232  13.181  21.542  0.00  0.00    +0.000 A 
ATOM      6  C   UNL     1      -1.778  14.434  22.132  0.00  0.00    +0.000 A 
ATOM      7  O   UNL     1      -1.306  15.515  21.770  0.00  0.00    +0.000 OA
ATOM      8  C   UNL     1      -0.333  13.172  20.307  0.00  0.00    +0.000 C 
ATOM      9  C   UNL     1      -0.681  14.194  19.196  0.00  0.00    +0.000 C 
ATOM     10  C   UNL     1       0.646  14.476  18.505  0.00  0.00    +0.000 C 
ATOM     11  C   UNL     1       1.672  14.458  19.624  0.00  0.00    +0.000 C 
ATOM     12  C   UNL     1       1.122  13.529  20.705  0.00  0.00    +0.000 C 
ATOM     13  C   UNL     1      -0.412  11.740  19.651  0.00  0.00    +0.000 C 
ATOM     14  C   UNL     1      -0.208  10.644  20.668  0.00  0.00    +0.000 A 
ATOM     15  C   UNL     1       0.400   9.430  20.340  0.00  0.00    +0.000 A 
ATOM     16  C   UNL     1       0.736   8.527  21.349  0.00  0.00    +0.000 A 
ATOM     17  C   UNL     1       0.477   8.840  22.682  0.00  0.00    +0.000 A 
ATOM     18  C   UNL     1      -0.225  10.001  22.997  0.00  0.00    +0.000 A 
ATOM     19  C   UNL     1      -0.621  10.882  21.983  0.00  0.00    +0.000 A 
ENDROOT
BRANCH   1  25
ATOM     20  C   UNL     1      -5.658  18.185  24.049  0.00  0.00    +0.000 C 
ATOM     21  C   UNL     1      -4.440  17.378  24.388  0.00  0.00    +0.000 A 
ATOM     22  C   UNL     1      -3.556  17.787  25.391  0.00  0.00    +0.000 A 
ATOM     23  C   UNL     1      -2.403  17.052  25.656  0.00  0.00    +0.000 A 
ATOM     24  C   UNL     1      -2.135  15.890  24.934  0.00  0.00    +0.000 A 
ATOM     25  C   UNL     1      -3.022  15.444  23.939  0.00  0.00    +0.000 A 
ATOM     26  C   UNL     1      -4.159  16.214  23.659  0.00  0.00    +0.000 A 
ENDBRANCH   1  25
BRANCH   2  27
ATOM     27  S   UNL     1      -4.435  12.701  24.593  0.00  0.00    +0.000 S 
BRANCH  27  28
ATOM     28  C   UNL     1      -5.808  12.905  23.427  0.00  0.00    +0.000 C 
BRANCH  28  29
ATOM     29  C   UNL     1      -7.228  12.853  23.972  0.00  0.00    +0.000 C 
ATOM     30  N   UNL     1      -7.754  13.927  24.605  0.00  0.00    +0.000 N 
ATOM     31  O   UNL     1      -7.916  11.845  23.834  0.00  0.00    +0.000 OA
ATOM     32  H   UNL     1      -7.254  14.806  24.742  0.00  0.00    +0.000 HD
ATOM     33  H   UNL     1      -8.709  13.863  24.941  0.00  0.00    +0.000 HD
ENDBRANCH  28  29
ENDBRANCH  27  28
ENDBRANCH   2  27
TORSDOF 4
ENDMDL
MODEL 3
REMARK VINA RESULT:      -6.6      1.582      1.930
REMARK  Name = 
REMARK  5 active torsions:
REMARK  status: ('A' for Active; 'I' for Inactive)
REMARK    1  A    between atoms: C_1  and  C_2
REMARK    2  A    between atoms: C_6  and  N_7
REMARK    3  A    between atoms: C_8  and  S_9
REMARK    4  A    between atoms: S_9  and  C_10
REMARK    5  A    between atoms: C_10  and  C_11
REMARK                            x       y       z     vdW  Elec       q    Type
REMARK                         _______ _______ _______ _____ _____    ______ ____
ROOT
ATOM      1  N   UNL     1      -1.499  13.842  22.068  0.00  0.00    +0.000 N 
ATOM      2  C   UNL     1      -2.116  14.299  20.918  0.00  0.00    +0.000 A 
ATOM      3  N   UNL     1      -2.357  13.574  19.878  0.00  0.00    +0.000 NA
ATOM      4  C   UNL     1      -1.867  12.302  19.876  0.00  0.00    +0.000 A 
ATOM      5  C   UNL     1      -0.979  11.826  20.762  0.00  0.00    +0.000 A 
ATOM      6  C   UNL     1      -0.918  12.571  22.050  0.00  0.00    +0.000 A 
ATOM      7  O   UNL     1      -0.467  11.999  23.046  0.00  0.00    +0.000 OA
ATOM      8  C   UNL     1      -0.247  10.505  20.536  0.00  0.00    +0.000 C 
ATOM      9  C   UNL     1       1.158  10.379  21.176  0.00  0.00    +0.000 C 
ATOM     10  C   UNL     1       1.334   8.887  21.425  0.00  0.00    +0.000 C 
ATOM     11  C   UNL     1      -0.046   8.402  21.832  0.00  0.00    +0.000 C 
ATOM     12  C   UNL     1      -1.051   9.337  21.162  0.00  0.00    +0.000 C 
ATOM     13  C   UNL     1      -0.061  10.304  18.983  0.00  0.00    +0.000 C 
ATOM     14  C   UNL     1      -1.350  10.522  18.231  0.00  0.00    +0.000 A 
ATOM     15  C   UNL     1      -1.653   9.828  17.057  0.00  0.00    +0.000 A 
ATOM     16  C   UNL     1      -2.930   9.923  16.503  0.00  0.00    +0.000 A 
ATOM     17  C   UNL     1      -3.905  10.701  17.124  0.00  0.00    +0.000 A 
ATOM     18  C   UNL     1      -3.571  11.476  18.232  0.00  0.00    +0.000 A 
ATOM     19  C   UNL     1      -2.273  11.433  18.756  0.00  0.00    +0.000 A 
ENDROOT
BRANCH   1  25
ATOM     20  C   UNL     1       0.059  16.812  25.728  0.00  0.00    +0.000 C 
ATOM     21  C   UNL     1      -0.977  15.884  25.165  0.00  0.00    +0.000 A 
ATOM     22  C   UNL     1      -2.110  15.530  25.903  0.00  0.00    +0.000 A 
ATOM     23  C   UNL     1      -3.035  14.626  25.384  0.00  0.00    +0.000 A 
ATOM     24  C   UNL     1      -2.843  14.085  24.114  0.00  0.00    +0.000 A 
ATOM     25  C   UNL     1      -1.725  14.445  23.342  0.00  0.00    +0.000 A 
ATOM     26  C   UNL     1      -0.786  15.327  23.892  0.00  0.00    +0.000 A 
ENDBRANCH   1  25
BRANCH   2  27
ATOM     27  S   UNL     1      -2.555  15.987  20.719  0.00  0.00    +0.000 S 
BRANCH  27  28
ATOM     28  C   UNL     1      -4.287  15.997  21.253  0.00  0.00    +0.000 C 
BRANCH  28  29
ATOM     29  C   UNL     1      -5.150  14.789  20.919  0.00  0.00    +0.000 C 
ATOM     30  N   UNL     1      -5.442  14.494  19.631  0.00  0.00    +0.000 N 
ATOM     31  O   UNL     1      -5.581  14.062  21.811  0.00  0.00    +0.000 OA
ATOM     32  H   UNL     1      -5.108  15.037  18.835  0.00  0.00    +0.000 HD
ATOM     33  H   UNL     1      -6.006  13.673  19.445  0.00  0.00    +0.000 HD
ENDBRANCH  28  29
ENDBRANCH  27  28
ENDBRANCH   2  27
TORSDOF 4
ENDMDL
MODEL 4
REMARK VINA RESULT:      -6.5      3.244      5.559
REMARK  Name = 
REMARK  5 active torsions:
REMARK  status: ('A' for Active; 'I' for Inactive)
REMARK    1  A    between atoms: C_1  and  C_2
REMARK    2  A    between atoms: C_6  and  N_7
REMARK    3  A    between atoms: C_8  and  S_9
REMARK    4  A    between atoms: S_9  and  C_10
REMARK    5  A    between atoms: C_10  and  C_11
REMARK                            x       y       z     vdW  Elec       q    Type
REMARK                         _______ _______ _______ _____ _____    ______ ____
ROOT
ATOM      1  N   UNL     1      -4.137  13.167  20.451  0.00  0.00    +0.000 N 
ATOM      2  C   UNL     1      -3.043  13.601  21.178  0.00  0.00    +0.000 A 
ATOM      3  N   UNL     1      -1.815  13.455  20.810  0.00  0.00    +0.000 NA
ATOM      4  C   UNL     1      -1.582  12.720  19.685  0.00  0.00    +0.000 A 
ATOM      5  C   UNL     1      -2.502  11.966  19.064  0.00  0.00    +0.000 A 
ATOM      6  C   UNL     1      -3.915  12.343  19.344  0.00  0.00    +0.000 A 
ATOM      7  O   UNL     1      -4.789  12.009  18.541  0.00  0.00    +0.000 OA
ATOM      8  C   UNL     1      -2.116  10.942  17.998  0.00  0.00    +0.000 C 
ATOM      9  C   UNL     1      -3.049   9.715  17.854  0.00  0.00    +0.000 C 
ATOM     10  C   UNL     1      -2.900   9.289  16.399  0.00  0.00    +0.000 C 
ATOM     11  C   UNL     1      -2.760  10.591  15.631  0.00  0.00    +0.000 C 
ATOM     12  C   UNL     1      -2.139  11.600  16.595  0.00  0.00    +0.000 C 
ATOM     13  C   UNL     1      -0.681  10.386  18.347  0.00  0.00    +0.000 C 
ATOM     14  C   UNL     1       0.298  11.498  18.630  0.00  0.00    +0.000 A 
ATOM     15  C   UNL     1       1.657  11.386  18.328  0.00  0.00    +0.000 A 
ATOM     16  C   UNL     1       2.486  12.504  18.433  0.00  0.00    +0.000 A 
ATOM     17  C   UNL     1       1.958  13.731  18.828  0.00  0.00    +0.000 A 
ATOM     18  C   UNL     1       0.628  13.815  19.232  0.00  0.00    +0.000 A 
ATOM     19  C   UNL     1      -0.195  12.682  19.189  0.00  0.00    +0.000 A 
ENDROOT
BRANCH   1  25
ATOM     20  C   UNL     1      -6.944  17.257  20.266  0.00  0.00    +0.000 C 
ATOM     21  C   UNL     1      -6.820  15.781  20.501  0.00  0.00    +0.000 A 
ATOM     22  C   UNL     1      -7.916  15.019  20.919  0.00  0.00    +0.000 A 
ATOM     23  C   UNL     1      -7.769  13.659  21.182  0.00  0.00    +0.000 A 
ATOM     24  C   UNL     1      -6.529  13.046  21.010  0.00  0.00    +0.000 A 
ATOM     25  C   UNL     1      -5.418  13.785  20.566  0.00  0.00    +0.000 A 
ATOM     26  C   UNL     1      -5.574  15.158  20.340  0.00  0.00    +0.000 A 
ENDBRANCH   1  25
BRANCH   2  27
ATOM     27  S   UNL     1      -3.222  14.331  22.763  0.00  0.00    +0.000 S 
BRANCH  27  28
ATOM     28  C   UNL     1      -3.730  12.919  23.780  0.00  0.00    +0.000 C 
BRANCH  28  29
ATOM     29  C   UNL     1      -5.169  12.869  24.275  0.00  0.00    +0.000 C 
ATOM     30  N   UNL     1      -5.905  14.002  24.344  0.00  0.00    +0.000 N 
ATOM     31  O   UNL     1      -5.681  11.803  24.607  0.00  0.00    +0.000 OA
ATOM     32  H   UNL     1      -5.559  14.921  24.070  0.00  0.00    +0.000 HD
ATOM     33  H   UNL     1      -6.865  13.929  24.663  0.00  0.00    +0.000 HD
ENDBRANCH  28  29
ENDBRANCH  27  28
ENDBRANCH   2  27
TORSDOF 4
ENDMDL
MODEL 5
REMARK VINA RESULT:      -6.4      3.371      7.536
REMARK  Name = 
REMARK  5 active torsions:
REMARK  status: ('A' for Active; 'I' for Inactive)
REMARK    1  A    between atoms: C_1  and  C_2
REMARK    2  A    between atoms: C_6  and  N_7
REMARK    3  A    between atoms: C_8  and  S_9
REMARK    4  A    between atoms: S_9  and  C_10
REMARK    5  A    between atoms: C_10  and  C_11
REMARK                            x       y       z     vdW  Elec       q    Type
REMARK                         _______ _______ _______ _____ _____    ______ ____
ROOT
ATOM      1  N   UNL     1       0.073  12.295  19.855  0.00  0.00    +0.000 N 
ATOM      2  C   UNL     1      -0.080  12.413  21.225  0.00  0.00    +0.000 A 
ATOM      3  N   UNL     1       0.393  13.382  21.934  0.00  0.00    +0.000 NA
ATOM      4  C   UNL     1       1.193  14.286  21.301  0.00  0.00    +0.000 A 
ATOM      5  C   UNL     1       1.698  14.126  20.068  0.00  0.00    +0.000 A 
ATOM      6  C   UNL     1       0.957  13.163  19.208  0.00  0.00    +0.000 A 
ATOM      7  O   UNL     1       1.073  13.249  17.983  0.00  0.00    +0.000 OA
ATOM      8  C   UNL     1       2.817  15.019  19.535  0.00  0.00    +0.000 C 
ATOM      9  C   UNL     1       3.761  14.385  18.484  0.00  0.00    +0.000 C 
ATOM     10  C   UNL     1       4.251  15.561  17.650  0.00  0.00    +0.000 C 
ATOM     11  C   UNL     1       3.053  16.488  17.553  0.00  0.00    +0.000 C 
ATOM     12  C   UNL     1       2.215  16.248  18.807  0.00  0.00    +0.000 C 
ATOM     13  C   UNL     1       3.718  15.459  20.752  0.00  0.00    +0.000 C 
ATOM     14  C   UNL     1       2.894  15.987  21.900  0.00  0.00    +0.000 A 
ATOM     15  C   UNL     1       3.365  16.985  22.756  0.00  0.00    +0.000 A 
ATOM     16  C   UNL     1       2.500  17.571  23.681  0.00  0.00    +0.000 A 
ATOM     17  C   UNL     1       1.167  17.171  23.744  0.00  0.00    +0.000 A 
ATOM     18  C   UNL     1       0.728  16.104  22.965  0.00  0.00    +0.000 A 
ATOM     19  C   UNL     1       1.607  15.468  22.078  0.00  0.00    +0.000 A 
ENDROOT
BRANCH   1  25
ATOM     20  C   UNL     1      -4.550  11.750  18.132  0.00  0.00    +0.000 C 
ATOM     21  C   UNL     1      -3.128  11.278  18.197  0.00  0.00    +0.000 A 
ATOM     22  C   UNL     1      -2.725  10.103  17.554  0.00  0.00    +0.000 A 
ATOM     23  C   UNL     1      -1.412   9.652  17.669  0.00  0.00    +0.000 A 
ATOM     24  C   UNL     1      -0.487  10.384  18.411  0.00  0.00    +0.000 A 
ATOM     25  C   UNL     1      -0.861  11.581  19.045  0.00  0.00    +0.000 A 
ATOM     26  C   UNL     1      -2.194  12.003  18.950  0.00  0.00    +0.000 A 
ENDBRANCH   1  25
BRANCH   2  27
ATOM     27  S   UNL     1      -0.875  11.168  22.172  0.00  0.00    +0.000 S 
BRANCH  27  28
ATOM     28  C   UNL     1       0.460   9.968  22.427  0.00  0.00    +0.000 C 
BRANCH  28  29
ATOM     29  C   UNL     1       0.354   8.617  21.735  0.00  0.00    +0.000 C 
ATOM     30  N   UNL     1       1.462   8.011  21.250  0.00  0.00    +0.000 N 
ATOM     31  O   UNL     1      -0.733   8.056  21.618  0.00  0.00    +0.000 OA
ATOM     32  H   UNL     1       2.401   8.402  21.324  0.00  0.00    +0.000 HD
ATOM     33  H   UNL     1       1.357   7.104  20.809  0.00  0.00    +0.000 HD
ENDBRANCH  28  29
ENDBRANCH  27  28
ENDBRANCH   2  27
TORSDOF 4
ENDMDL
MODEL 6
REMARK VINA RESULT:      -6.4      2.912      6.263
REMARK  Name = 
REMARK  5 active torsions:
REMARK  status: ('A' for Active; 'I' for Inactive)
REMARK    1  A    between atoms: C_1  and  C_2
REMARK    2  A    between atoms: C_6  and  N_7
REMARK    3  A    between atoms: C_8  and  S_9
REMARK    4  A    between atoms: S_9  and  C_10
REMARK    5  A    between atoms: C_10  and  C_11
REMARK                            x       y       z     vdW  Elec       q    Type
REMARK                         _______ _______ _______ _____ _____    ______ ____
ROOT
ATOM      1  N   UNL     1      -2.028  12.463  20.393  0.00  0.00    +0.000 N 
ATOM      2  C   UNL     1      -2.097  13.129  21.603  0.00  0.00    +0.000 A 
ATOM      3  N   UNL     1      -3.193  13.397  22.229  0.00  0.00    +0.000 NA
ATOM      4  C   UNL     1      -4.363  13.103  21.595  0.00  0.00    +0.000 A 
ATOM      5  C   UNL     1      -4.465  12.765  20.300  0.00  0.00    +0.000 A 
ATOM      6  C   UNL     1      -3.215  12.231  19.693  0.00  0.00    +0.000 A 
ATOM      7  O   UNL     1      -3.299  11.530  18.681  0.00  0.00    +0.000 OA
ATOM      8  C   UNL     1      -5.810  12.741  19.579  0.00  0.00    +0.000 C 
ATOM      9  C   UNL     1      -5.779  13.020  18.056  0.00  0.00    +0.000 C 
ATOM     10  C   UNL     1      -6.988  12.277  17.505  0.00  0.00    +0.000 C 
ATOM     11  C   UNL     1      -7.067  11.006  18.332  0.00  0.00    +0.000 C 
ATOM     12  C   UNL     1      -6.448  11.332  19.690  0.00  0.00    +0.000 C 
ATOM     13  C   UNL     1      -6.736  13.842  20.226  0.00  0.00    +0.000 C 
ATOM     14  C   UNL     1      -6.753  13.747  21.732  0.00  0.00    +0.000 A 
ATOM     15  C   UNL     1      -7.878  14.090  22.486  0.00  0.00    +0.000 A 
ATOM     16  C   UNL     1      -7.909  13.808  23.852  0.00  0.00    +0.000 A 
ATOM     17  C   UNL     1      -6.827  13.178  24.462  0.00  0.00    +0.000 A 
ATOM     18  C   UNL     1      -5.666  12.936  23.732  0.00  0.00    +0.000 A 
ATOM     19  C   UNL     1      -5.604  13.273  22.373  0.00  0.00    +0.000 A 
ENDROOT
BRANCH   1  25
ATOM     20  C   UNL     1       0.940   8.536  21.035  0.00  0.00    +0.000 C 
ATOM     21  C   UNL     1       0.611   9.805  20.307  0.00  0.00    +0.000 A 
ATOM     22  C   UNL     1       1.460  10.314  19.319  0.00  0.00    +0.000 A 
ATOM     23  C   UNL     1       1.164  11.522  18.690  0.00  0.00    +0.000 A 
ATOM     24  C   UNL     1       0.006  12.220  19.031  0.00  0.00    +0.000 A 
ATOM     25  C   UNL     1      -0.876  11.715  20.003  0.00  0.00    +0.000 A 
ATOM     26  C   UNL     1      -0.546  10.518  20.651  0.00  0.00    +0.000 A 
ENDBRANCH   1  25
BRANCH   2  27
ATOM     27  S   UNL     1      -0.663  13.777  22.380  0.00  0.00    +0.000 S 
BRANCH  27  28
ATOM     28  C   UNL     1      -0.647  15.490  21.787  0.00  0.00    +0.000 C 
BRANCH  28  29
ATOM     29  C   UNL     1      -0.472  15.733  20.295  0.00  0.00    +0.000 C 
ATOM     30  N   UNL     1      -1.538  16.054  19.526  0.00  0.00    +0.000 N 
ATOM     31  O   UNL     1       0.638  15.652  19.773  0.00  0.00    +0.000 OA
ATOM     32  H   UNL     1      -2.487  16.157  19.887  0.00  0.00    +0.000 HD
ATOM     33  H   UNL     1      -1.382  16.224  18.539  0.00  0.00    +0.000 HD
ENDBRANCH  28  29
ENDBRANCH  27  28
ENDBRANCH   2  27
TORSDOF 4
ENDMDL
MODEL 7
REMARK VINA RESULT:      -6.4      3.211      5.778
REMARK  Name = 
REMARK  5 active torsions:
REMARK  status: ('A' for Active; 'I' for Inactive)
REMARK    1  A    between atoms: C_1  and  C_2
REMARK    2  A    between atoms: C_6  and  N_7
REMARK    3  A    between atoms: C_8  and  S_9
REMARK    4  A    between atoms: S_9  and  C_10
REMARK    5  A    between atoms: C_10  and  C_11
REMARK                            x       y       z     vdW  Elec       q    Type
REMARK                         _______ _______ _______ _____ _____    ______ ____
ROOT
ATOM      1  N   UNL     1      -0.856  13.595  20.384  0.00  0.00    +0.000 N 
ATOM      2  C   UNL     1      -1.351  12.524  19.663  0.00  0.00    +0.000 A 
ATOM      3  N   UNL     1      -2.596  12.188  19.613  0.00  0.00    +0.000 NA
ATOM      4  C   UNL     1      -3.460  12.869  20.418  0.00  0.00    +0.000 A 
ATOM      5  C   UNL     1      -3.089  13.699  21.405  0.00  0.00    +0.000 A 
ATOM      6  C   UNL     1      -1.711  14.248  21.277  0.00  0.00    +0.000 A 
ATOM      7  O   UNL     1      -1.431  15.294  21.867  0.00  0.00    +0.000 OA
ATOM      8  C   UNL     1      -4.081  14.195  22.455  0.00  0.00    +0.000 C 
ATOM      9  C   UNL     1      -3.496  14.535  23.847  0.00  0.00    +0.000 C 
ATOM     10  C   UNL     1      -4.432  15.598  24.408  0.00  0.00    +0.000 C 
ATOM     11  C   UNL     1      -4.821  16.438  23.205  0.00  0.00    +0.000 C 
ATOM     12  C   UNL     1      -4.734  15.521  21.987  0.00  0.00    +0.000 C 
ATOM     13  C   UNL     1      -5.165  13.071  22.678  0.00  0.00    +0.000 C 
ATOM     14  C   UNL     1      -5.728  12.567  21.372  0.00  0.00    +0.000 A 
ATOM     15  C   UNL     1      -7.045  12.118  21.255  0.00  0.00    +0.000 A 
ATOM     16  C   UNL     1      -7.574  11.841  19.994  0.00  0.00    +0.000 A 
ATOM     17  C   UNL     1      -6.795  12.021  18.853  0.00  0.00    +0.000 A 
ATOM     18  C   UNL     1      -5.451  12.365  18.980  0.00  0.00    +0.000 A 
ATOM     19  C   UNL     1      -4.896  12.584  20.247  0.00  0.00    +0.000 A 
ENDROOT
BRANCH   1  25
ATOM     20  C   UNL     1       3.960  14.484  21.195  0.00  0.00    +0.000 C 
ATOM     21  C   UNL     1       2.712  14.736  20.402  0.00  0.00    +0.000 A 
ATOM     22  C   UNL     1       2.687  15.681  19.372  0.00  0.00    +0.000 A 
ATOM     23  C   UNL     1       1.505  15.939  18.681  0.00  0.00    +0.000 A 
ATOM     24  C   UNL     1       0.343  15.239  19.003  0.00  0.00    +0.000 A 
ATOM     25  C   UNL     1       0.349  14.265  20.017  0.00  0.00    +0.000 A 
ATOM     26  C   UNL     1       1.537  14.043  20.726  0.00  0.00    +0.000 A 
ENDBRANCH   1  25
BRANCH   2  27
ATOM     27  S   UNL     1      -0.289  11.427  18.798  0.00  0.00    +0.000 S 
BRANCH  27  28
ATOM     28  C   UNL     1      -1.450  10.185  18.170  0.00  0.00    +0.000 C 
BRANCH  28  29
ATOM     29  C   UNL     1      -2.121  10.441  16.828  0.00  0.00    +0.000 C 
ATOM     30  N   UNL     1      -2.258  11.705  16.365  0.00  0.00    +0.000 N 
ATOM     31  O   UNL     1      -2.535   9.506  16.146  0.00  0.00    +0.000 OA
ATOM     32  H   UNL     1      -1.925  12.530  16.862  0.00  0.00    +0.000 HD
ATOM     33  H   UNL     1      -2.696  11.837  15.460  0.00  0.00    +0.000 HD
ENDBRANCH  28  29
ENDBRANCH  27  28
ENDBRANCH   2  27
TORSDOF 4
ENDMDL
MODEL 8
REMARK VINA RESULT:      -6.4      3.252      5.157
REMARK  Name = 
REMARK  5 active torsions:
REMARK  status: ('A' for Active; 'I' for Inactive)
REMARK    1  A    between atoms: C_1  and  C_2
REMARK    2  A    between atoms: C_6  and  N_7
REMARK    3  A    between atoms: C_8  and  S_9
REMARK    4  A    between atoms: S_9  and  C_10
REMARK    5  A    between atoms: C_10  and  C_11
REMARK                            x       y       z     vdW  Elec       q    Type
REMARK                         _______ _______ _______ _____ _____    ______ ____
ROOT
ATOM      1  N   UNL     1      -3.779  14.636  22.601  0.00  0.00    +0.000 N 
ATOM      2  C   UNL     1      -4.123  13.324  22.871  0.00  0.00    +0.000 A 
ATOM      3  N   UNL     1      -3.332  12.315  22.726  0.00  0.00    +0.000 NA
ATOM      4  C   UNL     1      -2.115  12.552  22.160  0.00  0.00    +0.000 A 
ATOM      5  C   UNL     1      -1.767  13.695  21.550  0.00  0.00    +0.000 A 
ATOM      6  C   UNL     1      -2.571  14.885  21.944  0.00  0.00    +0.000 A 
ATOM      7  O   UNL     1      -2.090  16.008  21.775  0.00  0.00    +0.000 OA
ATOM      8  C   UNL     1      -0.514  13.795  20.682  0.00  0.00    +0.000 C 
ATOM      9  C   UNL     1      -0.553  14.833  19.534  0.00  0.00    +0.000 C 
ATOM     10  C   UNL     1       0.902  15.230  19.326  0.00  0.00    +0.000 C 
ATOM     11  C   UNL     1       1.500  15.238  20.722  0.00  0.00    +0.000 C 
ATOM     12  C   UNL     1       0.697  14.233  21.545  0.00  0.00    +0.000 C 
ATOM     13  C   UNL     1      -0.263  12.387  20.017  0.00  0.00    +0.000 C 
ATOM     14  C   UNL     1      -0.322  11.269  21.028  0.00  0.00    +0.000 A 
ATOM     15  C   UNL     1       0.451  10.112  20.902  0.00  0.00    +0.000 A 
ATOM     16  C   UNL     1       0.504   9.195  21.953  0.00  0.00    +0.000 A 
ATOM     17  C   UNL     1      -0.203   9.437  23.129  0.00  0.00    +0.000 A 
ATOM     18  C   UNL     1      -1.055  10.536  23.210  0.00  0.00    +0.000 A 
ATOM     19  C   UNL     1      -1.162  11.427  22.135  0.00  0.00    +0.000 A 
ENDROOT
BRANCH   1  25
ATOM     20  C   UNL     1      -6.890  18.500  22.407  0.00  0.00    +0.000 C 
ATOM     21  C   UNL     1      -5.922  17.654  23.180  0.00  0.00    +0.000 A 
ATOM     22  C   UNL     1      -5.564  17.978  24.492  0.00  0.00    +0.000 A 
ATOM     23  C   UNL     1      -4.625  17.209  25.177  0.00  0.00    +0.000 A 
ATOM     24  C   UNL     1      -4.051  16.099  24.560  0.00  0.00    +0.000 A 
ATOM     25  C   UNL     1      -4.414  15.737  23.251  0.00  0.00    +0.000 A 
ATOM     26  C   UNL     1      -5.333  16.541  22.564  0.00  0.00    +0.000 A 
ENDBRANCH   1  25
BRANCH   2  27
ATOM     27  S   UNL     1      -5.749  12.882  23.360  0.00  0.00    +0.000 S 
BRANCH  27  28
ATOM     28  C   UNL     1      -6.661  12.984  21.797  0.00  0.00    +0.000 C 
BRANCH  28  29
ATOM     29  C   UNL     1      -6.660  11.768  20.882  0.00  0.00    +0.000 C 
ATOM     30  N   UNL     1      -7.405  10.682  21.191  0.00  0.00    +0.000 N 
ATOM     31  O   UNL     1      -5.993  11.761  19.850  0.00  0.00    +0.000 OA
ATOM     32  H   UNL     1      -7.999  10.618  22.018  0.00  0.00    +0.000 HD
ATOM     33  H   UNL     1      -7.393   9.896  20.550  0.00  0.00    +0.000 HD
ENDBRANCH  28  29
ENDBRANCH  27  28
ENDBRANCH   2  27
TORSDOF 4
ENDMDL
MODEL 9
REMARK VINA RESULT:      -6.3      3.094      5.899
REMARK  Name = 
REMARK  5 active torsions:
REMARK  status: ('A' for Active; 'I' for Inactive)
REMARK    1  A    between atoms: C_1  and  C_2
REMARK    2  A    between atoms: C_6  and  N_7
REMARK    3  A    between atoms: C_8  and  S_9
REMARK    4  A    between atoms: S_9  and  C_10
REMARK    5  A    between atoms: C_10  and  C_11
REMARK                            x       y       z     vdW  Elec       q    Type
REMARK                         _______ _______ _______ _____ _____    ______ ____
ROOT
ATOM      1  N   UNL     1      -0.766  13.401  20.367  0.00  0.00    +0.000 N 
ATOM      2  C   UNL     1      -1.513  12.510  19.618  0.00  0.00    +0.000 A 
ATOM      3  N   UNL     1      -2.784  12.330  19.747  0.00  0.00    +0.000 NA
ATOM      4  C   UNL     1      -3.406  12.982  20.770  0.00  0.00    +0.000 A 
ATOM      5  C   UNL     1      -2.772  13.613  21.770  0.00  0.00    +0.000 A 
ATOM      6  C   UNL     1      -1.370  14.012  21.470  0.00  0.00    +0.000 A 
ATOM      7  O   UNL     1      -0.858  14.923  22.126  0.00  0.00    +0.000 OA
ATOM      8  C   UNL     1      -3.507  14.062  23.032  0.00  0.00    +0.000 C 
ATOM      9  C   UNL     1      -2.666  14.127  24.330  0.00  0.00    +0.000 C 
ATOM     10  C   UNL     1      -3.345  15.198  25.174  0.00  0.00    +0.000 C 
ATOM     11  C   UNL     1      -3.802  16.242  24.171  0.00  0.00    +0.000 C 
ATOM     12  C   UNL     1      -4.037  15.507  22.853  0.00  0.00    +0.000 C 
ATOM     13  C   UNL     1      -4.685  13.049  23.302  0.00  0.00    +0.000 C 
ATOM     14  C   UNL     1      -5.513  12.807  22.064  0.00  0.00    +0.000 A 
ATOM     15  C   UNL     1      -6.882  12.535  22.126  0.00  0.00    +0.000 A 
ATOM     16  C   UNL     1      -7.638  12.506  20.954  0.00  0.00    +0.000 A 
ATOM     17  C   UNL     1      -7.033  12.759  19.725  0.00  0.00    +0.000 A 
ATOM     18  C   UNL     1      -5.651  12.924  19.654  0.00  0.00    +0.000 A 
ATOM     19  C   UNL     1      -4.877  12.892  20.821  0.00  0.00    +0.000 A 
ENDROOT
BRANCH   1  25
ATOM     20  C   UNL     1       1.561  17.049  17.933  0.00  0.00    +0.000 C 
ATOM     21  C   UNL     1       1.615  15.744  18.670  0.00  0.00    +0.000 A 
ATOM     22  C   UNL     1       2.814  15.037  18.805  0.00  0.00    +0.000 A 
ATOM     23  C   UNL     1       2.835  13.802  19.448  0.00  0.00    +0.000 A 
ATOM     24  C   UNL     1       1.660  13.272  19.978  0.00  0.00    +0.000 A 
ATOM     25  C   UNL     1       0.446  13.975  19.878  0.00  0.00    +0.000 A 
ATOM     26  C   UNL     1       0.435  15.199  19.197  0.00  0.00    +0.000 A 
ENDBRANCH   1  25
BRANCH   2  27
ATOM     27  S   UNL     1      -0.763  11.436  18.450  0.00  0.00    +0.000 S 
BRANCH  27  28
ATOM     28  C   UNL     1      -2.180  10.485  17.839  0.00  0.00    +0.000 C 
BRANCH  28  29
ATOM     29  C   UNL     1      -2.886  10.974  16.582  0.00  0.00    +0.000 C 
ATOM     30  N   UNL     1      -3.922  11.839  16.674  0.00  0.00    +0.000 N 
ATOM     31  O   UNL     1      -2.517  10.600  15.471  0.00  0.00    +0.000 OA
ATOM     32  H   UNL     1      -4.274  12.210  17.557  0.00  0.00    +0.000 HD
ATOM     33  H   UNL     1      -4.358  12.156  15.816  0.00  0.00    +0.000 HD
ENDBRANCH  28  29
ENDBRANCH  27  28
ENDBRANCH   2  27
TORSDOF 4
ENDMDL
