MODEL 1
REMARK VINA RESULT:      -8.2      0.000      0.000
REMARK  Name = 
REMARK  5 active torsions:
REMARK  status: ('A' for Active; 'I' for Inactive)
REMARK    1  A    between atoms: C_1  and  C_2
REMARK    2  A    between atoms: C_12  and  O_13
REMARK    3  A    between atoms: C_14  and  C_15
REMARK    4  A    between atoms: C_15  and  C_16
REMARK    5  A    between atoms: C_16  and  O_18
REMARK                            x       y       z     vdW  Elec       q    Type
REMARK                         _______ _______ _______ _____ _____    ______ ____
ROOT
ATOM      1  C   UNL     1      -1.295  10.556  23.442  0.00  0.00    +0.000 C 
ATOM      2  C   UNL     1      -0.520  10.130  22.227  0.00  0.00    +0.000 A 
ATOM      3  C   UNL     1      -0.567  10.882  21.048  0.00  0.00    +0.000 A 
ATOM      4  C   UNL     1       0.153  10.488  19.911  0.00  0.00    +0.000 A 
ATOM      5  C   UNL     1       0.936   9.317  19.953  0.00  0.00    +0.000 A 
ATOM      6  C   UNL     1       0.965   8.587  21.137  0.00  0.00    +0.000 A 
ATOM      7  C   UNL     1       0.255   8.963  22.285  0.00  0.00    +0.000 A 
ATOM      8  N   UNL     1       1.783   7.507  20.923  0.00  0.00    +0.000 N 
ATOM      9  C   UNL     1       2.293   7.507  19.645  0.00  0.00    +0.000 A 
ATOM     10  C   UNL     1       3.173   6.602  18.992  0.00  0.00    +0.000 A 
ATOM     11  C   UNL     1       3.675   5.463  19.649  0.00  0.00    +0.000 A 
ATOM     12  C   UNL     1       4.540   4.603  18.974  0.00  0.00    +0.000 A 
ATOM     13  C   UNL     1       4.926   4.843  17.651  0.00  0.00    +0.000 A 
ATOM     14  C   UNL     1       4.399   5.973  16.996  0.00  0.00    +0.000 A 
ATOM     15  C   UNL     1       3.531   6.869  17.652  0.00  0.00    +0.000 A 
ATOM     16  C   UNL     1       3.012   8.002  17.011  0.00  0.00    +0.000 A 
ATOM     17  C   UNL     1       2.144   8.885  17.672  0.00  0.00    +0.000 A 
ATOM     18  C   UNL     1       1.776   8.639  19.011  0.00  0.00    +0.000 A 
ATOM     19  H   UNL     1       1.980   6.806  21.620  0.00  0.00    +0.000 HD
ENDROOT
BRANCH  12  20
ATOM     20  O   UNL     1       5.029   3.496  19.608  0.00  0.00    +0.000 OA
ATOM     21  H   UNL     1       4.473   3.300  20.382  0.00  0.00    +0.000 HD
ENDBRANCH  12  20
BRANCH  13  22
ATOM     22  C   UNL     1       5.800   3.843  16.923  0.00  0.00    +0.000 C 
BRANCH  22  23
ATOM     23  C   UNL     1       7.218   4.292  16.663  0.00  0.00    +0.000 C 
ATOM     24  O   UNL     1       7.599   4.780  15.610  0.00  0.00    +0.000 OA
BRANCH  23  25
ATOM     25  O   UNL     1       8.058   4.080  17.705  0.00  0.00    +0.000 OA
ATOM     26  H   UNL     1       7.599   4.078  18.568  0.00  0.00    +0.000 HD
ENDBRANCH  23  25
ENDBRANCH  22  23
ENDBRANCH  13  22
TORSDOF 4
ENDMDL
MODEL 2
REMARK VINA RESULT:      -8.1      2.164      2.359
REMARK  Name = 
REMARK  5 active torsions:
REMARK  status: ('A' for Active; 'I' for Inactive)
REMARK    1  A    between atoms: C_1  and  C_2
REMARK    2  A    between atoms: C_12  and  O_13
REMARK    3  A    between atoms: C_14  and  C_15
REMARK    4  A    between atoms: C_15  and  C_16
REMARK    5  A    between atoms: C_16  and  O_18
REMARK                            x       y       z     vdW  Elec       q    Type
REMARK                         _______ _______ _______ _____ _____    ______ ____
ROOT
ATOM      1  C   UNL     1      -1.619  12.181  23.076  0.00  0.00    +0.000 C 
ATOM      2  C   UNL     1      -0.822  11.440  22.040  0.00  0.00    +0.000 A 
ATOM      3  C   UNL     1      -0.495  12.044  20.822  0.00  0.00    +0.000 A 
ATOM      4  C   UNL     1       0.247  11.357  19.850  0.00  0.00    +0.000 A 
ATOM      5  C   UNL     1       0.671  10.036  20.103  0.00  0.00    +0.000 A 
ATOM      6  C   UNL     1       0.332   9.458  21.323  0.00  0.00    +0.000 A 
ATOM      7  C   UNL     1      -0.407  10.127  22.307  0.00  0.00    +0.000 A 
ATOM      8  N   UNL     1       0.850   8.188  21.323  0.00  0.00    +0.000 N 
ATOM      9  C   UNL     1       1.520   7.917  20.152  0.00  0.00    +0.000 A 
ATOM     10  C   UNL     1       2.206   6.750  19.719  0.00  0.00    +0.000 A 
ATOM     11  C   UNL     1       2.284   5.601  20.528  0.00  0.00    +0.000 A 
ATOM     12  C   UNL     1       2.972   4.480  20.067  0.00  0.00    +0.000 A 
ATOM     13  C   UNL     1       3.594   4.465  18.814  0.00  0.00    +0.000 A 
ATOM     14  C   UNL     1       3.490   5.614  18.005  0.00  0.00    +0.000 A 
ATOM     15  C   UNL     1       2.811   6.768  18.442  0.00  0.00    +0.000 A 
ATOM     16  C   UNL     1       2.715   7.918  17.648  0.00  0.00    +0.000 A 
ATOM     17  C   UNL     1       2.032   9.060  18.092  0.00  0.00    +0.000 A 
ATOM     18  C   UNL     1       1.423   9.066  19.364  0.00  0.00    +0.000 A 
ATOM     19  H   UNL     1       0.749   7.541  22.090  0.00  0.00    +0.000 HD
ENDROOT
BRANCH  12  20
ATOM     20  O   UNL     1       3.048   3.361  20.849  0.00  0.00    +0.000 OA
ATOM     21  H   UNL     1       3.286   3.621  21.755  0.00  0.00    +0.000 HD
ENDBRANCH  12  20
BRANCH  13  22
ATOM     22  C   UNL     1       4.261   3.201  18.313  0.00  0.00    +0.000 C 
BRANCH  22  23
ATOM     23  C   UNL     1       3.323   2.078  17.944  0.00  0.00    +0.000 C 
ATOM     24  O   UNL     1       2.215   2.243  17.456  0.00  0.00    +0.000 OA
BRANCH  23  25
ATOM     25  O   UNL     1       3.806   0.845  18.231  0.00  0.00    +0.000 OA
ATOM     26  H   UNL     1       3.846   0.262  17.448  0.00  0.00    +0.000 HD
ENDBRANCH  23  25
ENDBRANCH  22  23
ENDBRANCH  13  22
TORSDOF 4
ENDMDL
MODEL 3
REMARK VINA RESULT:      -8.1      1.144      2.390
REMARK  Name = 
REMARK  5 active torsions:
REMARK  status: ('A' for Active; 'I' for Inactive)
REMARK    1  A    between atoms: C_1  and  C_2
REMARK    2  A    between atoms: C_12  and  O_13
REMARK    3  A    between atoms: C_14  and  C_15
REMARK    4  A    between atoms: C_15  and  C_16
REMARK    5  A    between atoms: C_16  and  O_18
REMARK                            x       y       z     vdW  Elec       q    Type
REMARK                         _______ _______ _______ _____ _____    ______ ____
ROOT
ATOM      1  C   UNL     1      -1.244  12.373  21.198  0.00  0.00    +0.000 C 
ATOM      2  C   UNL     1      -0.565  11.038  21.077  0.00  0.00    +0.000 A 
ATOM      3  C   UNL     1      -0.764  10.043  22.040  0.00  0.00    +0.000 A 
ATOM      4  C   UNL     1      -0.132   8.796  21.933  0.00  0.00    +0.000 A 
ATOM      5  C   UNL     1       0.719   8.539  20.839  0.00  0.00    +0.000 A 
ATOM      6  C   UNL     1       0.902   9.545  19.896  0.00  0.00    +0.000 A 
ATOM      7  C   UNL     1       0.278  10.797  19.983  0.00  0.00    +0.000 A 
ATOM      8  N   UNL     1       1.764   9.055  18.948  0.00  0.00    +0.000 N 
ATOM      9  C   UNL     1       2.148   7.765  19.234  0.00  0.00    +0.000 A 
ATOM     10  C   UNL     1       3.012   6.874  18.543  0.00  0.00    +0.000 A 
ATOM     11  C   UNL     1       3.657   7.254  17.351  0.00  0.00    +0.000 A 
ATOM     12  C   UNL     1       4.493   6.347  16.700  0.00  0.00    +0.000 A 
ATOM     13  C   UNL     1       4.708   5.060  17.203  0.00  0.00    +0.000 A 
ATOM     14  C   UNL     1       4.075   4.699  18.408  0.00  0.00    +0.000 A 
ATOM     15  C   UNL     1       3.216   5.587  19.086  0.00  0.00    +0.000 A 
ATOM     16  C   UNL     1       2.573   5.230  20.279  0.00  0.00    +0.000 A 
ATOM     17  C   UNL     1       1.723   6.124  20.949  0.00  0.00    +0.000 A 
ATOM     18  C   UNL     1       1.503   7.413  20.422  0.00  0.00    +0.000 A 
ATOM     19  H   UNL     1       2.072   9.582  18.145  0.00  0.00    +0.000 HD
ENDROOT
BRANCH  12  20
ATOM     20  O   UNL     1       5.122   6.713  15.544  0.00  0.00    +0.000 OA
ATOM     21  H   UNL     1       4.476   6.719  14.817  0.00  0.00    +0.000 HD
ENDBRANCH  12  20
BRANCH  13  22
ATOM     22  C   UNL     1       5.687   4.131  16.514  0.00  0.00    +0.000 C 
BRANCH  22  23
ATOM     23  C   UNL     1       7.134   4.557  16.576  0.00  0.00    +0.000 C 
ATOM     24  O   UNL     1       7.689   5.222  15.714  0.00  0.00    +0.000 OA
BRANCH  23  25
ATOM     25  O   UNL     1       7.790   4.108  17.673  0.00  0.00    +0.000 OA
ATOM     26  H   UNL     1       7.307   3.399  18.140  0.00  0.00    +0.000 HD
ENDBRANCH  23  25
ENDBRANCH  22  23
ENDBRANCH  13  22
TORSDOF 4
ENDMDL
MODEL 4
REMARK VINA RESULT:      -8.0      4.225      7.889
REMARK  Name = 
REMARK  5 active torsions:
REMARK  status: ('A' for Active; 'I' for Inactive)
REMARK    1  A    between atoms: C_1  and  C_2
REMARK    2  A    between atoms: C_12  and  O_13
REMARK    3  A    between atoms: C_14  and  C_15
REMARK    4  A    between atoms: C_15  and  C_16
REMARK    5  A    between atoms: C_16  and  O_18
REMARK                            x       y       z     vdW  Elec       q    Type
REMARK                         _______ _______ _______ _____ _____    ______ ____
ROOT
ATOM      1  C   UNL     1       4.097   1.768  19.127  0.00  0.00    +0.000 C 
ATOM      2  C   UNL     1       3.662   3.191  18.920  0.00  0.00    +0.000 A 
ATOM      3  C   UNL     1       3.820   3.814  17.677  0.00  0.00    +0.000 A 
ATOM      4  C   UNL     1       3.417   5.142  17.478  0.00  0.00    +0.000 A 
ATOM      5  C   UNL     1       2.844   5.864  18.546  0.00  0.00    +0.000 A 
ATOM      6  C   UNL     1       2.699   5.221  19.772  0.00  0.00    +0.000 A 
ATOM      7  C   UNL     1       3.094   3.895  19.991  0.00  0.00    +0.000 A 
ATOM      8  N   UNL     1       2.129   6.124  20.633  0.00  0.00    +0.000 N 
ATOM      9  C   UNL     1       1.892   7.330  20.015  0.00  0.00    +0.000 A 
ATOM     10  C   UNL     1       1.322   8.534  20.508  0.00  0.00    +0.000 A 
ATOM     11  C   UNL     1       0.892   8.650  21.843  0.00  0.00    +0.000 A 
ATOM     12  C   UNL     1       0.333   9.849  22.286  0.00  0.00    +0.000 A 
ATOM     13  C   UNL     1       0.185  10.947  21.432  0.00  0.00    +0.000 A 
ATOM     14  C   UNL     1       0.640  10.826  20.104  0.00  0.00    +0.000 A 
ATOM     15  C   UNL     1       1.201   9.627  19.621  0.00  0.00    +0.000 A 
ATOM     16  C   UNL     1       1.643   9.496  18.298  0.00  0.00    +0.000 A 
ATOM     17  C   UNL     1       2.205   8.298  17.829  0.00  0.00    +0.000 A 
ATOM     18  C   UNL     1       2.332   7.194  18.696  0.00  0.00    +0.000 A 
ATOM     19  H   UNL     1       1.914   5.920  21.597  0.00  0.00    +0.000 HD
ENDROOT
BRANCH  12  20
ATOM     20  O   UNL     1      -0.084   9.966  23.581  0.00  0.00    +0.000 OA
ATOM     21  H   UNL     1      -0.800  10.622  23.628  0.00  0.00    +0.000 HD
ENDBRANCH  12  20
BRANCH  13  22
ATOM     22  C   UNL     1      -0.349  12.259  21.969  0.00  0.00    +0.000 C 
BRANCH  22  23
ATOM     23  C   UNL     1      -1.853  12.356  22.058  0.00  0.00    +0.000 C 
ATOM     24  O   UNL     1      -2.568  12.754  21.151  0.00  0.00    +0.000 OA
BRANCH  23  25
ATOM     25  O   UNL     1      -2.354  11.984  23.261  0.00  0.00    +0.000 OA
ATOM     26  H   UNL     1      -1.693  12.036  23.979  0.00  0.00    +0.000 HD
ENDBRANCH  23  25
ENDBRANCH  22  23
ENDBRANCH  13  22
TORSDOF 4
ENDMDL
MODEL 5
REMARK VINA RESULT:      -7.9      4.231      7.665
REMARK  Name = 
REMARK  5 active torsions:
REMARK  status: ('A' for Active; 'I' for Inactive)
REMARK    1  A    between atoms: C_1  and  C_2
REMARK    2  A    between atoms: C_12  and  O_13
REMARK    3  A    between atoms: C_14  and  C_15
REMARK    4  A    between atoms: C_15  and  C_16
REMARK    5  A    between atoms: C_16  and  O_18
REMARK                            x       y       z     vdW  Elec       q    Type
REMARK                         _______ _______ _______ _____ _____    ______ ____
ROOT
ATOM      1  C   UNL     1       4.217   1.869  19.312  0.00  0.00    +0.000 C 
ATOM      2  C   UNL     1       3.760   3.277  19.056  0.00  0.00    +0.000 A 
ATOM      3  C   UNL     1       3.909   3.861  17.794  0.00  0.00    +0.000 A 
ATOM      4  C   UNL     1       3.486   5.175  17.550  0.00  0.00    +0.000 A 
ATOM      5  C   UNL     1       2.902   5.924  18.593  0.00  0.00    +0.000 A 
ATOM      6  C   UNL     1       2.768   5.321  19.840  0.00  0.00    +0.000 A 
ATOM      7  C   UNL     1       3.182   4.009  20.104  0.00  0.00    +0.000 A 
ATOM      8  N   UNL     1       2.184   6.244  20.671  0.00  0.00    +0.000 N 
ATOM      9  C   UNL     1       1.928   7.424  20.012  0.00  0.00    +0.000 A 
ATOM     10  C   UNL     1       1.340   8.636  20.465  0.00  0.00    +0.000 A 
ATOM     11  C   UNL     1       0.909   8.790  21.796  0.00  0.00    +0.000 A 
ATOM     12  C   UNL     1       0.332   9.995  22.198  0.00  0.00    +0.000 A 
ATOM     13  C   UNL     1       0.168  11.061  21.308  0.00  0.00    +0.000 A 
ATOM     14  C   UNL     1       0.624  10.902  19.984  0.00  0.00    +0.000 A 
ATOM     15  C   UNL     1       1.203   9.696  19.542  0.00  0.00    +0.000 A 
ATOM     16  C   UNL     1       1.647   9.527  18.223  0.00  0.00    +0.000 A 
ATOM     17  C   UNL     1       2.226   8.322  17.795  0.00  0.00    +0.000 A 
ATOM     18  C   UNL     1       2.371   7.250  18.699  0.00  0.00    +0.000 A 
ATOM     19  H   UNL     1       1.972   6.069  21.641  0.00  0.00    +0.000 HD
ENDROOT
BRANCH  12  20
ATOM     20  O   UNL     1      -0.086  10.149  23.489  0.00  0.00    +0.000 OA
ATOM     21  H   UNL     1      -1.038   9.958  23.541  0.00  0.00    +0.000 HD
ENDBRANCH  12  20
BRANCH  13  22
ATOM     22  C   UNL     1      -0.386  12.382  21.801  0.00  0.00    +0.000 C 
BRANCH  22  23
ATOM     23  C   UNL     1       0.452  13.596  21.477  0.00  0.00    +0.000 C 
ATOM     24  O   UNL     1       1.574  13.791  21.919  0.00  0.00    +0.000 OA
BRANCH  23  25
ATOM     25  O   UNL     1      -0.166  14.484  20.661  0.00  0.00    +0.000 OA
ATOM     26  H   UNL     1      -0.570  15.228  21.148  0.00  0.00    +0.000 HD
ENDBRANCH  23  25
ENDBRANCH  22  23
ENDBRANCH  13  22
TORSDOF 4
ENDMDL
MODEL 6
REMARK VINA RESULT:      -7.8      3.677      7.973
REMARK  Name = 
REMARK  5 active torsions:
REMARK  status: ('A' for Active; 'I' for Inactive)
REMARK    1  A    between atoms: C_1  and  C_2
REMARK    2  A    between atoms: C_12  and  O_13
REMARK    3  A    between atoms: C_14  and  C_15
REMARK    4  A    between atoms: C_15  and  C_16
REMARK    5  A    between atoms: C_16  and  O_18
REMARK                            x       y       z     vdW  Elec       q    Type
REMARK                         _______ _______ _______ _____ _____    ______ ____
ROOT
ATOM      1  C   UNL     1       7.011   4.903  13.962  0.00  0.00    +0.000 C 
ATOM      2  C   UNL     1       6.121   4.935  15.172  0.00  0.00    +0.000 A 
ATOM      3  C   UNL     1       5.983   3.809  15.991  0.00  0.00    +0.000 A 
ATOM      4  C   UNL     1       5.153   3.833  17.120  0.00  0.00    +0.000 A 
ATOM      5  C   UNL     1       4.443   5.009  17.438  0.00  0.00    +0.000 A 
ATOM      6  C   UNL     1       4.596   6.115  16.607  0.00  0.00    +0.000 A 
ATOM      7  C   UNL     1       5.421   6.112  15.475  0.00  0.00    +0.000 A 
ATOM      8  N   UNL     1       3.810   7.115  17.121  0.00  0.00    +0.000 N 
ATOM      9  C   UNL     1       3.154   6.706  18.259  0.00  0.00    +0.000 A 
ATOM     10  C   UNL     1       2.253   7.395  19.115  0.00  0.00    +0.000 A 
ATOM     11  C   UNL     1       1.877   8.728  18.864  0.00  0.00    +0.000 A 
ATOM     12  C   UNL     1       0.994   9.370  19.732  0.00  0.00    +0.000 A 
ATOM     13  C   UNL     1       0.469   8.720  20.855  0.00  0.00    +0.000 A 
ATOM     14  C   UNL     1       0.835   7.379  21.082  0.00  0.00    +0.000 A 
ATOM     15  C   UNL     1       1.732   6.704  20.231  0.00  0.00    +0.000 A 
ATOM     16  C   UNL     1       2.111   5.374  20.459  0.00  0.00    +0.000 A 
ATOM     17  C   UNL     1       3.002   4.709  19.601  0.00  0.00    +0.000 A 
ATOM     18  C   UNL     1       3.535   5.381  18.483  0.00  0.00    +0.000 A 
ATOM     19  H   UNL     1       3.730   8.032  16.710  0.00  0.00    +0.000 HD
ENDROOT
BRANCH  12  20
ATOM     20  O   UNL     1       0.626  10.663  19.492  0.00  0.00    +0.000 OA
ATOM     21  H   UNL     1       1.269  11.071  18.888  0.00  0.00    +0.000 HD
ENDBRANCH  12  20
BRANCH  13  22
ATOM     22  C   UNL     1      -0.551   9.421  21.728  0.00  0.00    +0.000 C 
BRANCH  22  23
ATOM     23  C   UNL     1       0.013  10.140  22.931  0.00  0.00    +0.000 C 
ATOM     24  O   UNL     1       0.590   9.583  23.853  0.00  0.00    +0.000 OA
BRANCH  23  25
ATOM     25  O   UNL     1      -0.203  11.477  22.919  0.00  0.00    +0.000 OA
ATOM     26  H   UNL     1       0.618  11.992  22.794  0.00  0.00    +0.000 HD
ENDBRANCH  23  25
ENDBRANCH  22  23
ENDBRANCH  13  22
TORSDOF 4
ENDMDL
MODEL 7
REMARK VINA RESULT:      -7.8      1.464      2.643
REMARK  Name = 
REMARK  5 active torsions:
REMARK  status: ('A' for Active; 'I' for Inactive)
REMARK    1  A    between atoms: C_1  and  C_2
REMARK    2  A    between atoms: C_12  and  O_13
REMARK    3  A    between atoms: C_14  and  C_15
REMARK    4  A    between atoms: C_15  and  C_16
REMARK    5  A    between atoms: C_16  and  O_18
REMARK                            x       y       z     vdW  Elec       q    Type
REMARK                         _______ _______ _______ _____ _____    ______ ____
ROOT
ATOM      1  C   UNL     1      -0.980  13.490  19.539  0.00  0.00    +0.000 C 
ATOM      2  C   UNL     1      -0.405  12.111  19.695  0.00  0.00    +0.000 A 
ATOM      3  C   UNL     1      -0.754  11.309  20.787  0.00  0.00    +0.000 A 
ATOM      4  C   UNL     1      -0.218  10.022  20.939  0.00  0.00    +0.000 A 
ATOM      5  C   UNL     1       0.688   9.526  19.979  0.00  0.00    +0.000 A 
ATOM      6  C   UNL     1       1.020  10.345  18.904  0.00  0.00    +0.000 A 
ATOM      7  C   UNL     1       0.495  11.632  18.732  0.00  0.00    +0.000 A 
ATOM      8  N   UNL     1       1.908   9.645  18.127  0.00  0.00    +0.000 N 
ATOM      9  C   UNL     1       2.164   8.399  18.651  0.00  0.00    +0.000 A 
ATOM     10  C   UNL     1       3.002   7.348  18.190  0.00  0.00    +0.000 A 
ATOM     11  C   UNL     1       3.762   7.477  17.013  0.00  0.00    +0.000 A 
ATOM     12  C   UNL     1       4.567   6.419  16.593  0.00  0.00    +0.000 A 
ATOM     13  C   UNL     1       4.640   5.223  17.315  0.00  0.00    +0.000 A 
ATOM     14  C   UNL     1       3.892   5.114  18.504  0.00  0.00    +0.000 A 
ATOM     15  C   UNL     1       3.061   6.159  18.952  0.00  0.00    +0.000 A 
ATOM     16  C   UNL     1       2.304   6.053  20.127  0.00  0.00    +0.000 A 
ATOM     17  C   UNL     1       1.482   7.103  20.566  0.00  0.00    +0.000 A 
ATOM     18  C   UNL     1       1.406   8.297  19.820  0.00  0.00    +0.000 A 
ATOM     19  H   UNL     1       2.316  10.007  17.278  0.00  0.00    +0.000 HD
ENDROOT
BRANCH  12  20
ATOM     20  O   UNL     1       5.308   6.541  15.451  0.00  0.00    +0.000 OA
ATOM     21  H   UNL     1       4.912   7.226  14.886  0.00  0.00    +0.000 HD
ENDBRANCH  12  20
BRANCH  13  22
ATOM     22  C   UNL     1       5.589   4.128  16.874  0.00  0.00    +0.000 C 
BRANCH  22  23
ATOM     23  C   UNL     1       7.054   4.410  17.105  0.00  0.00    +0.000 C 
ATOM     24  O   UNL     1       7.842   4.706  16.219  0.00  0.00    +0.000 OA
BRANCH  23  25
ATOM     25  O   UNL     1       7.439   4.278  18.397  0.00  0.00    +0.000 OA
ATOM     26  H   UNL     1       8.336   4.629  18.563  0.00  0.00    +0.000 HD
ENDBRANCH  23  25
ENDBRANCH  22  23
ENDBRANCH  13  22
TORSDOF 4
ENDMDL
MODEL 8
REMARK VINA RESULT:      -7.7      1.273      1.528
REMARK  Name = 
REMARK  5 active torsions:
REMARK  status: ('A' for Active; 'I' for Inactive)
REMARK    1  A    between atoms: C_1  and  C_2
REMARK    2  A    between atoms: C_12  and  O_13
REMARK    3  A    between atoms: C_14  and  C_15
REMARK    4  A    between atoms: C_15  and  C_16
REMARK    5  A    between atoms: C_16  and  O_18
REMARK                            x       y       z     vdW  Elec       q    Type
REMARK                         _______ _______ _______ _____ _____    ______ ____
ROOT
ATOM      1  C   UNL     1      -1.799  12.176  23.369  0.00  0.00    +0.000 C 
ATOM      2  C   UNL     1      -1.003  11.526  22.273  0.00  0.00    +0.000 A 
ATOM      3  C   UNL     1      -0.716  12.216  21.091  0.00  0.00    +0.000 A 
ATOM      4  C   UNL     1       0.026  11.615  20.064  0.00  0.00    +0.000 A 
ATOM      5  C   UNL     1       0.489  10.293  20.222  0.00  0.00    +0.000 A 
ATOM      6  C   UNL     1       0.189   9.628  21.407  0.00  0.00    +0.000 A 
ATOM      7  C   UNL     1      -0.548  10.211  22.446  0.00  0.00    +0.000 A 
ATOM      8  N   UNL     1       0.741   8.375  21.315  0.00  0.00    +0.000 N 
ATOM      9  C   UNL     1       1.394   8.199  20.117  0.00  0.00    +0.000 A 
ATOM     10  C   UNL     1       2.103   7.083  19.597  0.00  0.00    +0.000 A 
ATOM     11  C   UNL     1       2.226   5.886  20.327  0.00  0.00    +0.000 A 
ATOM     12  C   UNL     1       2.935   4.816  19.783  0.00  0.00    +0.000 A 
ATOM     13  C   UNL     1       3.533   4.900  18.520  0.00  0.00    +0.000 A 
ATOM     14  C   UNL     1       3.383   6.095  17.790  0.00  0.00    +0.000 A 
ATOM     15  C   UNL     1       2.682   7.199  18.314  0.00  0.00    +0.000 A 
ATOM     16  C   UNL     1       2.541   8.395  17.598  0.00  0.00    +0.000 A 
ATOM     17  C   UNL     1       1.836   9.487  18.128  0.00  0.00    +0.000 A 
ATOM     18  C   UNL     1       1.252   9.394  19.408  0.00  0.00    +0.000 A 
ATOM     19  H   UNL     1       0.672   7.677  22.040  0.00  0.00    +0.000 HD
ENDROOT
BRANCH  12  20
ATOM     20  O   UNL     1       3.056   3.652  20.488  0.00  0.00    +0.000 OA
ATOM     21  H   UNL     1       3.346   3.856  21.393  0.00  0.00    +0.000 HD
ENDBRANCH  12  20
BRANCH  13  22
ATOM     22  C   UNL     1       4.223   3.690  17.926  0.00  0.00    +0.000 C 
BRANCH  22  23
ATOM     23  C   UNL     1       5.305   3.994  16.918  0.00  0.00    +0.000 C 
ATOM     24  O   UNL     1       5.110   4.106  15.717  0.00  0.00    +0.000 OA
BRANCH  23  25
ATOM     25  O   UNL     1       6.541   4.106  17.460  0.00  0.00    +0.000 OA
ATOM     26  H   UNL     1       7.070   4.821  17.054  0.00  0.00    +0.000 HD
ENDBRANCH  23  25
ENDBRANCH  22  23
ENDBRANCH  13  22
TORSDOF 4
ENDMDL
MODEL 9
REMARK VINA RESULT:      -7.6      3.870      8.064
REMARK  Name = 
REMARK  5 active torsions:
REMARK  status: ('A' for Active; 'I' for Inactive)
REMARK    1  A    between atoms: C_1  and  C_2
REMARK    2  A    between atoms: C_12  and  O_13
REMARK    3  A    between atoms: C_14  and  C_15
REMARK    4  A    between atoms: C_15  and  C_16
REMARK    5  A    between atoms: C_16  and  O_18
REMARK                            x       y       z     vdW  Elec       q    Type
REMARK                         _______ _______ _______ _____ _____    ______ ____
ROOT
ATOM      1  C   UNL     1       6.796   4.368  14.543  0.00  0.00    +0.000 C 
ATOM      2  C   UNL     1       5.884   4.752  15.673  0.00  0.00    +0.000 A 
ATOM      3  C   UNL     1       5.656   3.875  16.739  0.00  0.00    +0.000 A 
ATOM      4  C   UNL     1       4.805   4.227  17.796  0.00  0.00    +0.000 A 
ATOM      5  C   UNL     1       4.167   5.485  17.787  0.00  0.00    +0.000 A 
ATOM      6  C   UNL     1       4.409   6.338  16.715  0.00  0.00    +0.000 A 
ATOM      7  C   UNL     1       5.257   6.006  15.650  0.00  0.00    +0.000 A 
ATOM      8  N   UNL     1       3.680   7.479  16.937  0.00  0.00    +0.000 N 
ATOM      9  C   UNL     1       2.974   7.404  18.115  0.00  0.00    +0.000 A 
ATOM     10  C   UNL     1       2.102   8.336  18.740  0.00  0.00    +0.000 A 
ATOM     11  C   UNL     1       1.820   9.584  18.155  0.00  0.00    +0.000 A 
ATOM     12  C   UNL     1       0.963  10.472  18.804  0.00  0.00    +0.000 A 
ATOM     13  C   UNL     1       0.372  10.154  20.032  0.00  0.00    +0.000 A 
ATOM     14  C   UNL     1       0.645   8.892  20.597  0.00  0.00    +0.000 A 
ATOM     15  C   UNL     1       1.514   7.975  19.973  0.00  0.00    +0.000 A 
ATOM     16  C   UNL     1       1.799   6.724  20.535  0.00  0.00    +0.000 A 
ATOM     17  C   UNL     1       2.663   5.816  19.902  0.00  0.00    +0.000 A 
ATOM     18  C   UNL     1       3.263   6.157  18.673  0.00  0.00    +0.000 A 
ATOM     19  H   UNL     1       3.669   8.268  16.309  0.00  0.00    +0.000 HD
ENDROOT
BRANCH  12  20
ATOM     20  O   UNL     1       0.685  11.684  18.239  0.00  0.00    +0.000 OA
ATOM     21  H   UNL     1       1.510  12.190  18.147  0.00  0.00    +0.000 HD
ENDBRANCH  12  20
BRANCH  13  22
ATOM     22  C   UNL     1      -0.618  11.108  20.667  0.00  0.00    +0.000 C 
BRANCH  22  23
ATOM     23  C   UNL     1      -0.210  11.664  22.010  0.00  0.00    +0.000 C 
ATOM     24  O   UNL     1      -0.393  11.090  23.073  0.00  0.00    +0.000 OA
BRANCH  23  25
ATOM     25  O   UNL     1       0.363  12.889  21.942  0.00  0.00    +0.000 OA
ATOM     26  H   UNL     1       0.096  13.474  22.678  0.00  0.00    +0.000 HD
ENDBRANCH  23  25
ENDBRANCH  22  23
ENDBRANCH  13  22
TORSDOF 4
ENDMDL
