MODEL 1
REMARK VINA RESULT:      -8.5      0.000      0.000
REMARK  Name = 
REMARK  2 active torsions:
REMARK  status: ('A' for Active; 'I' for Inactive)
REMARK    1  A    between atoms: C_1  and  C_2
REMARK    2  A    between atoms: C_2  and  C_3
REMARK                            x       y       z     vdW  Elec       q    Type
REMARK                         _______ _______ _______ _____ _____    ______ ____
ROOT
ATOM      1  C   UNL     1       4.389   5.833  19.194  0.00  0.00    +0.000 C 
ATOM      2  C   UNL     1       2.820   5.892  18.949  0.00  0.00    +0.000 C 
ATOM      3  O   UNL     1       2.626   5.363  17.621  0.00  0.00    +0.000 OA
ATOM      4  C   UNL     1       2.258   4.046  17.662  0.00  0.00    +0.000 C 
ATOM      5  O   UNL     1       2.212   3.272  16.728  0.00  0.00    +0.000 OA
ATOM      6  C   UNL     1       1.956   3.742  19.056  0.00  0.00    +0.000 A 
ATOM      7  C   UNL     1       1.553   2.528  19.589  0.00  0.00    +0.000 A 
ATOM      8  C   UNL     1       1.491   2.421  20.978  0.00  0.00    +0.000 A 
ATOM      9  C   UNL     1       1.880   3.501  21.788  0.00  0.00    +0.000 A 
ATOM     10  C   UNL     1       2.281   4.716  21.219  0.00  0.00    +0.000 A 
ATOM     11  C   UNL     1       2.269   4.842  19.837  0.00  0.00    +0.000 A 
ENDROOT
BRANCH   2  12
ATOM     12  C   UNL     1       2.285   7.346  19.028  0.00  0.00    +0.000 A 
ATOM     13  C   UNL     1       2.580   8.086  17.886  0.00  0.00    +0.000 A 
ATOM     14  C   UNL     1       1.751   9.100  17.489  0.00  0.00    +0.000 A 
ATOM     15  C   UNL     1       1.523   9.985  18.508  0.00  0.00    +0.000 A 
ATOM     16  C   UNL     1       1.325   9.475  19.781  0.00  0.00    +0.000 A 
ATOM     17  C   UNL     1       0.843  10.397  20.719  0.00  0.00    +0.000 A 
ATOM     18  C   UNL     1       0.330   9.959  21.920  0.00  0.00    +0.000 A 
ATOM     19  C   UNL     1       0.330   8.602  22.186  0.00  0.00    +0.000 A 
ATOM     20  C   UNL     1       0.957   7.681  21.301  0.00  0.00    +0.000 A 
ATOM     21  C   UNL     1       1.533   8.080  20.050  0.00  0.00    +0.000 A 
ENDBRANCH   2  12
TORSDOF 1
ENDMDL
MODEL 2
REMARK VINA RESULT:      -8.2      1.551      2.172
REMARK  Name = 
REMARK  2 active torsions:
REMARK  status: ('A' for Active; 'I' for Inactive)
REMARK    1  A    between atoms: C_1  and  C_2
REMARK    2  A    between atoms: C_2  and  C_3
REMARK                            x       y       z     vdW  Elec       q    Type
REMARK                         _______ _______ _______ _____ _____    ______ ____
ROOT
ATOM      1  C   UNL     1       2.515   5.237  21.214  0.00  0.00    +0.000 C 
ATOM      2  C   UNL     1       2.915   5.704  19.748  0.00  0.00    +0.000 C 
ATOM      3  O   UNL     1       4.357   5.730  19.742  0.00  0.00    +0.000 OA
ATOM      4  C   UNL     1       4.869   4.591  19.184  0.00  0.00    +0.000 C 
ATOM      5  O   UNL     1       6.027   4.223  19.209  0.00  0.00    +0.000 OA
ATOM      6  C   UNL     1       3.749   3.884  18.576  0.00  0.00    +0.000 A 
ATOM      7  C   UNL     1       3.776   2.673  17.904  0.00  0.00    +0.000 A 
ATOM      8  C   UNL     1       2.553   2.099  17.557  0.00  0.00    +0.000 A 
ATOM      9  C   UNL     1       1.350   2.717  17.934  0.00  0.00    +0.000 A 
ATOM     10  C   UNL     1       1.355   3.943  18.612  0.00  0.00    +0.000 A 
ATOM     11  C   UNL     1       2.574   4.548  18.888  0.00  0.00    +0.000 A 
ENDROOT
BRANCH   2  12
ATOM     12  C   UNL     1       2.354   7.114  19.426  0.00  0.00    +0.000 A 
ATOM     13  C   UNL     1       2.734   7.565  18.165  0.00  0.00    +0.000 A 
ATOM     14  C   UNL     1       1.926   8.422  17.467  0.00  0.00    +0.000 A 
ATOM     15  C   UNL     1       1.598   9.519  18.217  0.00  0.00    +0.000 A 
ATOM     16  C   UNL     1       1.300   9.326  19.556  0.00  0.00    +0.000 A 
ATOM     17  C   UNL     1       0.726  10.431  20.199  0.00  0.00    +0.000 A 
ATOM     18  C   UNL     1       0.119  10.280  21.426  0.00  0.00    +0.000 A 
ATOM     19  C   UNL     1       0.117   9.029  22.016  0.00  0.00    +0.000 A 
ATOM     20  C   UNL     1       0.832   7.943  21.435  0.00  0.00    +0.000 A 
ATOM     21  C   UNL     1       1.506   8.047  20.175  0.00  0.00    +0.000 A 
ENDBRANCH   2  12
TORSDOF 1
ENDMDL
MODEL 3
REMARK VINA RESULT:      -7.9      0.943      1.139
REMARK  Name = 
REMARK  2 active torsions:
REMARK  status: ('A' for Active; 'I' for Inactive)
REMARK    1  A    between atoms: C_1  and  C_2
REMARK    2  A    between atoms: C_2  and  C_3
REMARK                            x       y       z     vdW  Elec       q    Type
REMARK                         _______ _______ _______ _____ _____    ______ ____
ROOT
ATOM      1  C   UNL     1       4.084   5.770  20.027  0.00  0.00    +0.000 C 
ATOM      2  C   UNL     1       2.996   5.976  18.887  0.00  0.00    +0.000 C 
ATOM      3  O   UNL     1       3.712   5.800  17.647  0.00  0.00    +0.000 OA
ATOM      4  C   UNL     1       3.541   4.537  17.152  0.00  0.00    +0.000 C 
ATOM      5  O   UNL     1       4.161   4.020  16.244  0.00  0.00    +0.000 OA
ATOM      6  C   UNL     1       2.487   3.918  17.946  0.00  0.00    +0.000 A 
ATOM      7  C   UNL     1       1.977   2.635  17.823  0.00  0.00    +0.000 A 
ATOM      8  C   UNL     1       1.092   2.195  18.806  0.00  0.00    +0.000 A 
ATOM      9  C   UNL     1       0.785   3.019  19.901  0.00  0.00    +0.000 A 
ATOM     10  C   UNL     1       1.315   4.312  19.996  0.00  0.00    +0.000 A 
ATOM     11  C   UNL     1       2.136   4.774  18.977  0.00  0.00    +0.000 A 
ENDROOT
BRANCH   2  12
ATOM     12  C   UNL     1       2.370   7.394  18.946  0.00  0.00    +0.000 A 
ATOM     13  C   UNL     1       2.586   8.122  17.779  0.00  0.00    +0.000 A 
ATOM     14  C   UNL     1       1.681   9.070  17.381  0.00  0.00    +0.000 A 
ATOM     15  C   UNL     1       1.424   9.965  18.385  0.00  0.00    +0.000 A 
ATOM     16  C   UNL     1       1.294   9.475  19.675  0.00  0.00    +0.000 A 
ATOM     17  C   UNL     1       0.779  10.389  20.604  0.00  0.00    +0.000 A 
ATOM     18  C   UNL     1       0.327   9.950  21.829  0.00  0.00    +0.000 A 
ATOM     19  C   UNL     1       0.423   8.603  22.128  0.00  0.00    +0.000 A 
ATOM     20  C   UNL     1       1.085   7.701  21.247  0.00  0.00    +0.000 A 
ATOM     21  C   UNL     1       1.599   8.104  19.972  0.00  0.00    +0.000 A 
ENDBRANCH   2  12
TORSDOF 1
ENDMDL
MODEL 4
REMARK VINA RESULT:      -7.8      2.781      5.783
REMARK  Name = 
REMARK  2 active torsions:
REMARK  status: ('A' for Active; 'I' for Inactive)
REMARK    1  A    between atoms: C_1  and  C_2
REMARK    2  A    between atoms: C_2  and  C_3
REMARK                            x       y       z     vdW  Elec       q    Type
REMARK                         _______ _______ _______ _____ _____    ______ ____
ROOT
ATOM      1  C   UNL     1       2.332   6.379  17.324  0.00  0.00    +0.000 C 
ATOM      2  C   UNL     1       3.204   5.628  18.421  0.00  0.00    +0.000 C 
ATOM      3  O   UNL     1       3.088   6.434  19.611  0.00  0.00    +0.000 OA
ATOM      4  C   UNL     1       2.145   5.927  20.461  0.00  0.00    +0.000 C 
ATOM      5  O   UNL     1       1.677   6.473  21.441  0.00  0.00    +0.000 OA
ATOM      6  C   UNL     1       1.786   4.611  19.949  0.00  0.00    +0.000 A 
ATOM      7  C   UNL     1       0.859   3.722  20.470  0.00  0.00    +0.000 A 
ATOM      8  C   UNL     1       0.551   2.592  19.714  0.00  0.00    +0.000 A 
ATOM      9  C   UNL     1       1.130   2.409  18.448  0.00  0.00    +0.000 A 
ATOM     10  C   UNL     1       2.066   3.324  17.948  0.00  0.00    +0.000 A 
ATOM     11  C   UNL     1       2.426   4.408  18.737  0.00  0.00    +0.000 A 
ENDROOT
BRANCH   2  12
ATOM     12  C   UNL     1       4.691   5.521  17.990  0.00  0.00    +0.000 A 
ATOM     13  C   UNL     1       5.567   5.930  18.991  0.00  0.00    +0.000 A 
ATOM     14  C   UNL     1       6.821   5.387  19.074  0.00  0.00    +0.000 A 
ATOM     15  C   UNL     1       7.484   5.481  17.880  0.00  0.00    +0.000 A 
ATOM     16  C   UNL     1       6.770   5.236  16.719  0.00  0.00    +0.000 A 
ATOM     17  C   UNL     1       7.550   5.091  15.564  0.00  0.00    +0.000 A 
ATOM     18  C   UNL     1       7.000   4.559  14.419  0.00  0.00    +0.000 A 
ATOM     19  C   UNL     1       5.664   4.203  14.428  0.00  0.00    +0.000 A 
ATOM     20  C   UNL     1       4.836   4.492  15.549  0.00  0.00    +0.000 A 
ATOM     21  C   UNL     1       5.344   5.069  16.758  0.00  0.00    +0.000 A 
ENDBRANCH   2  12
TORSDOF 1
ENDMDL
MODEL 5
REMARK VINA RESULT:      -7.8      2.763      5.777
REMARK  Name = 
REMARK  2 active torsions:
REMARK  status: ('A' for Active; 'I' for Inactive)
REMARK    1  A    between atoms: C_1  and  C_2
REMARK    2  A    between atoms: C_2  and  C_3
REMARK                            x       y       z     vdW  Elec       q    Type
REMARK                         _______ _______ _______ _____ _____    ______ ____
ROOT
ATOM      1  C   UNL     1       2.288   4.700  17.383  0.00  0.00    +0.000 C 
ATOM      2  C   UNL     1       3.314   4.991  18.561  0.00  0.00    +0.000 C 
ATOM      3  O   UNL     1       2.877   6.235  19.143  0.00  0.00    +0.000 OA
ATOM      4  C   UNL     1       2.127   6.019  20.266  0.00  0.00    +0.000 C 
ATOM      5  O   UNL     1       1.457   6.836  20.865  0.00  0.00    +0.000 OA
ATOM      6  C   UNL     1       2.263   4.605  20.592  0.00  0.00    +0.000 A 
ATOM      7  C   UNL     1       1.675   3.917  21.641  0.00  0.00    +0.000 A 
ATOM      8  C   UNL     1       1.806   2.529  21.658  0.00  0.00    +0.000 A 
ATOM      9  C   UNL     1       2.469   1.869  20.610  0.00  0.00    +0.000 A 
ATOM     10  C   UNL     1       3.056   2.593  19.564  0.00  0.00    +0.000 A 
ATOM     11  C   UNL     1       2.988   3.979  19.591  0.00  0.00    +0.000 A 
ENDROOT
BRANCH   2  12
ATOM     12  C   UNL     1       4.766   5.130  18.030  0.00  0.00    +0.000 A 
ATOM     13  C   UNL     1       5.638   5.638  18.989  0.00  0.00    +0.000 A 
ATOM     14  C   UNL     1       6.963   5.294  18.967  0.00  0.00    +0.000 A 
ATOM     15  C   UNL     1       7.518   5.528  17.737  0.00  0.00    +0.000 A 
ATOM     16  C   UNL     1       6.769   5.213  16.615  0.00  0.00    +0.000 A 
ATOM     17  C   UNL     1       7.478   5.229  15.407  0.00  0.00    +0.000 A 
ATOM     18  C   UNL     1       6.936   4.655  14.278  0.00  0.00    +0.000 A 
ATOM     19  C   UNL     1       5.674   4.096  14.359  0.00  0.00    +0.000 A 
ATOM     20  C   UNL     1       4.893   4.216  15.543  0.00  0.00    +0.000 A 
ATOM     21  C   UNL     1       5.391   4.826  16.740  0.00  0.00    +0.000 A 
ENDBRANCH   2  12
TORSDOF 1
ENDMDL
MODEL 6
REMARK VINA RESULT:      -7.7      3.010      5.647
REMARK  Name = 
REMARK  2 active torsions:
REMARK  status: ('A' for Active; 'I' for Inactive)
REMARK    1  A    between atoms: C_1  and  C_2
REMARK    2  A    between atoms: C_2  and  C_3
REMARK                            x       y       z     vdW  Elec       q    Type
REMARK                         _______ _______ _______ _____ _____    ______ ____
ROOT
ATOM      1  C   UNL     1       6.443   4.255  18.917  0.00  0.00    +0.000 C 
ATOM      2  C   UNL     1       5.486   5.251  18.131  0.00  0.00    +0.000 C 
ATOM      3  O   UNL     1       6.132   6.538  18.214  0.00  0.00    +0.000 OA
ATOM      4  C   UNL     1       6.839   6.811  17.076  0.00  0.00    +0.000 C 
ATOM      5  O   UNL     1       7.641   7.709  16.914  0.00  0.00    +0.000 OA
ATOM      6  C   UNL     1       6.465   5.796  16.100  0.00  0.00    +0.000 A 
ATOM      7  C   UNL     1       6.933   5.655  14.803  0.00  0.00    +0.000 A 
ATOM      8  C   UNL     1       6.567   4.504  14.106  0.00  0.00    +0.000 A 
ATOM      9  C   UNL     1       5.797   3.512  14.734  0.00  0.00    +0.000 A 
ATOM     10  C   UNL     1       5.336   3.684  16.046  0.00  0.00    +0.000 A 
ATOM     11  C   UNL     1       5.640   4.865  16.710  0.00  0.00    +0.000 A 
ENDROOT
BRANCH   2  12
ATOM     12  C   UNL     1       4.077   5.317  18.778  0.00  0.00    +0.000 A 
ATOM     13  C   UNL     1       3.766   6.590  19.249  0.00  0.00    +0.000 A 
ATOM     14  C   UNL     1       2.464   7.011  19.288  0.00  0.00    +0.000 A 
ATOM     15  C   UNL     1       1.670   6.117  19.955  0.00  0.00    +0.000 A 
ATOM     16  C   UNL     1       1.887   4.766  19.736  0.00  0.00    +0.000 A 
ATOM     17  C   UNL     1       0.889   3.919  20.236  0.00  0.00    +0.000 A 
ATOM     18  C   UNL     1       0.832   2.603  19.833  0.00  0.00    +0.000 A 
ATOM     19  C   UNL     1       1.793   2.136  18.956  0.00  0.00    +0.000 A 
ATOM     20  C   UNL     1       2.893   2.952  18.569  0.00  0.00    +0.000 A 
ATOM     21  C   UNL     1       3.022   4.320  18.978  0.00  0.00    +0.000 A 
ENDBRANCH   2  12
TORSDOF 1
ENDMDL
MODEL 7
REMARK VINA RESULT:      -7.6      3.902      5.914
REMARK  Name = 
REMARK  2 active torsions:
REMARK  status: ('A' for Active; 'I' for Inactive)
REMARK    1  A    between atoms: C_1  and  C_2
REMARK    2  A    between atoms: C_2  and  C_3
REMARK                            x       y       z     vdW  Elec       q    Type
REMARK                         _______ _______ _______ _____ _____    ______ ____
ROOT
ATOM      1  C   UNL     1       3.751   1.710  17.550  0.00  0.00    +0.000 C 
ATOM      2  C   UNL     1       3.641   3.247  17.940  0.00  0.00    +0.000 C 
ATOM      3  O   UNL     1       2.545   3.758  17.154  0.00  0.00    +0.000 OA
ATOM      4  C   UNL     1       1.392   3.809  17.888  0.00  0.00    +0.000 C 
ATOM      5  O   UNL     1       0.269   4.002  17.469  0.00  0.00    +0.000 OA
ATOM      6  C   UNL     1       1.770   3.559  19.274  0.00  0.00    +0.000 A 
ATOM      7  C   UNL     1       0.938   3.500  20.381  0.00  0.00    +0.000 A 
ATOM      8  C   UNL     1       1.495   3.072  21.585  0.00  0.00    +0.000 A 
ATOM      9  C   UNL     1       2.840   2.669  21.638  0.00  0.00    +0.000 A 
ATOM     10  C   UNL     1       3.656   2.742  20.502  0.00  0.00    +0.000 A 
ATOM     11  C   UNL     1       3.117   3.240  19.324  0.00  0.00    +0.000 A 
ENDROOT
BRANCH   2  12
ATOM     12  C   UNL     1       4.946   4.015  17.599  0.00  0.00    +0.000 A 
ATOM     13  C   UNL     1       5.491   4.658  18.707  0.00  0.00    +0.000 A 
ATOM     14  C   UNL     1       6.844   4.856  18.793  0.00  0.00    +0.000 A 
ATOM     15  C   UNL     1       7.328   5.478  17.673  0.00  0.00    +0.000 A 
ATOM     16  C   UNL     1       6.828   5.084  16.443  0.00  0.00    +0.000 A 
ATOM     17  C   UNL     1       7.539   5.563  15.334  0.00  0.00    +0.000 A 
ATOM     18  C   UNL     1       7.332   5.015  14.088  0.00  0.00    +0.000 A 
ATOM     19  C   UNL     1       6.391   4.010  13.954  0.00  0.00    +0.000 A 
ATOM     20  C   UNL     1       5.562   3.630  15.047  0.00  0.00    +0.000 A 
ATOM     21  C   UNL     1       5.712   4.185  16.360  0.00  0.00    +0.000 A 
ENDBRANCH   2  12
TORSDOF 1
ENDMDL
MODEL 8
REMARK VINA RESULT:      -7.6      1.957      4.004
REMARK  Name = 
REMARK  2 active torsions:
REMARK  status: ('A' for Active; 'I' for Inactive)
REMARK    1  A    between atoms: C_1  and  C_2
REMARK    2  A    between atoms: C_2  and  C_3
REMARK                            x       y       z     vdW  Elec       q    Type
REMARK                         _______ _______ _______ _____ _____    ______ ____
ROOT
ATOM      1  C   UNL     1       2.182   4.504  17.559  0.00  0.00    +0.000 C 
ATOM      2  C   UNL     1       3.100   5.244  18.625  0.00  0.00    +0.000 C 
ATOM      3  O   UNL     1       3.438   4.234  19.597  0.00  0.00    +0.000 OA
ATOM      4  C   UNL     1       4.677   3.709  19.355  0.00  0.00    +0.000 C 
ATOM      5  O   UNL     1       5.162   2.719  19.864  0.00  0.00    +0.000 OA
ATOM      6  C   UNL     1       5.296   4.554  18.342  0.00  0.00    +0.000 A 
ATOM      7  C   UNL     1       6.549   4.409  17.768  0.00  0.00    +0.000 A 
ATOM      8  C   UNL     1       6.866   5.234  16.690  0.00  0.00    +0.000 A 
ATOM      9  C   UNL     1       5.913   6.134  16.185  0.00  0.00    +0.000 A 
ATOM     10  C   UNL     1       4.655   6.260  16.788  0.00  0.00    +0.000 A 
ATOM     11  C   UNL     1       4.372   5.490  17.908  0.00  0.00    +0.000 A 
ENDROOT
BRANCH   2  12
ATOM     12  C   UNL     1       2.346   6.415  19.311  0.00  0.00    +0.000 A 
ATOM     13  C   UNL     1       1.776   6.043  20.525  0.00  0.00    +0.000 A 
ATOM     14  C   UNL     1       1.614   6.968  21.522  0.00  0.00    +0.000 A 
ATOM     15  C   UNL     1       0.945   8.074  21.072  0.00  0.00    +0.000 A 
ATOM     16  C   UNL     1       1.262   8.558  19.812  0.00  0.00    +0.000 A 
ATOM     17  C   UNL     1       0.742   9.825  19.517  0.00  0.00    +0.000 A 
ATOM     18  C   UNL     1       1.219  10.536  18.438  0.00  0.00    +0.000 A 
ATOM     19  C   UNL     1       2.193   9.960  17.643  0.00  0.00    +0.000 A 
ATOM     20  C   UNL     1       2.610   8.615  17.852  0.00  0.00    +0.000 A 
ATOM     21  C   UNL     1       2.130   7.817  18.941  0.00  0.00    +0.000 A 
ENDBRANCH   2  12
TORSDOF 1
ENDMDL
MODEL 9
REMARK VINA RESULT:      -7.5      4.257      6.454
REMARK  Name = 
REMARK  2 active torsions:
REMARK  status: ('A' for Active; 'I' for Inactive)
REMARK    1  A    between atoms: C_1  and  C_2
REMARK    2  A    between atoms: C_2  and  C_3
REMARK                            x       y       z     vdW  Elec       q    Type
REMARK                         _______ _______ _______ _____ _____    ______ ____
ROOT
ATOM      1  C   UNL     1       0.179  12.310  18.980  0.00  0.00    +0.000 C 
ATOM      2  C   UNL     1      -0.558  10.901  18.985  0.00  0.00    +0.000 C 
ATOM      3  O   UNL     1       0.347  10.002  18.313  0.00  0.00    +0.000 OA
ATOM      4  C   UNL     1       1.078   9.273  19.210  0.00  0.00    +0.000 C 
ATOM      5  O   UNL     1       2.048   8.584  18.972  0.00  0.00    +0.000 OA
ATOM      6  C   UNL     1       0.482   9.508  20.520  0.00  0.00    +0.000 A 
ATOM      7  C   UNL     1       0.888   8.992  21.740  0.00  0.00    +0.000 A 
ATOM      8  C   UNL     1       0.277   9.492  22.889  0.00  0.00    +0.000 A 
ATOM      9  C   UNL     1      -0.675  10.520  22.792  0.00  0.00    +0.000 A 
ATOM     10  C   UNL     1      -1.068  11.019  21.544  0.00  0.00    +0.000 A 
ATOM     11  C   UNL     1      -0.512  10.466  20.399  0.00  0.00    +0.000 A 
ENDROOT
BRANCH   2  12
ATOM     12  C   UNL     1      -1.910  10.965  18.227  0.00  0.00    +0.000 A 
ATOM     13  C   UNL     1      -1.870  10.295  17.007  0.00  0.00    +0.000 A 
ATOM     14  C   UNL     1      -3.005   9.726  16.495  0.00  0.00    +0.000 A 
ATOM     15  C   UNL     1      -4.033  10.628  16.438  0.00  0.00    +0.000 A 
ATOM     16  C   UNL     1      -4.193  11.499  17.504  0.00  0.00    +0.000 A 
ATOM     17  C   UNL     1      -5.400  12.211  17.509  0.00  0.00    +0.000 A 
ATOM     18  C   UNL     1      -5.808  12.873  18.645  0.00  0.00    +0.000 A 
ATOM     19  C   UNL     1      -4.990  12.844  19.760  0.00  0.00    +0.000 A 
ATOM     20  C   UNL     1      -3.697  12.252  19.706  0.00  0.00    +0.000 A 
ATOM     21  C   UNL     1      -3.206  11.572  18.544  0.00  0.00    +0.000 A 
ENDBRANCH   2  12
TORSDOF 1
ENDMDL
