MODEL 1
REMARK VINA RESULT:      -7.9      0.000      0.000
REMARK  Name = 
REMARK  13 active torsions:
REMARK  status: ('A' for Active; 'I' for Inactive)
REMARK    1  A    between atoms: C_4  and  O_5
REMARK    2  A    between atoms: N_9  and  C_10
REMARK    3  A    between atoms: C_13  and  C_14
REMARK    4  A    between atoms: C_14  and  O_15
REMARK    5  A    between atoms: O_15  and  P_16
REMARK    6  A    between atoms: P_16  and  O_18
REMARK    7  A    between atoms: P_16  and  O_19
REMARK    8  A    between atoms: O_19  and  P_20
REMARK    9  A    between atoms: P_20  and  O_22
REMARK   10  A    between atoms: P_20  and  O_23
REMARK   11  A    between atoms: O_23  and  P_24
REMARK   12  A    between atoms: P_24  and  O_26
REMARK   13  A    between atoms: P_24  and  O_27
REMARK                            x       y       z     vdW  Elec       q    Type
REMARK                         _______ _______ _______ _____ _____    ______ ____
ROOT
ATOM      1  C   UNL     1       2.443   6.882  19.609  0.00  0.00    +0.000 C 
ATOM      2  C   UNL     1       1.670   5.954  20.499  0.00  0.00    +0.000 C 
ATOM      3  C   UNL     1       1.923   4.656  20.194  0.00  0.00    +0.000 C 
ATOM      4  C   UNL     1       2.875   4.505  19.024  0.00  0.00    +0.000 C 
ATOM      5  C   UNL     1       2.688   5.938  18.409  0.00  0.00    +0.000 C 
ENDROOT
BRANCH   1  13
ATOM      6  N   UNL     1      -0.056   9.306  23.498  0.00  0.00    +0.000 N 
ATOM      7  C   UNL     1       0.181   9.531  22.159  0.00  0.00    +0.000 A 
ATOM      8  N   UNL     1      -0.432  10.591  21.605  0.00  0.00    +0.000 NA
ATOM      9  C   UNL     1      -0.216  10.824  20.297  0.00  0.00    +0.000 A 
ATOM     10  C   UNL     1       0.601   9.984  19.539  0.00  0.00    +0.000 A 
ATOM     11  N   UNL     1       1.006   9.934  18.224  0.00  0.00    +0.000 NA
ATOM     12  C   UNL     1       1.758   8.856  18.125  0.00  0.00    +0.000 A 
ATOM     13  N   UNL     1       1.862   8.183  19.319  0.00  0.00    +0.000 N 
ATOM     14  C   UNL     1       1.142   8.917  20.239  0.00  0.00    +0.000 A 
ATOM     15  N   UNL     1       0.968   8.634  21.539  0.00  0.00    +0.000 NA
ATOM     16  H   UNL     1      -0.929   9.733  23.777  0.00  0.00    +0.000 HD
ATOM     17  H   UNL     1       0.077   8.331  23.719  0.00  0.00    +0.000 HD
BRANCH   9  18
ATOM     18  O   UNL     1      -0.878  11.914  19.809  0.00  0.00    +0.000 OA
ATOM     19  H   UNL     1      -1.454  11.498  19.141  0.00  0.00    +0.000 HD
ENDBRANCH   9  18
ENDBRANCH   1  13
BRANCH   4  20
ATOM     20  C   UNL     1       4.394   4.187  19.388  0.00  0.00    +0.000 C 
BRANCH  20  21
ATOM     21  O   UNL     1       5.278   5.267  19.775  0.00  0.00    +0.000 OA
BRANCH  21  22
ATOM     22  P   UNL     1       6.862   5.346  19.405  0.00  0.00    +0.000 P 
ATOM     23  O   UNL     1       7.774   5.197  20.579  0.00  0.00    +0.000 OA
BRANCH  22  24
ATOM     24  O   UNL     1       6.992   4.050  18.465  0.00  0.00    +0.000 OA
ATOM     25  H   UNL     1       7.323   3.287  18.973  0.00  0.00    +0.000 HD
ENDBRANCH  22  24
BRANCH  22  26
ATOM     26  O   UNL     1       7.303   6.560  18.371  0.00  0.00    +0.000 OA
BRANCH  26  27
ATOM     27  P   UNL     1       6.613   6.259  16.814  0.00  0.00    +0.000 P 
ATOM     28  O   UNL     1       5.499   7.269  17.095  0.00  0.00    +0.000 OA
BRANCH  27  29
ATOM     29  O   UNL     1       7.837   7.074  16.088  0.00  0.00    +0.000 OA
ATOM     30  H   UNL     1       7.862   6.952  15.120  0.00  0.00    +0.000 HD
ENDBRANCH  27  29
BRANCH  27  31
ATOM     31  O   UNL     1       5.922   5.958  15.256  0.00  0.00    +0.000 OA
BRANCH  31  32
ATOM     32  P   UNL     1       6.404   4.419  15.121  0.00  0.00    +0.000 P 
ATOM     33  O   UNL     1       6.463   3.958  13.699  0.00  0.00    +0.000 OA
BRANCH  32  34
ATOM     34  O   UNL     1       7.800   4.384  15.890  0.00  0.00    +0.000 OA
ATOM     35  H   UNL     1       7.835   4.967  16.675  0.00  0.00    +0.000 HD
ENDBRANCH  32  34
BRANCH  32  36
ATOM     36  O   UNL     1       5.525   3.477  16.046  0.00  0.00    +0.000 OA
ATOM     37  H   UNL     1       4.936   2.935  15.483  0.00  0.00    +0.000 HD
ENDBRANCH  32  36
ENDBRANCH  31  32
ENDBRANCH  27  31
ENDBRANCH  26  27
ENDBRANCH  22  26
ENDBRANCH  21  22
ENDBRANCH  20  21
ENDBRANCH   4  20
TORSDOF 13
ENDMDL
MODEL 2
REMARK VINA RESULT:      -7.7      0.826      1.226
REMARK  Name = 
REMARK  13 active torsions:
REMARK  status: ('A' for Active; 'I' for Inactive)
REMARK    1  A    between atoms: C_4  and  O_5
REMARK    2  A    between atoms: N_9  and  C_10
REMARK    3  A    between atoms: C_13  and  C_14
REMARK    4  A    between atoms: C_14  and  O_15
REMARK    5  A    between atoms: O_15  and  P_16
REMARK    6  A    between atoms: P_16  and  O_18
REMARK    7  A    between atoms: P_16  and  O_19
REMARK    8  A    between atoms: O_19  and  P_20
REMARK    9  A    between atoms: P_20  and  O_22
REMARK   10  A    between atoms: P_20  and  O_23
REMARK   11  A    between atoms: O_23  and  P_24
REMARK   12  A    between atoms: P_24  and  O_26
REMARK   13  A    between atoms: P_24  and  O_27
REMARK                            x       y       z     vdW  Elec       q    Type
REMARK                         _______ _______ _______ _____ _____    ______ ____
ROOT
ATOM      1  C   UNL     1       2.421   6.551  19.395  0.00  0.00    +0.000 C 
ATOM      2  C   UNL     1       1.704   5.862  20.518  0.00  0.00    +0.000 C 
ATOM      3  C   UNL     1       1.651   4.521  20.318  0.00  0.00    +0.000 C 
ATOM      4  C   UNL     1       2.287   4.100  19.008  0.00  0.00    +0.000 C 
ATOM      5  C   UNL     1       2.230   5.492  18.284  0.00  0.00    +0.000 C 
ENDROOT
BRANCH   1  13
ATOM      6  N   UNL     1       0.310   9.385  23.238  0.00  0.00    +0.000 N 
ATOM      7  C   UNL     1       0.573   9.547  21.895  0.00  0.00    +0.000 A 
ATOM      8  N   UNL     1       0.116  10.673  21.321  0.00  0.00    +0.000 NA
ATOM      9  C   UNL     1       0.359  10.848  20.009  0.00  0.00    +0.000 A 
ATOM     10  C   UNL     1       1.045   9.885  19.266  0.00  0.00    +0.000 A 
ATOM     11  N   UNL     1       1.433   9.752  17.952  0.00  0.00    +0.000 NA
ATOM     12  C   UNL     1       2.022   8.574  17.873  0.00  0.00    +0.000 A 
ATOM     13  N   UNL     1       2.032   7.916  19.080  0.00  0.00    +0.000 N 
ATOM     14  C   UNL     1       1.429   8.764  19.986  0.00  0.00    +0.000 A 
ATOM     15  N   UNL     1       1.220   8.534  21.292  0.00  0.00    +0.000 NA
ATOM     16  H   UNL     1      -0.491   9.938  23.509  0.00  0.00    +0.000 HD
ATOM     17  H   UNL     1       0.302   8.405  23.477  0.00  0.00    +0.000 HD
BRANCH   9  18
ATOM     18  O   UNL     1      -0.140  12.012  19.499  0.00  0.00    +0.000 OA
ATOM     19  H   UNL     1       0.018  12.623  20.243  0.00  0.00    +0.000 HD
ENDBRANCH   9  18
ENDBRANCH   1  13
BRANCH   4  20
ATOM     20  C   UNL     1       3.767   3.515  19.100  0.00  0.00    +0.000 C 
BRANCH  20  21
ATOM     21  O   UNL     1       4.794   4.272  19.788  0.00  0.00    +0.000 OA
BRANCH  21  22
ATOM     22  P   UNL     1       6.022   5.048  19.053  0.00  0.00    +0.000 P 
ATOM     23  O   UNL     1       7.079   5.543  19.986  0.00  0.00    +0.000 OA
BRANCH  22  24
ATOM     24  O   UNL     1       6.618   3.848  18.166  0.00  0.00    +0.000 OA
ATOM     25  H   UNL     1       7.409   3.467  18.588  0.00  0.00    +0.000 HD
ENDBRANCH  22  24
BRANCH  22  26
ATOM     26  O   UNL     1       5.592   6.146  17.893  0.00  0.00    +0.000 OA
BRANCH  26  27
ATOM     27  P   UNL     1       6.396   5.753  16.412  0.00  0.00    +0.000 P 
ATOM     28  O   UNL     1       5.705   6.922  15.709  0.00  0.00    +0.000 OA
BRANCH  27  29
ATOM     29  O   UNL     1       7.817   6.313  17.008  0.00  0.00    +0.000 OA
ATOM     30  H   UNL     1       8.436   5.603  17.262  0.00  0.00    +0.000 HD
ENDBRANCH  27  29
BRANCH  27  31
ATOM     31  O   UNL     1       7.199   5.359  14.931  0.00  0.00    +0.000 OA
BRANCH  31  32
ATOM     32  P   UNL     1       6.226   4.141  14.497  0.00  0.00    +0.000 P 
ATOM     33  O   UNL     1       5.936   3.206  15.629  0.00  0.00    +0.000 OA
BRANCH  32  34
ATOM     34  O   UNL     1       4.944   4.870  13.892  0.00  0.00    +0.000 OA
ATOM     35  H   UNL     1       4.231   5.024  14.543  0.00  0.00    +0.000 HD
ENDBRANCH  32  34
BRANCH  32  36
ATOM     36  O   UNL     1       6.792   3.406  13.212  0.00  0.00    +0.000 OA
ATOM     37  H   UNL     1       7.275   2.601  13.489  0.00  0.00    +0.000 HD
ENDBRANCH  32  36
ENDBRANCH  31  32
ENDBRANCH  27  31
ENDBRANCH  26  27
ENDBRANCH  22  26
ENDBRANCH  21  22
ENDBRANCH  20  21
ENDBRANCH   4  20
TORSDOF 13
ENDMDL
MODEL 3
REMARK VINA RESULT:      -7.6      2.979      4.535
REMARK  Name = 
REMARK  13 active torsions:
REMARK  status: ('A' for Active; 'I' for Inactive)
REMARK    1  A    between atoms: C_4  and  O_5
REMARK    2  A    between atoms: N_9  and  C_10
REMARK    3  A    between atoms: C_13  and  C_14
REMARK    4  A    between atoms: C_14  and  O_15
REMARK    5  A    between atoms: O_15  and  P_16
REMARK    6  A    between atoms: P_16  and  O_18
REMARK    7  A    between atoms: P_16  and  O_19
REMARK    8  A    between atoms: O_19  and  P_20
REMARK    9  A    between atoms: P_20  and  O_22
REMARK   10  A    between atoms: P_20  and  O_23
REMARK   11  A    between atoms: O_23  and  P_24
REMARK   12  A    between atoms: P_24  and  O_26
REMARK   13  A    between atoms: P_24  and  O_27
REMARK                            x       y       z     vdW  Elec       q    Type
REMARK                         _______ _______ _______ _____ _____    ______ ____
ROOT
ATOM      1  C   UNL     1       1.823   9.043  18.881  0.00  0.00    +0.000 C 
ATOM      2  C   UNL     1       1.829   8.071  20.024  0.00  0.00    +0.000 C 
ATOM      3  C   UNL     1       2.272   6.851  19.629  0.00  0.00    +0.000 C 
ATOM      4  C   UNL     1       2.595   6.798  18.148  0.00  0.00    +0.000 C 
ATOM      5  C   UNL     1       1.757   8.048  17.701  0.00  0.00    +0.000 C 
ENDROOT
BRANCH   1  13
ATOM      6  N   UNL     1       3.487  13.880  17.836  0.00  0.00    +0.000 N 
ATOM      7  C   UNL     1       2.305  13.282  18.213  0.00  0.00    +0.000 A 
ATOM      8  N   UNL     1       1.276  14.099  18.493  0.00  0.00    +0.000 NA
ATOM      9  C   UNL     1       0.113  13.534  18.868  0.00  0.00    +0.000 A 
ATOM     10  C   UNL     1      -0.015  12.148  18.979  0.00  0.00    +0.000 A 
ATOM     11  N   UNL     1      -1.022  11.280  19.335  0.00  0.00    +0.000 NA
ATOM     12  C   UNL     1      -0.489  10.075  19.277  0.00  0.00    +0.000 A 
ATOM     13  N   UNL     1       0.834  10.109  18.904  0.00  0.00    +0.000 N 
ATOM     14  C   UNL     1       1.139  11.436  18.686  0.00  0.00    +0.000 A 
ATOM     15  N   UNL     1       2.322  11.940  18.304  0.00  0.00    +0.000 NA
ATOM     16  H   UNL     1       3.526  14.830  18.179  0.00  0.00    +0.000 HD
ATOM     17  H   UNL     1       4.268  13.276  18.047  0.00  0.00    +0.000 HD
BRANCH   9  18
ATOM     18  O   UNL     1      -0.881  14.430  19.139  0.00  0.00    +0.000 OA
ATOM     19  H   UNL     1      -0.570  14.801  19.986  0.00  0.00    +0.000 HD
ENDBRANCH   9  18
ENDBRANCH   1  13
BRANCH   4  20
ATOM     20  C   UNL     1       4.136   6.921  17.760  0.00  0.00    +0.000 C 
BRANCH  20  21
ATOM     21  O   UNL     1       5.012   5.780  17.938  0.00  0.00    +0.000 OA
BRANCH  21  22
ATOM     22  P   UNL     1       5.457   4.760  16.749  0.00  0.00    +0.000 P 
ATOM     23  O   UNL     1       5.572   5.399  15.404  0.00  0.00    +0.000 OA
BRANCH  22  24
ATOM     24  O   UNL     1       6.922   4.351  17.268  0.00  0.00    +0.000 OA
ATOM     25  H   UNL     1       7.487   4.075  16.524  0.00  0.00    +0.000 HD
ENDBRANCH  22  24
BRANCH  22  26
ATOM     26  O   UNL     1       4.685   3.297  16.725  0.00  0.00    +0.000 OA
BRANCH  26  27
ATOM     27  P   UNL     1       3.794   3.100  18.195  0.00  0.00    +0.000 P 
ATOM     28  O   UNL     1       3.643   1.603  17.921  0.00  0.00    +0.000 OA
BRANCH  27  29
ATOM     29  O   UNL     1       5.162   3.299  19.078  0.00  0.00    +0.000 OA
ATOM     30  H   UNL     1       5.360   2.540  19.658  0.00  0.00    +0.000 HD
ENDBRANCH  27  29
BRANCH  27  31
ATOM     31  O   UNL     1       2.903   2.904  19.665  0.00  0.00    +0.000 OA
BRANCH  31  32
ATOM     32  P   UNL     1       1.426   2.922  19.003  0.00  0.00    +0.000 P 
ATOM     33  O   UNL     1       1.367   3.743  17.754  0.00  0.00    +0.000 OA
BRANCH  32  34
ATOM     34  O   UNL     1       1.074   1.380  18.804  0.00  0.00    +0.000 OA
ATOM     35  H   UNL     1       1.025   0.874  19.639  0.00  0.00    +0.000 HD
ENDBRANCH  32  34
BRANCH  32  36
ATOM     36  O   UNL     1       0.339   3.344  20.078  0.00  0.00    +0.000 OA
ATOM     37  H   UNL     1       0.084   2.558  20.602  0.00  0.00    +0.000 HD
ENDBRANCH  32  36
ENDBRANCH  31  32
ENDBRANCH  27  31
ENDBRANCH  26  27
ENDBRANCH  22  26
ENDBRANCH  21  22
ENDBRANCH  20  21
ENDBRANCH   4  20
TORSDOF 13
ENDMDL
MODEL 4
REMARK VINA RESULT:      -7.6      1.691      3.152
REMARK  Name = 
REMARK  13 active torsions:
REMARK  status: ('A' for Active; 'I' for Inactive)
REMARK    1  A    between atoms: C_4  and  O_5
REMARK    2  A    between atoms: N_9  and  C_10
REMARK    3  A    between atoms: C_13  and  C_14
REMARK    4  A    between atoms: C_14  and  O_15
REMARK    5  A    between atoms: O_15  and  P_16
REMARK    6  A    between atoms: P_16  and  O_18
REMARK    7  A    between atoms: P_16  and  O_19
REMARK    8  A    between atoms: O_19  and  P_20
REMARK    9  A    between atoms: P_20  and  O_22
REMARK   10  A    between atoms: P_20  and  O_23
REMARK   11  A    between atoms: O_23  and  P_24
REMARK   12  A    between atoms: P_24  and  O_26
REMARK   13  A    between atoms: P_24  and  O_27
REMARK                            x       y       z     vdW  Elec       q    Type
REMARK                         _______ _______ _______ _____ _____    ______ ____
ROOT
ATOM      1  C   UNL     1       1.103   8.476  19.400  0.00  0.00    +0.000 C 
ATOM      2  C   UNL     1       1.736   8.950  18.125  0.00  0.00    +0.000 C 
ATOM      3  C   UNL     1       2.742   8.125  17.740  0.00  0.00    +0.000 C 
ATOM      4  C   UNL     1       2.972   6.988  18.716  0.00  0.00    +0.000 C 
ATOM      5  C   UNL     1       2.268   7.631  19.964  0.00  0.00    +0.000 C 
ENDROOT
BRANCH   1  13
ATOM      6  N   UNL     1      -2.003  12.070  17.234  0.00  0.00    +0.000 N 
ATOM      7  C   UNL     1      -1.486  11.808  18.484  0.00  0.00    +0.000 A 
ATOM      8  N   UNL     1      -1.723  12.722  19.440  0.00  0.00    +0.000 NA
ATOM      9  C   UNL     1      -1.221  12.487  20.667  0.00  0.00    +0.000 A 
ATOM     10  C   UNL     1      -0.466  11.343  20.932  0.00  0.00    +0.000 A 
ATOM     11  N   UNL     1       0.179  10.826  22.033  0.00  0.00    +0.000 NA
ATOM     12  C   UNL     1       0.755   9.714  21.617  0.00  0.00    +0.000 A 
ATOM     13  N   UNL     1       0.525   9.478  20.282  0.00  0.00    +0.000 N 
ATOM     14  C   UNL     1      -0.281  10.507  19.842  0.00  0.00    +0.000 A 
ATOM     15  N   UNL     1      -0.757  10.684  18.599  0.00  0.00    +0.000 NA
ATOM     16  H   UNL     1      -2.160  13.061  17.118  0.00  0.00    +0.000 HD
ATOM     17  H   UNL     1      -1.463  11.597  16.525  0.00  0.00    +0.000 HD
BRANCH   9  18
ATOM     18  O   UNL     1      -1.501  13.462  21.580  0.00  0.00    +0.000 OA
ATOM     19  H   UNL     1      -1.937  14.127  21.015  0.00  0.00    +0.000 HD
ENDBRANCH   9  18
ENDBRANCH   1  13
BRANCH   4  20
ATOM     20  C   UNL     1       2.345   5.579  18.315  0.00  0.00    +0.000 C 
BRANCH  20  21
ATOM     21  O   UNL     1       2.956   4.359  18.803  0.00  0.00    +0.000 OA
BRANCH  21  22
ATOM     22  P   UNL     1       4.548   4.024  18.723  0.00  0.00    +0.000 P 
ATOM     23  O   UNL     1       5.016   3.027  19.733  0.00  0.00    +0.000 OA
BRANCH  22  24
ATOM     24  O   UNL     1       4.619   3.367  17.258  0.00  0.00    +0.000 OA
ATOM     25  H   UNL     1       3.741   3.368  16.836  0.00  0.00    +0.000 HD
ENDBRANCH  22  24
BRANCH  22  26
ATOM     26  O   UNL     1       5.554   5.326  18.560  0.00  0.00    +0.000 OA
BRANCH  26  27
ATOM     27  P   UNL     1       6.688   5.014  17.291  0.00  0.00    +0.000 P 
ATOM     28  O   UNL     1       7.303   6.402  17.479  0.00  0.00    +0.000 OA
BRANCH  27  29
ATOM     29  O   UNL     1       7.517   3.979  18.256  0.00  0.00    +0.000 OA
ATOM     30  H   UNL     1       7.059   3.784  19.096  0.00  0.00    +0.000 HD
ENDBRANCH  27  29
BRANCH  27  31
ATOM     31  O   UNL     1       7.822   4.701  16.023  0.00  0.00    +0.000 OA
BRANCH  31  32
ATOM     32  P   UNL     1       6.779   4.826  14.791  0.00  0.00    +0.000 P 
ATOM     33  O   UNL     1       6.028   3.556  14.544  0.00  0.00    +0.000 OA
BRANCH  32  34
ATOM     34  O   UNL     1       5.867   6.073  15.184  0.00  0.00    +0.000 OA
ATOM     35  H   UNL     1       5.833   6.252  16.145  0.00  0.00    +0.000 HD
ENDBRANCH  32  34
BRANCH  32  36
ATOM     36  O   UNL     1       7.508   5.380  13.497  0.00  0.00    +0.000 OA
ATOM     37  H   UNL     1       8.378   5.750  13.753  0.00  0.00    +0.000 HD
ENDBRANCH  32  36
ENDBRANCH  31  32
ENDBRANCH  27  31
ENDBRANCH  26  27
ENDBRANCH  22  26
ENDBRANCH  21  22
ENDBRANCH  20  21
ENDBRANCH   4  20
TORSDOF 13
ENDMDL
MODEL 5
REMARK VINA RESULT:      -7.5      5.381      7.368
REMARK  Name = 
REMARK  13 active torsions:
REMARK  status: ('A' for Active; 'I' for Inactive)
REMARK    1  A    between atoms: C_4  and  O_5
REMARK    2  A    between atoms: N_9  and  C_10
REMARK    3  A    between atoms: C_13  and  C_14
REMARK    4  A    between atoms: C_14  and  O_15
REMARK    5  A    between atoms: O_15  and  P_16
REMARK    6  A    between atoms: P_16  and  O_18
REMARK    7  A    between atoms: P_16  and  O_19
REMARK    8  A    between atoms: O_19  and  P_20
REMARK    9  A    between atoms: P_20  and  O_22
REMARK   10  A    between atoms: P_20  and  O_23
REMARK   11  A    between atoms: O_23  and  P_24
REMARK   12  A    between atoms: P_24  and  O_26
REMARK   13  A    between atoms: P_24  and  O_27
REMARK                            x       y       z     vdW  Elec       q    Type
REMARK                         _______ _______ _______ _____ _____    ______ ____
ROOT
ATOM      1  C   UNL     1       5.638   5.945  18.459  0.00  0.00    +0.000 C 
ATOM      2  C   UNL     1       6.822   5.604  19.316  0.00  0.00    +0.000 C 
ATOM      3  C   UNL     1       7.961   6.148  18.818  0.00  0.00    +0.000 C 
ATOM      4  C   UNL     1       7.731   6.906  17.526  0.00  0.00    +0.000 C 
ATOM      5  C   UNL     1       6.364   6.242  17.128  0.00  0.00    +0.000 C 
ENDROOT
BRANCH   1  13
ATOM      6  N   UNL     1       1.370   7.086  21.240  0.00  0.00    +0.000 N 
ATOM      7  C   UNL     1       1.815   6.039  20.463  0.00  0.00    +0.000 A 
ATOM      8  N   UNL     1       1.043   4.939  20.431  0.00  0.00    +0.000 NA
ATOM      9  C   UNL     1       1.463   3.904  19.681  0.00  0.00    +0.000 A 
ATOM     10  C   UNL     1       2.667   3.962  18.976  0.00  0.00    +0.000 A 
ATOM     11  N   UNL     1       3.367   3.106  18.157  0.00  0.00    +0.000 NA
ATOM     12  C   UNL     1       4.473   3.749  17.835  0.00  0.00    +0.000 A 
ATOM     13  N   UNL     1       4.539   4.994  18.415  0.00  0.00    +0.000 N 
ATOM     14  C   UNL     1       3.369   5.148  19.129  0.00  0.00    +0.000 A 
ATOM     15  N   UNL     1       3.002   6.214  19.857  0.00  0.00    +0.000 NA
ATOM     16  H   UNL     1       0.738   6.751  21.954  0.00  0.00    +0.000 HD
ATOM     17  H   UNL     1       2.147   7.657  21.537  0.00  0.00    +0.000 HD
BRANCH   9  18
ATOM     18  O   UNL     1       0.627   2.824  19.703  0.00  0.00    +0.000 OA
ATOM     19  H   UNL     1       1.230   2.129  20.030  0.00  0.00    +0.000 HD
ENDBRANCH   9  18
ENDBRANCH   1  13
BRANCH   4  20
ATOM     20  C   UNL     1       7.630   8.492  17.649  0.00  0.00    +0.000 C 
BRANCH  20  21
ATOM     21  O   UNL     1       8.576   9.207  18.482  0.00  0.00    +0.000 OA
BRANCH  21  22
ATOM     22  P   UNL     1       9.075  10.734  18.217  0.00  0.00    +0.000 P 
ATOM     23  O   UNL     1       8.067  11.597  17.529  0.00  0.00    +0.000 OA
BRANCH  22  24
ATOM     24  O   UNL     1       9.253  11.235  19.733  0.00  0.00    +0.000 OA
ATOM     25  H   UNL     1       8.419  11.139  20.228  0.00  0.00    +0.000 HD
ENDBRANCH  22  24
BRANCH  22  26
ATOM     26  O   UNL     1      10.609  10.901  17.622  0.00  0.00    +0.000 OA
BRANCH  26  27
ATOM     27  P   UNL     1      11.249  12.429  18.121  0.00  0.00    +0.000 P 
ATOM     28  O   UNL     1      11.957  11.764  19.303  0.00  0.00    +0.000 OA
BRANCH  27  29
ATOM     29  O   UNL     1      12.298  12.427  16.861  0.00  0.00    +0.000 OA
ATOM     30  H   UNL     1      12.028  11.833  16.135  0.00  0.00    +0.000 HD
ENDBRANCH  27  29
BRANCH  27  31
ATOM     31  O   UNL     1      11.889  13.957  18.620  0.00  0.00    +0.000 OA
BRANCH  31  32
ATOM     32  P   UNL     1      10.817  14.884  17.838  0.00  0.00    +0.000 P 
ATOM     33  O   UNL     1       9.401  14.531  18.173  0.00  0.00    +0.000 OA
BRANCH  32  34
ATOM     34  O   UNL     1      11.240  16.372  18.223  0.00  0.00    +0.000 OA
ATOM     35  H   UNL     1      10.715  17.062  17.772  0.00  0.00    +0.000 HD
ENDBRANCH  32  34
BRANCH  32  36
ATOM     36  O   UNL     1      11.108  14.879  16.280  0.00  0.00    +0.000 OA
ATOM     37  H   UNL     1      11.786  15.556  16.078  0.00  0.00    +0.000 HD
ENDBRANCH  32  36
ENDBRANCH  31  32
ENDBRANCH  27  31
ENDBRANCH  26  27
ENDBRANCH  22  26
ENDBRANCH  21  22
ENDBRANCH  20  21
ENDBRANCH   4  20
TORSDOF 13
ENDMDL
MODEL 6
REMARK VINA RESULT:      -7.5      2.046      3.341
REMARK  Name = 
REMARK  13 active torsions:
REMARK  status: ('A' for Active; 'I' for Inactive)
REMARK    1  A    between atoms: C_4  and  O_5
REMARK    2  A    between atoms: N_9  and  C_10
REMARK    3  A    between atoms: C_13  and  C_14
REMARK    4  A    between atoms: C_14  and  O_15
REMARK    5  A    between atoms: O_15  and  P_16
REMARK    6  A    between atoms: P_16  and  O_18
REMARK    7  A    between atoms: P_16  and  O_19
REMARK    8  A    between atoms: O_19  and  P_20
REMARK    9  A    between atoms: P_20  and  O_22
REMARK   10  A    between atoms: P_20  and  O_23
REMARK   11  A    between atoms: O_23  and  P_24
REMARK   12  A    between atoms: P_24  and  O_26
REMARK   13  A    between atoms: P_24  and  O_27
REMARK                            x       y       z     vdW  Elec       q    Type
REMARK                         _______ _______ _______ _____ _____    ______ ____
ROOT
ATOM      1  C   UNL     1       1.041   8.795  18.850  0.00  0.00    +0.000 C 
ATOM      2  C   UNL     1       1.995   9.153  17.749  0.00  0.00    +0.000 C 
ATOM      3  C   UNL     1       3.027   8.274  17.687  0.00  0.00    +0.000 C 
ATOM      4  C   UNL     1       2.953   7.209  18.764  0.00  0.00    +0.000 C 
ATOM      5  C   UNL     1       1.988   7.964  19.746  0.00  0.00    +0.000 C 
ENDROOT
BRANCH   1  13
ATOM      6  N   UNL     1      -3.432  10.294  16.615  0.00  0.00    +0.000 N 
ATOM      7  C   UNL     1      -2.656  10.693  17.682  0.00  0.00    +0.000 A 
ATOM      8  N   UNL     1      -3.034  11.815  18.318  0.00  0.00    +0.000 NA
ATOM      9  C   UNL     1      -2.286  12.224  19.360  0.00  0.00    +0.000 A 
ATOM     10  C   UNL     1      -1.148  11.518  19.754  0.00  0.00    +0.000 A 
ATOM     11  N   UNL     1      -0.191  11.666  20.732  0.00  0.00    +0.000 NA
ATOM     12  C   UNL     1       0.658  10.672  20.552  0.00  0.00    +0.000 A 
ATOM     13  N   UNL     1       0.307   9.875  19.488  0.00  0.00    +0.000 N 
ATOM     14  C   UNL     1      -0.867  10.398  18.986  0.00  0.00    +0.000 A 
ATOM     15  N   UNL     1      -1.574   9.938  17.942  0.00  0.00    +0.000 NA
ATOM     16  H   UNL     1      -3.940  11.080  16.235  0.00  0.00    +0.000 HD
ATOM     17  H   UNL     1      -2.886   9.738  15.974  0.00  0.00    +0.000 HD
BRANCH   9  18
ATOM     18  O   UNL     1      -2.731  13.372  19.949  0.00  0.00    +0.000 OA
ATOM     19  H   UNL     1      -3.440  13.024  20.522  0.00  0.00    +0.000 HD
ENDBRANCH   9  18
ENDBRANCH   1  13
BRANCH   4  20
ATOM     20  C   UNL     1       2.384   5.790  18.313  0.00  0.00    +0.000 C 
BRANCH  20  21
ATOM     21  O   UNL     1       3.273   4.824  17.701  0.00  0.00    +0.000 OA
BRANCH  21  22
ATOM     22  P   UNL     1       4.418   3.984  18.498  0.00  0.00    +0.000 P 
ATOM     23  O   UNL     1       3.886   3.096  19.576  0.00  0.00    +0.000 OA
BRANCH  22  24
ATOM     24  O   UNL     1       4.984   3.078  17.298  0.00  0.00    +0.000 OA
ATOM     25  H   UNL     1       4.885   3.536  16.444  0.00  0.00    +0.000 HD
ENDBRANCH  22  24
BRANCH  22  26
ATOM     26  O   UNL     1       5.763   4.837  18.944  0.00  0.00    +0.000 OA
BRANCH  26  27
ATOM     27  P   UNL     1       6.665   5.255  17.528  0.00  0.00    +0.000 P 
ATOM     28  O   UNL     1       7.201   6.509  18.222  0.00  0.00    +0.000 OA
BRANCH  27  29
ATOM     29  O   UNL     1       7.730   4.043  17.822  0.00  0.00    +0.000 OA
ATOM     30  H   UNL     1       7.574   3.589  18.672  0.00  0.00    +0.000 HD
ENDBRANCH  27  29
BRANCH  27  31
ATOM     31  O   UNL     1       7.568   5.673  16.113  0.00  0.00    +0.000 OA
BRANCH  31  32
ATOM     32  P   UNL     1       6.553   5.021  15.033  0.00  0.00    +0.000 P 
ATOM     33  O   UNL     1       5.163   5.563  15.153  0.00  0.00    +0.000 OA
BRANCH  32  34
ATOM     34  O   UNL     1       7.256   5.296  13.629  0.00  0.00    +0.000 OA
ATOM     35  H   UNL     1       6.628   5.438  12.893  0.00  0.00    +0.000 HD
ENDBRANCH  32  34
BRANCH  32  36
ATOM     36  O   UNL     1       6.613   3.439  15.098  0.00  0.00    +0.000 OA
ATOM     37  H   UNL     1       6.531   3.152  16.030  0.00  0.00    +0.000 HD
ENDBRANCH  32  36
ENDBRANCH  31  32
ENDBRANCH  27  31
ENDBRANCH  26  27
ENDBRANCH  22  26
ENDBRANCH  21  22
ENDBRANCH  20  21
ENDBRANCH   4  20
TORSDOF 13
ENDMDL
MODEL 7
REMARK VINA RESULT:      -7.5      3.005      4.749
REMARK  Name = 
REMARK  13 active torsions:
REMARK  status: ('A' for Active; 'I' for Inactive)
REMARK    1  A    between atoms: C_4  and  O_5
REMARK    2  A    between atoms: N_9  and  C_10
REMARK    3  A    between atoms: C_13  and  C_14
REMARK    4  A    between atoms: C_14  and  O_15
REMARK    5  A    between atoms: O_15  and  P_16
REMARK    6  A    between atoms: P_16  and  O_18
REMARK    7  A    between atoms: P_16  and  O_19
REMARK    8  A    between atoms: O_19  and  P_20
REMARK    9  A    between atoms: P_20  and  O_22
REMARK   10  A    between atoms: P_20  and  O_23
REMARK   11  A    between atoms: O_23  and  P_24
REMARK   12  A    between atoms: P_24  and  O_26
REMARK   13  A    between atoms: P_24  and  O_27
REMARK                            x       y       z     vdW  Elec       q    Type
REMARK                         _______ _______ _______ _____ _____    ______ ____
ROOT
ATOM      1  C   UNL     1       1.723   9.208  18.969  0.00  0.00    +0.000 C 
ATOM      2  C   UNL     1       1.659   8.307  20.167  0.00  0.00    +0.000 C 
ATOM      3  C   UNL     1       2.047   7.045  19.854  0.00  0.00    +0.000 C 
ATOM      4  C   UNL     1       2.396   6.887  18.387  0.00  0.00    +0.000 C 
ATOM      5  C   UNL     1       1.630   8.147  17.848  0.00  0.00    +0.000 C 
ENDROOT
BRANCH   1  13
ATOM      6  N   UNL     1       3.677  13.920  17.859  0.00  0.00    +0.000 N 
ATOM      7  C   UNL     1       2.449  13.393  18.192  0.00  0.00    +0.000 A 
ATOM      8  N   UNL     1       1.449  14.268  18.393  0.00  0.00    +0.000 NA
ATOM      9  C   UNL     1       0.242  13.772  18.724  0.00  0.00    +0.000 A 
ATOM     10  C   UNL     1       0.040  12.399  18.872  0.00  0.00    +0.000 A 
ATOM     11  N   UNL     1      -1.026  11.593  19.204  0.00  0.00    +0.000 NA
ATOM     12  C   UNL     1      -0.552  10.363  19.211  0.00  0.00    +0.000 A 
ATOM     13  N   UNL     1       0.788  10.320  18.907  0.00  0.00    +0.000 N 
ATOM     14  C   UNL     1       1.170  11.622  18.662  0.00  0.00    +0.000 A 
ATOM     15  N   UNL     1       2.395  12.056  18.327  0.00  0.00    +0.000 NA
ATOM     16  H   UNL     1       3.746  14.878  18.173  0.00  0.00    +0.000 HD
ATOM     17  H   UNL     1       4.415  13.287  18.128  0.00  0.00    +0.000 HD
BRANCH   9  18
ATOM     18  O   UNL     1      -0.718  14.724  18.916  0.00  0.00    +0.000 OA
ATOM     19  H   UNL     1      -0.281  15.509  18.536  0.00  0.00    +0.000 HD
ENDBRANCH   9  18
ENDBRANCH   1  13
BRANCH   4  20
ATOM     20  C   UNL     1       3.949   6.911  18.026  0.00  0.00    +0.000 C 
BRANCH  20  21
ATOM     21  O   UNL     1       4.818   5.870  18.537  0.00  0.00    +0.000 OA
BRANCH  21  22
ATOM     22  P   UNL     1       5.243   4.531  17.714  0.00  0.00    +0.000 P 
ATOM     23  O   UNL     1       6.422   4.714  16.814  0.00  0.00    +0.000 OA
BRANCH  22  24
ATOM     24  O   UNL     1       5.653   3.572  18.936  0.00  0.00    +0.000 OA
ATOM     25  H   UNL     1       5.779   4.088  19.753  0.00  0.00    +0.000 HD
ENDBRANCH  22  24
BRANCH  22  26
ATOM     26  O   UNL     1       4.003   3.685  17.020  0.00  0.00    +0.000 OA
BRANCH  26  27
ATOM     27  P   UNL     1       3.172   2.788  18.245  0.00  0.00    +0.000 P 
ATOM     28  O   UNL     1       1.914   2.738  17.376  0.00  0.00    +0.000 OA
BRANCH  27  29
ATOM     29  O   UNL     1       4.056   1.451  17.898  0.00  0.00    +0.000 OA
ATOM     30  H   UNL     1       3.588   0.818  17.322  0.00  0.00    +0.000 HD
ENDBRANCH  27  29
BRANCH  27  31
ATOM     31  O   UNL     1       2.341   1.891  19.469  0.00  0.00    +0.000 OA
BRANCH  31  32
ATOM     32  P   UNL     1       2.084   3.130  20.479  0.00  0.00    +0.000 P 
ATOM     33  O   UNL     1       0.775   3.812  20.229  0.00  0.00    +0.000 OA
BRANCH  32  34
ATOM     34  O   UNL     1       2.230   2.482  21.928  0.00  0.00    +0.000 OA
ATOM     35  H   UNL     1       1.764   1.628  22.029  0.00  0.00    +0.000 HD
ENDBRANCH  32  34
BRANCH  32  36
ATOM     36  O   UNL     1       3.318   4.125  20.466  0.00  0.00    +0.000 OA
ATOM     37  H   UNL     1       3.766   4.092  21.336  0.00  0.00    +0.000 HD
ENDBRANCH  32  36
ENDBRANCH  31  32
ENDBRANCH  27  31
ENDBRANCH  26  27
ENDBRANCH  22  26
ENDBRANCH  21  22
ENDBRANCH  20  21
ENDBRANCH   4  20
TORSDOF 13
ENDMDL
MODEL 8
REMARK VINA RESULT:      -7.4      2.571      4.205
REMARK  Name = 
REMARK  13 active torsions:
REMARK  status: ('A' for Active; 'I' for Inactive)
REMARK    1  A    between atoms: C_4  and  O_5
REMARK    2  A    between atoms: N_9  and  C_10
REMARK    3  A    between atoms: C_13  and  C_14
REMARK    4  A    between atoms: C_14  and  O_15
REMARK    5  A    between atoms: O_15  and  P_16
REMARK    6  A    between atoms: P_16  and  O_18
REMARK    7  A    between atoms: P_16  and  O_19
REMARK    8  A    between atoms: O_19  and  P_20
REMARK    9  A    between atoms: P_20  and  O_22
REMARK   10  A    between atoms: P_20  and  O_23
REMARK   11  A    between atoms: O_23  and  P_24
REMARK   12  A    between atoms: P_24  and  O_26
REMARK   13  A    between atoms: P_24  and  O_27
REMARK                            x       y       z     vdW  Elec       q    Type
REMARK                         _______ _______ _______ _____ _____    ______ ____
ROOT
ATOM      1  C   UNL     1       1.041   8.357  19.826  0.00  0.00    +0.000 C 
ATOM      2  C   UNL     1       1.677   9.050  18.657  0.00  0.00    +0.000 C 
ATOM      3  C   UNL     1       2.576   8.243  18.039  0.00  0.00    +0.000 C 
ATOM      4  C   UNL     1       2.717   6.895  18.718  0.00  0.00    +0.000 C 
ATOM      5  C   UNL     1       2.128   7.297  20.117  0.00  0.00    +0.000 C 
ENDROOT
BRANCH   1  13
ATOM      6  N   UNL     1      -2.228  12.288  18.771  0.00  0.00    +0.000 N 
ATOM      7  C   UNL     1      -1.563  11.800  19.875  0.00  0.00    +0.000 A 
ATOM      8  N   UNL     1      -1.656  12.523  21.005  0.00  0.00    +0.000 NA
ATOM      9  C   UNL     1      -1.009  12.065  22.093  0.00  0.00    +0.000 A 
ATOM     10  C   UNL     1      -0.254  10.892  22.045  0.00  0.00    +0.000 A 
ATOM     11  N   UNL     1       0.513  10.181  22.940  0.00  0.00    +0.000 NA
ATOM     12  C   UNL     1       1.005   9.166  22.258  0.00  0.00    +0.000 A 
ATOM     13  N   UNL     1       0.603   9.179  20.943  0.00  0.00    +0.000 N 
ATOM     14  C   UNL     1      -0.227  10.271  20.806  0.00  0.00    +0.000 A 
ATOM     15  N   UNL     1      -0.853  10.674  19.688  0.00  0.00    +0.000 NA
ATOM     16  H   UNL     1      -2.375  13.284  18.860  0.00  0.00    +0.000 HD
ATOM     17  H   UNL     1      -1.793  11.955  17.924  0.00  0.00    +0.000 HD
BRANCH   9  18
ATOM     18  O   UNL     1      -1.148  12.856  23.197  0.00  0.00    +0.000 OA
ATOM     19  H   UNL     1      -0.236  12.853  23.544  0.00  0.00    +0.000 HD
ENDBRANCH   9  18
ENDBRANCH   1  13
BRANCH   4  20
ATOM     20  C   UNL     1       1.930   5.683  18.045  0.00  0.00    +0.000 C 
BRANCH  20  21
ATOM     21  O   UNL     1       1.521   4.556  18.860  0.00  0.00    +0.000 OA
BRANCH  21  22
ATOM     22  P   UNL     1       1.673   2.995  18.425  0.00  0.00    +0.000 P 
ATOM     23  O   UNL     1       0.385   2.238  18.397  0.00  0.00    +0.000 OA
BRANCH  22  24
ATOM     24  O   UNL     1       2.213   3.176  16.923  0.00  0.00    +0.000 OA
ATOM     25  H   UNL     1       1.572   3.672  16.383  0.00  0.00    +0.000 HD
ENDBRANCH  22  24
BRANCH  22  26
ATOM     26  O   UNL     1       2.916   2.164  19.134  0.00  0.00    +0.000 OA
BRANCH  26  27
ATOM     27  P   UNL     1       4.258   3.233  19.358  0.00  0.00    +0.000 P 
ATOM     28  O   UNL     1       3.650   3.746  20.665  0.00  0.00    +0.000 OA
BRANCH  27  29
ATOM     29  O   UNL     1       5.231   1.968  19.737  0.00  0.00    +0.000 OA
ATOM     30  H   UNL     1       5.177   1.707  20.676  0.00  0.00    +0.000 HD
ENDBRANCH  27  29
BRANCH  27  31
ATOM     31  O   UNL     1       5.600   4.301  19.583  0.00  0.00    +0.000 OA
BRANCH  31  32
ATOM     32  P   UNL     1       5.921   4.546  18.015  0.00  0.00    +0.000 P 
ATOM     33  O   UNL     1       5.639   5.951  17.584  0.00  0.00    +0.000 OA
BRANCH  32  34
ATOM     34  O   UNL     1       7.441   4.094  17.858  0.00  0.00    +0.000 OA
ATOM     35  H   UNL     1       7.600   3.154  18.077  0.00  0.00    +0.000 HD
ENDBRANCH  32  34
BRANCH  32  36
ATOM     36  O   UNL     1       5.188   3.461  17.121  0.00  0.00    +0.000 OA
ATOM     37  H   UNL     1       5.313   2.577  17.523  0.00  0.00    +0.000 HD
ENDBRANCH  32  36
ENDBRANCH  31  32
ENDBRANCH  27  31
ENDBRANCH  26  27
ENDBRANCH  22  26
ENDBRANCH  21  22
ENDBRANCH  20  21
ENDBRANCH   4  20
TORSDOF 13
ENDMDL
MODEL 9
REMARK VINA RESULT:      -7.4      1.772      3.086
REMARK  Name = 
REMARK  13 active torsions:
REMARK  status: ('A' for Active; 'I' for Inactive)
REMARK    1  A    between atoms: C_4  and  O_5
REMARK    2  A    between atoms: N_9  and  C_10
REMARK    3  A    between atoms: C_13  and  C_14
REMARK    4  A    between atoms: C_14  and  O_15
REMARK    5  A    between atoms: O_15  and  P_16
REMARK    6  A    between atoms: P_16  and  O_18
REMARK    7  A    between atoms: P_16  and  O_19
REMARK    8  A    between atoms: O_19  and  P_20
REMARK    9  A    between atoms: P_20  and  O_22
REMARK   10  A    between atoms: P_20  and  O_23
REMARK   11  A    between atoms: O_23  and  P_24
REMARK   12  A    between atoms: P_24  and  O_26
REMARK   13  A    between atoms: P_24  and  O_27
REMARK                            x       y       z     vdW  Elec       q    Type
REMARK                         _______ _______ _______ _____ _____    ______ ____
ROOT
ATOM      1  C   UNL     1       1.167   8.352  19.761  0.00  0.00    +0.000 C 
ATOM      2  C   UNL     1       1.608   9.104  18.540  0.00  0.00    +0.000 C 
ATOM      3  C   UNL     1       2.602   8.447  17.891  0.00  0.00    +0.000 C 
ATOM      4  C   UNL     1       3.015   7.169  18.594  0.00  0.00    +0.000 C 
ATOM      5  C   UNL     1       2.438   7.510  20.015  0.00  0.00    +0.000 C 
ENDROOT
BRANCH   1  13
ATOM      6  N   UNL     1      -2.262  12.137  18.681  0.00  0.00    +0.000 N 
ATOM      7  C   UNL     1      -1.611  11.657  19.796  0.00  0.00    +0.000 A 
ATOM      8  N   UNL     1      -1.780  12.345  20.938  0.00  0.00    +0.000 NA
ATOM      9  C   UNL     1      -1.148  11.894  22.038  0.00  0.00    +0.000 A 
ATOM     10  C   UNL     1      -0.332  10.762  21.990  0.00  0.00    +0.000 A 
ATOM     11  N   UNL     1       0.440  10.069  22.895  0.00  0.00    +0.000 NA
ATOM     12  C   UNL     1       1.007   9.097  22.208  0.00  0.00    +0.000 A 
ATOM     13  N   UNL     1       0.649   9.122  20.880  0.00  0.00    +0.000 N 
ATOM     14  C   UNL     1      -0.231  10.174  20.738  0.00  0.00    +0.000 A 
ATOM     15  N   UNL     1      -0.837  10.573  19.609  0.00  0.00    +0.000 NA
ATOM     16  H   UNL     1      -2.463  13.122  18.787  0.00  0.00    +0.000 HD
ATOM     17  H   UNL     1      -1.782  11.847  17.843  0.00  0.00    +0.000 HD
BRANCH   9  18
ATOM     18  O   UNL     1      -1.364  12.649  23.155  0.00  0.00    +0.000 OA
ATOM     19  H   UNL     1      -0.688  13.343  23.044  0.00  0.00    +0.000 HD
ENDBRANCH   9  18
ENDBRANCH   1  13
BRANCH   4  20
ATOM     20  C   UNL     1       2.422   5.815  17.999  0.00  0.00    +0.000 C 
BRANCH  20  21
ATOM     21  O   UNL     1       3.325   4.777  17.542  0.00  0.00    +0.000 OA
BRANCH  21  22
ATOM     22  P   UNL     1       4.189   3.805  18.521  0.00  0.00    +0.000 P 
ATOM     23  O   UNL     1       3.417   3.254  19.676  0.00  0.00    +0.000 OA
BRANCH  22  24
ATOM     24  O   UNL     1       4.532   2.614  17.498  0.00  0.00    +0.000 OA
ATOM     25  H   UNL     1       4.545   2.941  16.580  0.00  0.00    +0.000 HD
ENDBRANCH  22  24
BRANCH  22  26
ATOM     26  O   UNL     1       5.698   4.346  18.929  0.00  0.00    +0.000 OA
BRANCH  26  27
ATOM     27  P   UNL     1       6.524   4.859  17.498  0.00  0.00    +0.000 P 
ATOM     28  O   UNL     1       6.633   6.281  18.053  0.00  0.00    +0.000 OA
BRANCH  27  29
ATOM     29  O   UNL     1       7.874   4.051  17.960  0.00  0.00    +0.000 OA
ATOM     30  H   UNL     1       8.554   4.004  17.261  0.00  0.00    +0.000 HD
ENDBRANCH  27  29
BRANCH  27  31
ATOM     31  O   UNL     1       7.350   5.373  16.067  0.00  0.00    +0.000 OA
BRANCH  31  32
ATOM     32  P   UNL     1       6.414   4.586  15.007  0.00  0.00    +0.000 P 
ATOM     33  O   UNL     1       6.912   4.706  13.601  0.00  0.00    +0.000 OA
BRANCH  32  34
ATOM     34  O   UNL     1       6.363   3.096  15.570  0.00  0.00    +0.000 OA
ATOM     35  H   UNL     1       7.213   2.782  15.938  0.00  0.00    +0.000 HD
ENDBRANCH  32  34
BRANCH  32  36
ATOM     36  O   UNL     1       4.899   5.023  15.170  0.00  0.00    +0.000 OA
ATOM     37  H   UNL     1       4.668   5.652  14.456  0.00  0.00    +0.000 HD
ENDBRANCH  32  36
ENDBRANCH  31  32
ENDBRANCH  27  31
ENDBRANCH  26  27
ENDBRANCH  22  26
ENDBRANCH  21  22
ENDBRANCH  20  21
ENDBRANCH   4  20
TORSDOF 13
ENDMDL
