MODEL 1
REMARK VINA RESULT:      -7.4      0.000      0.000
REMARK  Name = 
REMARK  7 active torsions:
REMARK  status: ('A' for Active; 'I' for Inactive)
REMARK    1  A    between atoms: O_1  and  C_2
REMARK    2  A    between atoms: C_2  and  C_3
REMARK    3  A    between atoms: C_3  and  C_4
REMARK    4  A    between atoms: C_4  and  O_5
REMARK    5  A    between atoms: O_5  and  C_6
REMARK    6  A    between atoms: N_20  and  C_21
REMARK    7  A    between atoms: C_24  and  O_25
REMARK                            x       y       z     vdW  Elec       q    Type
REMARK                         _______ _______ _______ _____ _____    ______ ____
ROOT
ATOM      1  C   UNL     1      -4.337  11.601  16.814  0.00  0.00    +0.000 A 
ATOM      2  C   UNL     1      -4.070  10.832  15.669  0.00  0.00    +0.000 A 
ATOM      3  C   UNL     1      -2.932  10.032  15.577  0.00  0.00    +0.000 A 
ATOM      4  C   UNL     1      -2.010   9.972  16.623  0.00  0.00    +0.000 A 
ATOM      5  C   UNL     1      -2.267  10.729  17.776  0.00  0.00    +0.000 A 
ATOM      6  C   UNL     1      -3.416  11.520  17.884  0.00  0.00    +0.000 A 
ATOM      7  C   UNL     1      -3.342  12.066  19.180  0.00  0.00    +0.000 A 
ATOM      8  N   UNL     1      -2.267  11.670  19.862  0.00  0.00    +0.000 NA
ATOM      9  N   UNL     1      -1.590  10.865  18.988  0.00  0.00    +0.000 N 
ATOM     10  C   UNL     1      -0.363  10.231  19.381  0.00  0.00    +0.000 A 
ATOM     11  C   UNL     1       0.022  10.298  20.704  0.00  0.00    +0.000 A 
ATOM     12  C   UNL     1       1.127   9.554  21.037  0.00  0.00    +0.000 A 
ATOM     13  N   UNL     1       1.807   8.795  20.158  0.00  0.00    +0.000 NA
ATOM     14  C   UNL     1       1.405   8.835  18.884  0.00  0.00    +0.000 A 
ATOM     15  N   UNL     1       2.068   8.122  17.917  0.00  0.00    +0.000 N 
ATOM     16  N   UNL     1       0.356   9.548  18.460  0.00  0.00    +0.000 NA
ATOM     17  H   UNL     1       2.298   8.718  17.132  0.00  0.00    +0.000 HD
ENDROOT
BRANCH  15  18
ATOM     18  C   UNL     1       2.970   7.036  18.253  0.00  0.00    +0.000 C 
ATOM     19  C   UNL     1       2.163   5.730  18.116  0.00  0.00    +0.000 C 
ATOM     20  C   UNL     1       3.018   4.490  18.341  0.00  0.00    +0.000 C 
ATOM     21  C   UNL     1       4.225   4.486  17.409  0.00  0.00    +0.000 C 
ATOM     22  C   UNL     1       5.056   5.755  17.588  0.00  0.00    +0.000 C 
ATOM     23  C   UNL     1       4.217   7.014  17.360  0.00  0.00    +0.000 C 
BRANCH  21  24
ATOM     24  O   UNL     1       5.026   3.340  17.666  0.00  0.00    +0.000 OA
ATOM     25  H   UNL     1       5.806   3.620  18.175  0.00  0.00    +0.000 HD
ENDBRANCH  21  24
ENDBRANCH  15  18
BRANCH   1  26
ATOM     26  O   UNL     1      -5.435  12.413  16.971  0.00  0.00    +0.000 OA
BRANCH  26  27
ATOM     27  C   UNL     1      -6.552  11.844  17.661  0.00  0.00    +0.000 C 
BRANCH  27  28
ATOM     28  C   UNL     1      -7.494  12.961  18.101  0.00  0.00    +0.000 C 
BRANCH  28  29
ATOM     29  C   UNL     1      -6.978  14.326  17.671  0.00  0.00    +0.000 C 
BRANCH  29  30
ATOM     30  O   UNL     1      -5.996  14.783  18.593  0.00  0.00    +0.000 OA
ATOM     31  H   UNL     1      -6.467  15.196  19.337  0.00  0.00    +0.000 HD
ENDBRANCH  29  30
ENDBRANCH  28  29
ENDBRANCH  27  28
ENDBRANCH  26  27
ENDBRANCH   1  26
TORSDOF 7
ENDMDL
MODEL 2
REMARK VINA RESULT:      -7.4      0.958      1.126
REMARK  Name = 
REMARK  7 active torsions:
REMARK  status: ('A' for Active; 'I' for Inactive)
REMARK    1  A    between atoms: O_1  and  C_2
REMARK    2  A    between atoms: C_2  and  C_3
REMARK    3  A    between atoms: C_3  and  C_4
REMARK    4  A    between atoms: C_4  and  O_5
REMARK    5  A    between atoms: O_5  and  C_6
REMARK    6  A    between atoms: N_20  and  C_21
REMARK    7  A    between atoms: C_24  and  O_25
REMARK                            x       y       z     vdW  Elec       q    Type
REMARK                         _______ _______ _______ _____ _____    ______ ____
ROOT
ATOM      1  C   UNL     1      -4.345  11.644  16.995  0.00  0.00    +0.000 A 
ATOM      2  C   UNL     1      -4.096  10.899  15.831  0.00  0.00    +0.000 A 
ATOM      3  C   UNL     1      -2.962  10.098  15.707  0.00  0.00    +0.000 A 
ATOM      4  C   UNL     1      -2.027  10.013  16.739  0.00  0.00    +0.000 A 
ATOM      5  C   UNL     1      -2.266  10.747  17.911  0.00  0.00    +0.000 A 
ATOM      6  C   UNL     1      -3.411  11.538  18.051  0.00  0.00    +0.000 A 
ATOM      7  C   UNL     1      -3.318  12.057  19.357  0.00  0.00    +0.000 A 
ATOM      8  N   UNL     1      -2.235  11.643  20.016  0.00  0.00    +0.000 NA
ATOM      9  N   UNL     1      -1.572  10.855  19.116  0.00  0.00    +0.000 N 
ATOM     10  C   UNL     1      -0.342  10.208  19.480  0.00  0.00    +0.000 A 
ATOM     11  C   UNL     1       0.060  10.246  20.798  0.00  0.00    +0.000 A 
ATOM     12  C   UNL     1       1.168   9.492  21.101  0.00  0.00    +0.000 A 
ATOM     13  N   UNL     1       1.833   8.750  20.198  0.00  0.00    +0.000 NA
ATOM     14  C   UNL     1       1.415   8.818  18.930  0.00  0.00    +0.000 A 
ATOM     15  N   UNL     1       2.062   8.123  17.939  0.00  0.00    +0.000 N 
ATOM     16  N   UNL     1       0.362   9.543  18.535  0.00  0.00    +0.000 NA
ATOM     17  H   UNL     1       2.284   8.735  17.164  0.00  0.00    +0.000 HD
ENDROOT
BRANCH  15  18
ATOM     18  C   UNL     1       2.964   7.028  18.241  0.00  0.00    +0.000 C 
ATOM     19  C   UNL     1       2.155   5.727  18.074  0.00  0.00    +0.000 C 
ATOM     20  C   UNL     1       3.010   4.481  18.260  0.00  0.00    +0.000 C 
ATOM     21  C   UNL     1       4.211   4.500  17.320  0.00  0.00    +0.000 C 
ATOM     22  C   UNL     1       5.045   5.763  17.528  0.00  0.00    +0.000 C 
ATOM     23  C   UNL     1       4.206   7.029  17.340  0.00  0.00    +0.000 C 
BRANCH  21  24
ATOM     24  O   UNL     1       5.012   3.347  17.542  0.00  0.00    +0.000 OA
ATOM     25  H   UNL     1       5.361   3.386  18.449  0.00  0.00    +0.000 HD
ENDBRANCH  21  24
ENDBRANCH  15  18
BRANCH   1  26
ATOM     26  O   UNL     1      -5.438  12.456  17.183  0.00  0.00    +0.000 OA
BRANCH  26  27
ATOM     27  C   UNL     1      -6.652  11.806  17.573  0.00  0.00    +0.000 C 
BRANCH  27  28
ATOM     28  C   UNL     1      -7.020  12.234  18.991  0.00  0.00    +0.000 C 
BRANCH  28  29
ATOM     29  C   UNL     1      -6.912  11.072  19.968  0.00  0.00    +0.000 C 
BRANCH  29  30
ATOM     30  O   UNL     1      -6.499  11.548  21.242  0.00  0.00    +0.000 OA
ATOM     31  H   UNL     1      -5.852  10.912  21.594  0.00  0.00    +0.000 HD
ENDBRANCH  29  30
ENDBRANCH  28  29
ENDBRANCH  27  28
ENDBRANCH  26  27
ENDBRANCH   1  26
TORSDOF 7
ENDMDL
MODEL 3
REMARK VINA RESULT:      -7.2      4.070      9.583
REMARK  Name = 
REMARK  7 active torsions:
REMARK  status: ('A' for Active; 'I' for Inactive)
REMARK    1  A    between atoms: O_1  and  C_2
REMARK    2  A    between atoms: C_2  and  C_3
REMARK    3  A    between atoms: C_3  and  C_4
REMARK    4  A    between atoms: C_4  and  O_5
REMARK    5  A    between atoms: O_5  and  C_6
REMARK    6  A    between atoms: N_20  and  C_21
REMARK    7  A    between atoms: C_24  and  O_25
REMARK                            x       y       z     vdW  Elec       q    Type
REMARK                         _______ _______ _______ _____ _____    ______ ____
ROOT
ATOM      1  C   UNL     1       4.010   5.144  18.015  0.00  0.00    +0.000 A 
ATOM      2  C   UNL     1       4.479   5.976  16.985  0.00  0.00    +0.000 A 
ATOM      3  C   UNL     1       4.097   7.315  16.900  0.00  0.00    +0.000 A 
ATOM      4  C   UNL     1       3.227   7.874  17.836  0.00  0.00    +0.000 A 
ATOM      5  C   UNL     1       2.756   7.056  18.874  0.00  0.00    +0.000 A 
ATOM      6  C   UNL     1       3.149   5.717  18.978  0.00  0.00    +0.000 A 
ATOM      7  C   UNL     1       2.523   5.261  20.154  0.00  0.00    +0.000 A 
ATOM      8  N   UNL     1       1.803   6.200  20.770  0.00  0.00    +0.000 NA
ATOM      9  N   UNL     1       1.926   7.300  19.968  0.00  0.00    +0.000 N 
ATOM     10  C   UNL     1       1.287   8.537  20.323  0.00  0.00    +0.000 A 
ATOM     11  C   UNL     1       0.705   8.646  21.569  0.00  0.00    +0.000 A 
ATOM     12  C   UNL     1       0.237   9.896  21.895  0.00  0.00    +0.000 A 
ATOM     13  N   UNL     1       0.331  10.963  21.081  0.00  0.00    +0.000 NA
ATOM     14  C   UNL     1       0.852  10.756  19.868  0.00  0.00    +0.000 A 
ATOM     15  N   UNL     1       0.948  11.782  18.961  0.00  0.00    +0.000 N 
ATOM     16  N   UNL     1       1.312   9.571  19.451  0.00  0.00    +0.000 NA
ATOM     17  H   UNL     1       0.553  11.506  18.071  0.00  0.00    +0.000 HD
ENDROOT
BRANCH  15  18
ATOM     18  C   UNL     1       0.844  13.171  19.368  0.00  0.00    +0.000 C 
ATOM     19  C   UNL     1       2.219  13.814  19.106  0.00  0.00    +0.000 C 
ATOM     20  C   UNL     1       2.227  15.310  19.393  0.00  0.00    +0.000 C 
ATOM     21  C   UNL     1       1.134  16.020  18.602  0.00  0.00    +0.000 C 
ATOM     22  C   UNL     1      -0.237  15.419  18.906  0.00  0.00    +0.000 C 
ATOM     23  C   UNL     1      -0.269  13.917  18.619  0.00  0.00    +0.000 C 
BRANCH  21  24
ATOM     24  O   UNL     1       1.138  17.407  18.916  0.00  0.00    +0.000 OA
ATOM     25  H   UNL     1       0.221  17.684  19.085  0.00  0.00    +0.000 HD
ENDBRANCH  21  24
ENDBRANCH  15  18
BRANCH   1  26
ATOM     26  O   UNL     1       4.341   3.817  18.157  0.00  0.00    +0.000 OA
BRANCH  26  27
ATOM     27  C   UNL     1       3.458   2.873  17.542  0.00  0.00    +0.000 C 
BRANCH  27  28
ATOM     28  C   UNL     1       3.329   1.646  18.440  0.00  0.00    +0.000 C 
BRANCH  28  29
ATOM     29  C   UNL     1       3.834   1.930  19.847  0.00  0.00    +0.000 C 
BRANCH  29  30
ATOM     30  O   UNL     1       5.214   1.601  19.940  0.00  0.00    +0.000 OA
ATOM     31  H   UNL     1       5.275   0.718  20.344  0.00  0.00    +0.000 HD
ENDBRANCH  29  30
ENDBRANCH  28  29
ENDBRANCH  27  28
ENDBRANCH  26  27
ENDBRANCH   1  26
TORSDOF 7
ENDMDL
MODEL 4
REMARK VINA RESULT:      -7.2      4.104      9.183
REMARK  Name = 
REMARK  7 active torsions:
REMARK  status: ('A' for Active; 'I' for Inactive)
REMARK    1  A    between atoms: O_1  and  C_2
REMARK    2  A    between atoms: C_2  and  C_3
REMARK    3  A    between atoms: C_3  and  C_4
REMARK    4  A    between atoms: C_4  and  O_5
REMARK    5  A    between atoms: O_5  and  C_6
REMARK    6  A    between atoms: N_20  and  C_21
REMARK    7  A    between atoms: C_24  and  O_25
REMARK                            x       y       z     vdW  Elec       q    Type
REMARK                         _______ _______ _______ _____ _____    ______ ____
ROOT
ATOM      1  C   UNL     1       3.887   5.012  18.308  0.00  0.00    +0.000 A 
ATOM      2  C   UNL     1       4.331   5.815  17.244  0.00  0.00    +0.000 A 
ATOM      3  C   UNL     1       3.941   7.149  17.127  0.00  0.00    +0.000 A 
ATOM      4  C   UNL     1       3.090   7.733  18.064  0.00  0.00    +0.000 A 
ATOM      5  C   UNL     1       2.645   6.945  19.136  0.00  0.00    +0.000 A 
ATOM      6  C   UNL     1       3.045   5.612  19.272  0.00  0.00    +0.000 A 
ATOM      7  C   UNL     1       2.446   5.190  20.475  0.00  0.00    +0.000 A 
ATOM      8  N   UNL     1       1.737   6.144  21.078  0.00  0.00    +0.000 NA
ATOM      9  N   UNL     1       1.838   7.220  20.240  0.00  0.00    +0.000 N 
ATOM     10  C   UNL     1       1.201   8.464  20.572  0.00  0.00    +0.000 A 
ATOM     11  C   UNL     1       0.646   8.610  21.826  0.00  0.00    +0.000 A 
ATOM     12  C   UNL     1       0.180   9.867  22.124  0.00  0.00    +0.000 A 
ATOM     13  N   UNL     1       0.252  10.909  21.276  0.00  0.00    +0.000 NA
ATOM     14  C   UNL     1       0.747  10.667  20.059  0.00  0.00    +0.000 A 
ATOM     15  N   UNL     1       0.819  11.666  19.119  0.00  0.00    +0.000 N 
ATOM     16  N   UNL     1       1.203   9.472  19.668  0.00  0.00    +0.000 NA
ATOM     17  H   UNL     1       0.406  11.361  18.247  0.00  0.00    +0.000 HD
ENDROOT
BRANCH  15  18
ATOM     18  C   UNL     1       0.718  13.066  19.486  0.00  0.00    +0.000 C 
ATOM     19  C   UNL     1       2.152  13.630  19.484  0.00  0.00    +0.000 C 
ATOM     20  C   UNL     1       2.190  15.128  19.752  0.00  0.00    +0.000 C 
ATOM     21  C   UNL     1       1.306  15.880  18.762  0.00  0.00    +0.000 C 
ATOM     22  C   UNL     1      -0.128  15.359  18.807  0.00  0.00    +0.000 C 
ATOM     23  C   UNL     1      -0.190  13.855  18.534  0.00  0.00    +0.000 C 
BRANCH  21  24
ATOM     24  O   UNL     1       1.328  17.270  19.059  0.00  0.00    +0.000 OA
ATOM     25  H   UNL     1       2.044  17.436  19.696  0.00  0.00    +0.000 HD
ENDBRANCH  21  24
ENDBRANCH  15  18
BRANCH   1  26
ATOM     26  O   UNL     1       4.227   3.692  18.483  0.00  0.00    +0.000 OA
BRANCH  26  27
ATOM     27  C   UNL     1       3.474   2.737  17.727  0.00  0.00    +0.000 C 
BRANCH  27  28
ATOM     28  C   UNL     1       2.674   1.857  18.683  0.00  0.00    +0.000 C 
BRANCH  28  29
ATOM     29  C   UNL     1       1.202   2.242  18.694  0.00  0.00    +0.000 C 
BRANCH  29  30
ATOM     30  O   UNL     1       0.982   3.334  17.812  0.00  0.00    +0.000 OA
ATOM     31  H   UNL     1       0.953   2.975  16.908  0.00  0.00    +0.000 HD
ENDBRANCH  29  30
ENDBRANCH  28  29
ENDBRANCH  27  28
ENDBRANCH  26  27
ENDBRANCH   1  26
TORSDOF 7
ENDMDL
MODEL 5
REMARK VINA RESULT:      -6.7      3.815      4.781
REMARK  Name = 
REMARK  7 active torsions:
REMARK  status: ('A' for Active; 'I' for Inactive)
REMARK    1  A    between atoms: O_1  and  C_2
REMARK    2  A    between atoms: C_2  and  C_3
REMARK    3  A    between atoms: C_3  and  C_4
REMARK    4  A    between atoms: C_4  and  O_5
REMARK    5  A    between atoms: O_5  and  C_6
REMARK    6  A    between atoms: N_20  and  C_21
REMARK    7  A    between atoms: C_24  and  O_25
REMARK                            x       y       z     vdW  Elec       q    Type
REMARK                         _______ _______ _______ _____ _____    ______ ____
ROOT
ATOM      1  C   UNL     1      -0.974  11.816  22.214  0.00  0.00    +0.000 A 
ATOM      2  C   UNL     1      -1.147  10.807  23.175  0.00  0.00    +0.000 A 
ATOM      3  C   UNL     1      -0.656   9.517  22.973  0.00  0.00    +0.000 A 
ATOM      4  C   UNL     1       0.023   9.182  21.801  0.00  0.00    +0.000 A 
ATOM      5  C   UNL     1       0.209  10.183  20.836  0.00  0.00    +0.000 A 
ATOM      6  C   UNL     1      -0.264  11.484  21.038  0.00  0.00    +0.000 A 
ATOM      7  C   UNL     1       0.159  12.189  19.894  0.00  0.00    +0.000 A 
ATOM      8  N   UNL     1       0.849  11.439  19.033  0.00  0.00    +0.000 NA
ATOM      9  N   UNL     1       0.859  10.196  19.601  0.00  0.00    +0.000 N 
ATOM     10  C   UNL     1       1.535   9.105  18.956  0.00  0.00    +0.000 A 
ATOM     11  C   UNL     1       2.323   9.373  17.857  0.00  0.00    +0.000 A 
ATOM     12  C   UNL     1       3.049   8.310  17.376  0.00  0.00    +0.000 A 
ATOM     13  N   UNL     1       3.022   7.081  17.922  0.00  0.00    +0.000 NA
ATOM     14  C   UNL     1       2.184   6.891  18.946  0.00  0.00    +0.000 A 
ATOM     15  N   UNL     1       2.065   5.657  19.535  0.00  0.00    +0.000 N 
ATOM     16  N   UNL     1       1.419   7.857  19.467  0.00  0.00    +0.000 NA
ATOM     17  H   UNL     1       1.091   5.387  19.598  0.00  0.00    +0.000 HD
ENDROOT
BRANCH  15  18
ATOM     18  C   UNL     1       3.062   4.621  19.344  0.00  0.00    +0.000 C 
ATOM     19  C   UNL     1       2.846   3.584  20.463  0.00  0.00    +0.000 C 
ATOM     20  C   UNL     1       3.764   2.377  20.324  0.00  0.00    +0.000 C 
ATOM     21  C   UNL     1       3.615   1.735  18.949  0.00  0.00    +0.000 C 
ATOM     22  C   UNL     1       3.887   2.750  17.842  0.00  0.00    +0.000 C 
ATOM     23  C   UNL     1       2.970   3.970  17.958  0.00  0.00    +0.000 C 
BRANCH  21  24
ATOM     24  O   UNL     1       4.510   0.637  18.832  0.00  0.00    +0.000 OA
ATOM     25  H   UNL     1       4.016  -0.181  19.017  0.00  0.00    +0.000 HD
ENDBRANCH  21  24
ENDBRANCH  15  18
BRANCH   1  26
ATOM     26  O   UNL     1      -1.434  13.105  22.344  0.00  0.00    +0.000 OA
BRANCH  26  27
ATOM     27  C   UNL     1      -1.290  13.703  23.636  0.00  0.00    +0.000 C 
BRANCH  27  28
ATOM     28  C   UNL     1      -2.652  14.190  24.121  0.00  0.00    +0.000 C 
BRANCH  28  29
ATOM     29  C   UNL     1      -3.748  13.871  23.114  0.00  0.00    +0.000 C 
BRANCH  29  30
ATOM     30  O   UNL     1      -4.266  12.570  23.361  0.00  0.00    +0.000 OA
ATOM     31  H   UNL     1      -3.850  12.242  24.177  0.00  0.00    +0.000 HD
ENDBRANCH  29  30
ENDBRANCH  28  29
ENDBRANCH  27  28
ENDBRANCH  26  27
ENDBRANCH   1  26
TORSDOF 7
ENDMDL
MODEL 6
REMARK VINA RESULT:      -6.7      4.028      9.736
REMARK  Name = 
REMARK  7 active torsions:
REMARK  status: ('A' for Active; 'I' for Inactive)
REMARK    1  A    between atoms: O_1  and  C_2
REMARK    2  A    between atoms: C_2  and  C_3
REMARK    3  A    between atoms: C_3  and  C_4
REMARK    4  A    between atoms: C_4  and  O_5
REMARK    5  A    between atoms: O_5  and  C_6
REMARK    6  A    between atoms: N_20  and  C_21
REMARK    7  A    between atoms: C_24  and  O_25
REMARK                            x       y       z     vdW  Elec       q    Type
REMARK                         _______ _______ _______ _____ _____    ______ ____
ROOT
ATOM      1  C   UNL     1       2.715   5.638  19.137  0.00  0.00    +0.000 A 
ATOM      2  C   UNL     1       2.135   5.266  20.361  0.00  0.00    +0.000 A 
ATOM      3  C   UNL     1       1.439   6.184  21.146  0.00  0.00    +0.000 A 
ATOM      4  C   UNL     1       1.299   7.513  20.744  0.00  0.00    +0.000 A 
ATOM      5  C   UNL     1       1.868   7.897  19.520  0.00  0.00    +0.000 A 
ATOM      6  C   UNL     1       2.551   6.978  18.717  0.00  0.00    +0.000 A 
ATOM      7  C   UNL     1       2.915   7.717  17.574  0.00  0.00    +0.000 A 
ATOM      8  N   UNL     1       2.505   8.986  17.611  0.00  0.00    +0.000 NA
ATOM      9  N   UNL     1       1.881   9.105  18.822  0.00  0.00    +0.000 N 
ATOM     10  C   UNL     1       1.286  10.351  19.216  0.00  0.00    +0.000 A 
ATOM     11  C   UNL     1       1.195  11.365  18.286  0.00  0.00    +0.000 A 
ATOM     12  C   UNL     1       0.492  12.474  18.687  0.00  0.00    +0.000 A 
ATOM     13  N   UNL     1      -0.086  12.594  19.896  0.00  0.00    +0.000 NA
ATOM     14  C   UNL     1       0.103  11.592  20.760  0.00  0.00    +0.000 A 
ATOM     15  N   UNL     1      -0.419  11.651  22.028  0.00  0.00    +0.000 N 
ATOM     16  N   UNL     1       0.792  10.483  20.470  0.00  0.00    +0.000 NA
ATOM     17  H   UNL     1       0.296  11.450  22.715  0.00  0.00    +0.000 HD
ENDROOT
BRANCH  15  18
ATOM     18  C   UNL     1      -1.474  12.585  22.375  0.00  0.00    +0.000 C 
ATOM     19  C   UNL     1      -2.471  11.818  23.265  0.00  0.00    +0.000 C 
ATOM     20  C   UNL     1      -3.586  12.709  23.794  0.00  0.00    +0.000 C 
ATOM     21  C   UNL     1      -3.015  13.916  24.531  0.00  0.00    +0.000 C 
ATOM     22  C   UNL     1      -2.071  14.708  23.629  0.00  0.00    +0.000 C 
ATOM     23  C   UNL     1      -0.938  13.833  23.090  0.00  0.00    +0.000 C 
BRANCH  21  24
ATOM     24  O   UNL     1      -4.074  14.750  24.979  0.00  0.00    +0.000 OA
ATOM     25  H   UNL     1      -3.700  15.613  25.227  0.00  0.00    +0.000 HD
ENDBRANCH  21  24
ENDBRANCH  15  18
BRANCH   1  26
ATOM     26  O   UNL     1       3.417   4.789  18.315  0.00  0.00    +0.000 OA
BRANCH  26  27
ATOM     27  C   UNL     1       2.645   4.027  17.381  0.00  0.00    +0.000 C 
BRANCH  27  28
ATOM     28  C   UNL     1       2.574   2.577  17.850  0.00  0.00    +0.000 C 
BRANCH  28  29
ATOM     29  C   UNL     1       3.795   2.199  18.676  0.00  0.00    +0.000 C 
BRANCH  29  30
ATOM     30  O   UNL     1       4.144   0.843  18.428  0.00  0.00    +0.000 OA
ATOM     31  H   UNL     1       3.569   0.289  18.985  0.00  0.00    +0.000 HD
ENDBRANCH  29  30
ENDBRANCH  28  29
ENDBRANCH  27  28
ENDBRANCH  26  27
ENDBRANCH   1  26
TORSDOF 7
ENDMDL
MODEL 7
REMARK VINA RESULT:      -6.7      4.402      9.172
REMARK  Name = 
REMARK  7 active torsions:
REMARK  status: ('A' for Active; 'I' for Inactive)
REMARK    1  A    between atoms: O_1  and  C_2
REMARK    2  A    between atoms: C_2  and  C_3
REMARK    3  A    between atoms: C_3  and  C_4
REMARK    4  A    between atoms: C_4  and  O_5
REMARK    5  A    between atoms: O_5  and  C_6
REMARK    6  A    between atoms: N_20  and  C_21
REMARK    7  A    between atoms: C_24  and  O_25
REMARK                            x       y       z     vdW  Elec       q    Type
REMARK                         _______ _______ _______ _____ _____    ______ ____
ROOT
ATOM      1  C   UNL     1       3.105   5.671  18.740  0.00  0.00    +0.000 A 
ATOM      2  C   UNL     1       3.692   6.329  17.646  0.00  0.00    +0.000 A 
ATOM      3  C   UNL     1       3.488   7.690  17.420  0.00  0.00    +0.000 A 
ATOM      4  C   UNL     1       2.686   8.447  18.273  0.00  0.00    +0.000 A 
ATOM      5  C   UNL     1       2.100   7.805  19.374  0.00  0.00    +0.000 A 
ATOM      6  C   UNL     1       2.314   6.445  19.620  0.00  0.00    +0.000 A 
ATOM      7  C   UNL     1       1.618   6.194  20.818  0.00  0.00    +0.000 A 
ATOM      8  N   UNL     1       1.019   7.275  21.320  0.00  0.00    +0.000 NA
ATOM      9  N   UNL     1       1.294   8.264  20.417  0.00  0.00    +0.000 N 
ATOM     10  C   UNL     1       0.816   9.601  20.632  0.00  0.00    +0.000 A 
ATOM     11  C   UNL     1       0.237   9.910  21.845  0.00  0.00    +0.000 A 
ATOM     12  C   UNL     1      -0.069  11.235  22.033  0.00  0.00    +0.000 A 
ATOM     13  N   UNL     1       0.174  12.194  21.121  0.00  0.00    +0.000 NA
ATOM     14  C   UNL     1       0.679  11.800  19.948  0.00  0.00    +0.000 A 
ATOM     15  N   UNL     1       0.919  12.708  18.947  0.00  0.00    +0.000 N 
ATOM     16  N   UNL     1       0.987  10.530  19.662  0.00  0.00    +0.000 NA
ATOM     17  H   UNL     1       0.504  12.397  18.079  0.00  0.00    +0.000 HD
ENDROOT
BRANCH  15  18
ATOM     18  C   UNL     1       0.991  14.133  19.212  0.00  0.00    +0.000 C 
ATOM     19  C   UNL     1       2.374  14.606  18.724  0.00  0.00    +0.000 C 
ATOM     20  C   UNL     1       2.551  16.114  18.845  0.00  0.00    +0.000 C 
ATOM     21  C   UNL     1       1.433  16.853  18.116  0.00  0.00    +0.000 C 
ATOM     22  C   UNL     1       0.065  16.425  18.642  0.00  0.00    +0.000 C 
ATOM     23  C   UNL     1      -0.137  14.913  18.524  0.00  0.00    +0.000 C 
BRANCH  21  24
ATOM     24  O   UNL     1       1.600  18.255  18.278  0.00  0.00    +0.000 OA
ATOM     25  H   UNL     1       2.515  18.484  18.040  0.00  0.00    +0.000 HD
ENDBRANCH  21  24
ENDBRANCH  15  18
BRANCH   1  26
ATOM     26  O   UNL     1       3.259   4.335  19.021  0.00  0.00    +0.000 OA
BRANCH  26  27
ATOM     27  C   UNL     1       2.200   3.471  18.597  0.00  0.00    +0.000 C 
BRANCH  27  28
ATOM     28  C   UNL     1       1.720   2.641  19.785  0.00  0.00    +0.000 C 
BRANCH  28  29
ATOM     29  C   UNL     1       2.736   2.651  20.917  0.00  0.00    +0.000 C 
BRANCH  29  30
ATOM     30  O   UNL     1       2.083   2.928  22.149  0.00  0.00    +0.000 OA
ATOM     31  H   UNL     1       2.725   2.762  22.862  0.00  0.00    +0.000 HD
ENDBRANCH  29  30
ENDBRANCH  28  29
ENDBRANCH  27  28
ENDBRANCH  26  27
ENDBRANCH   1  26
TORSDOF 7
ENDMDL
MODEL 8
REMARK VINA RESULT:      -6.6      4.643     10.424
REMARK  Name = 
REMARK  7 active torsions:
REMARK  status: ('A' for Active; 'I' for Inactive)
REMARK    1  A    between atoms: O_1  and  C_2
REMARK    2  A    between atoms: C_2  and  C_3
REMARK    3  A    between atoms: C_3  and  C_4
REMARK    4  A    between atoms: C_4  and  O_5
REMARK    5  A    between atoms: O_5  and  C_6
REMARK    6  A    between atoms: N_20  and  C_21
REMARK    7  A    between atoms: C_24  and  O_25
REMARK                            x       y       z     vdW  Elec       q    Type
REMARK                         _______ _______ _______ _____ _____    ______ ____
ROOT
ATOM      1  C   UNL     1       5.723   4.573  15.173  0.00  0.00    +0.000 A 
ATOM      2  C   UNL     1       5.805   5.930  14.819  0.00  0.00    +0.000 A 
ATOM      3  C   UNL     1       5.129   6.913  15.542  0.00  0.00    +0.000 A 
ATOM      4  C   UNL     1       4.340   6.579  16.643  0.00  0.00    +0.000 A 
ATOM      5  C   UNL     1       4.255   5.229  17.012  0.00  0.00    +0.000 A 
ATOM      6  C   UNL     1       4.945   4.238  16.304  0.00  0.00    +0.000 A 
ATOM      7  C   UNL     1       4.656   3.048  17.000  0.00  0.00    +0.000 A 
ATOM      8  N   UNL     1       3.870   3.232  18.062  0.00  0.00    +0.000 NA
ATOM      9  N   UNL     1       3.602   4.573  18.056  0.00  0.00    +0.000 N 
ATOM     10  C   UNL     1       2.781   5.157  19.080  0.00  0.00    +0.000 A 
ATOM     11  C   UNL     1       2.423   4.383  20.163  0.00  0.00    +0.000 A 
ATOM     12  C   UNL     1       1.759   5.042  21.168  0.00  0.00    +0.000 A 
ATOM     13  N   UNL     1       1.468   6.355  21.133  0.00  0.00    +0.000 NA
ATOM     14  C   UNL     1       1.795   7.018  20.020  0.00  0.00    +0.000 A 
ATOM     15  N   UNL     1       1.499   8.352  19.886  0.00  0.00    +0.000 N 
ATOM     16  N   UNL     1       2.421   6.458  18.979  0.00  0.00    +0.000 NA
ATOM     17  H   UNL     1       1.021   8.522  19.010  0.00  0.00    +0.000 HD
ENDROOT
BRANCH  15  18
ATOM     18  C   UNL     1       1.167   9.178  21.031  0.00  0.00    +0.000 C 
ATOM     19  C   UNL     1       0.968  10.612  20.502  0.00  0.00    +0.000 C 
ATOM     20  C   UNL     1       0.510  11.576  21.588  0.00  0.00    +0.000 C 
ATOM     21  C   UNL     1      -0.755  11.066  22.270  0.00  0.00    +0.000 C 
ATOM     22  C   UNL     1      -0.539   9.668  22.844  0.00  0.00    +0.000 C 
ATOM     23  C   UNL     1      -0.083   8.680  21.768  0.00  0.00    +0.000 C 
BRANCH  21  24
ATOM     24  O   UNL     1      -1.139  11.963  23.304  0.00  0.00    +0.000 OA
ATOM     25  H   UNL     1      -0.725  12.825  23.130  0.00  0.00    +0.000 HD
ENDBRANCH  21  24
ENDBRANCH  15  18
BRANCH   1  26
ATOM     26  O   UNL     1       6.357   3.553  14.504  0.00  0.00    +0.000 OA
BRANCH  26  27
ATOM     27  C   UNL     1       6.670   3.794  13.128  0.00  0.00    +0.000 C 
BRANCH  27  28
ATOM     28  C   UNL     1       5.487   3.368  12.262  0.00  0.00    +0.000 C 
BRANCH  28  29
ATOM     29  C   UNL     1       5.722   2.004  11.631  0.00  0.00    +0.000 C 
BRANCH  29  30
ATOM     30  O   UNL     1       7.116   1.787  11.453  0.00  0.00    +0.000 OA
ATOM     31  H   UNL     1       7.243   0.836  11.290  0.00  0.00    +0.000 HD
ENDBRANCH  29  30
ENDBRANCH  28  29
ENDBRANCH  27  28
ENDBRANCH  26  27
ENDBRANCH   1  26
TORSDOF 7
ENDMDL
MODEL 9
REMARK VINA RESULT:      -6.6      3.972      9.813
REMARK  Name = 
REMARK  7 active torsions:
REMARK  status: ('A' for Active; 'I' for Inactive)
REMARK    1  A    between atoms: O_1  and  C_2
REMARK    2  A    between atoms: C_2  and  C_3
REMARK    3  A    between atoms: C_3  and  C_4
REMARK    4  A    between atoms: C_4  and  O_5
REMARK    5  A    between atoms: O_5  and  C_6
REMARK    6  A    between atoms: N_20  and  C_21
REMARK    7  A    between atoms: C_24  and  O_25
REMARK                            x       y       z     vdW  Elec       q    Type
REMARK                         _______ _______ _______ _____ _____    ______ ____
ROOT
ATOM      1  C   UNL     1       2.765   5.768  19.097  0.00  0.00    +0.000 A 
ATOM      2  C   UNL     1       2.181   5.374  20.312  0.00  0.00    +0.000 A 
ATOM      3  C   UNL     1       1.467   6.274  21.103  0.00  0.00    +0.000 A 
ATOM      4  C   UNL     1       1.312   7.604  20.714  0.00  0.00    +0.000 A 
ATOM      5  C   UNL     1       1.884   8.010  19.499  0.00  0.00    +0.000 A 
ATOM      6  C   UNL     1       2.586   7.110  18.691  0.00  0.00    +0.000 A 
ATOM      7  C   UNL     1       2.949   7.867  17.560  0.00  0.00    +0.000 A 
ATOM      8  N   UNL     1       2.521   9.130  17.608  0.00  0.00    +0.000 NA
ATOM      9  N   UNL     1       1.886   9.226  18.815  0.00  0.00    +0.000 N 
ATOM     10  C   UNL     1       1.272  10.460  19.219  0.00  0.00    +0.000 A 
ATOM     11  C   UNL     1       1.174  11.483  18.300  0.00  0.00    +0.000 A 
ATOM     12  C   UNL     1       0.453  12.578  18.708  0.00  0.00    +0.000 A 
ATOM     13  N   UNL     1      -0.136  12.676  19.913  0.00  0.00    +0.000 NA
ATOM     14  C   UNL     1       0.061  11.667  20.768  0.00  0.00    +0.000 A 
ATOM     15  N   UNL     1      -0.472  11.705  22.032  0.00  0.00    +0.000 N 
ATOM     16  N   UNL     1       0.767  10.571  20.470  0.00  0.00    +0.000 NA
ATOM     17  H   UNL     1       0.241  11.505  22.723  0.00  0.00    +0.000 HD
ENDROOT
BRANCH  15  18
ATOM     18  C   UNL     1      -1.542  12.620  22.382  0.00  0.00    +0.000 C 
ATOM     19  C   UNL     1      -2.543  11.825  23.244  0.00  0.00    +0.000 C 
ATOM     20  C   UNL     1      -3.675  12.694  23.773  0.00  0.00    +0.000 C 
ATOM     21  C   UNL     1      -3.128  13.893  24.540  0.00  0.00    +0.000 C 
ATOM     22  C   UNL     1      -2.181  14.713  23.666  0.00  0.00    +0.000 C 
ATOM     23  C   UNL     1      -1.031  13.860  23.127  0.00  0.00    +0.000 C 
BRANCH  21  24
ATOM     24  O   UNL     1      -4.203  14.707  24.989  0.00  0.00    +0.000 OA
ATOM     25  H   UNL     1      -3.869  15.296  25.688  0.00  0.00    +0.000 HD
ENDBRANCH  21  24
ENDBRANCH  15  18
BRANCH   1  26
ATOM     26  O   UNL     1       3.485   4.937  18.271  0.00  0.00    +0.000 OA
BRANCH  26  27
ATOM     27  C   UNL     1       4.773   4.532  18.746  0.00  0.00    +0.000 C 
BRANCH  27  28
ATOM     28  C   UNL     1       5.854   5.278  17.968  0.00  0.00    +0.000 C 
BRANCH  28  29
ATOM     29  C   UNL     1       6.209   4.557  16.676  0.00  0.00    +0.000 C 
BRANCH  29  30
ATOM     30  O   UNL     1       5.412   3.388  16.541  0.00  0.00    +0.000 OA
ATOM     31  H   UNL     1       4.665   3.612  15.959  0.00  0.00    +0.000 HD
ENDBRANCH  29  30
ENDBRANCH  28  29
ENDBRANCH  27  28
ENDBRANCH  26  27
ENDBRANCH   1  26
TORSDOF 7
ENDMDL
