MODEL 1
REMARK VINA RESULT:      -3.5      0.000      0.000
REMARK  Name = 
REMARK  3 active torsions:
REMARK  status: ('A' for Active; 'I' for Inactive)
REMARK    1  A    between atoms: P_2  and  O_3
REMARK    2  A    between atoms: P_2  and  O_4
REMARK    3  A    between atoms: P_2  and  O_5
REMARK                            x       y       z     vdW  Elec       q    Type
REMARK                         _______ _______ _______ _____ _____    ______ ____
ROOT
ATOM      1  O   UNL     1       7.291   5.560  15.768  0.00  0.00    +0.000 OA
ATOM      2  P   UNL     1       6.779   4.804  17.019  0.00  0.00    +0.000 P 
ENDROOT
BRANCH   2   3
ATOM      3  O   UNL     1       6.126   3.581  16.164  0.00  0.00    +0.000 OA
ATOM      4  H   UNL     1       5.992   2.832  16.775  0.00  0.00    +0.000 HD
ENDBRANCH   2   3
BRANCH   2   5
ATOM      5  O   UNL     1       8.210   4.087  17.316  0.00  0.00    +0.000 OA
ATOM      6  H   UNL     1       8.560   4.463  18.147  0.00  0.00    +0.000 HD
ENDBRANCH   2   5
BRANCH   2   7
ATOM      7  O   UNL     1       6.207   3.960  18.416  0.00  0.00    +0.000 OA
ATOM      8  H   UNL     1       5.593   4.590  18.839  0.00  0.00    +0.000 HD
ENDBRANCH   2   7
TORSDOF 3
ENDMDL
MODEL 2
REMARK VINA RESULT:      -3.4      9.931     10.755
REMARK  Name = 
REMARK  3 active torsions:
REMARK  status: ('A' for Active; 'I' for Inactive)
REMARK    1  A    between atoms: P_2  and  O_3
REMARK    2  A    between atoms: P_2  and  O_4
REMARK    3  A    between atoms: P_2  and  O_5
REMARK                            x       y       z     vdW  Elec       q    Type
REMARK                         _______ _______ _______ _____ _____    ______ ____
ROOT
ATOM      1  O   UNL     1       8.566   5.531  28.027  0.00  0.00    +0.000 OA
ATOM      2  P   UNL     1       7.332   4.600  27.943  0.00  0.00    +0.000 P 
ENDROOT
BRANCH   2   3
ATOM      3  O   UNL     1       6.305   5.797  27.536  0.00  0.00    +0.000 OA
ATOM      4  H   UNL     1       5.832   6.068  28.346  0.00  0.00    +0.000 HD
ENDBRANCH   2   3
BRANCH   2   5
ATOM      5  O   UNL     1       7.661   4.108  26.427  0.00  0.00    +0.000 OA
ATOM      6  H   UNL     1       8.571   4.396  26.215  0.00  0.00    +0.000 HD
ENDBRANCH   2   5
BRANCH   2   7
ATOM      7  O   UNL     1       5.953   3.560  27.849  0.00  0.00    +0.000 OA
ATOM      8  H   UNL     1       5.687   3.435  28.779  0.00  0.00    +0.000 HD
ENDBRANCH   2   7
TORSDOF 3
ENDMDL
MODEL 3
REMARK VINA RESULT:      -3.3      1.192      1.702
REMARK  Name = 
REMARK  3 active torsions:
REMARK  status: ('A' for Active; 'I' for Inactive)
REMARK    1  A    between atoms: P_2  and  O_3
REMARK    2  A    between atoms: P_2  and  O_4
REMARK    3  A    between atoms: P_2  and  O_5
REMARK                            x       y       z     vdW  Elec       q    Type
REMARK                         _______ _______ _______ _____ _____    ______ ____
ROOT
ATOM      1  O   UNL     1       7.525   6.439  16.716  0.00  0.00    +0.000 OA
ATOM      2  P   UNL     1       6.870   5.086  16.346  0.00  0.00    +0.000 P 
ENDROOT
BRANCH   2   3
ATOM      3  O   UNL     1       7.496   5.055  14.843  0.00  0.00    +0.000 OA
ATOM      4  H   UNL     1       8.245   4.428  14.848  0.00  0.00    +0.000 HD
ENDBRANCH   2   3
BRANCH   2   5
ATOM      5  O   UNL     1       8.033   4.195  17.055  0.00  0.00    +0.000 OA
ATOM      6  H   UNL     1       8.725   4.029  16.386  0.00  0.00    +0.000 HD
ENDBRANCH   2   5
BRANCH   2   7
ATOM      7  O   UNL     1       6.137   3.575  15.932  0.00  0.00    +0.000 OA
ATOM      8  H   UNL     1       5.853   3.206  16.791  0.00  0.00    +0.000 HD
ENDBRANCH   2   7
TORSDOF 3
ENDMDL
MODEL 4
REMARK VINA RESULT:      -3.3      1.150      1.543
REMARK  Name = 
REMARK  3 active torsions:
REMARK  status: ('A' for Active; 'I' for Inactive)
REMARK    1  A    between atoms: P_2  and  O_3
REMARK    2  A    between atoms: P_2  and  O_4
REMARK    3  A    between atoms: P_2  and  O_5
REMARK                            x       y       z     vdW  Elec       q    Type
REMARK                         _______ _______ _______ _____ _____    ______ ____
ROOT
ATOM      1  O   UNL     1       7.485   6.161  16.330  0.00  0.00    +0.000 OA
ATOM      2  P   UNL     1       6.938   5.160  17.376  0.00  0.00    +0.000 P 
ENDROOT
BRANCH   2   3
ATOM      3  O   UNL     1       8.143   4.086  17.159  0.00  0.00    +0.000 OA
ATOM      4  H   UNL     1       7.746   3.193  17.151  0.00  0.00    +0.000 HD
ENDBRANCH   2   3
BRANCH   2   5
ATOM      5  O   UNL     1       7.603   5.939  18.642  0.00  0.00    +0.000 OA
ATOM      6  H   UNL     1       8.060   6.729  18.293  0.00  0.00    +0.000 HD
ENDBRANCH   2   5
BRANCH   2   7
ATOM      7  O   UNL     1       6.327   4.041  18.546  0.00  0.00    +0.000 OA
ATOM      8  H   UNL     1       7.123   3.572  18.864  0.00  0.00    +0.000 HD
ENDBRANCH   2   7
TORSDOF 3
ENDMDL
MODEL 5
REMARK VINA RESULT:      -3.3      1.307      2.435
REMARK  Name = 
REMARK  3 active torsions:
REMARK  status: ('A' for Active; 'I' for Inactive)
REMARK    1  A    between atoms: P_2  and  O_3
REMARK    2  A    between atoms: P_2  and  O_4
REMARK    3  A    between atoms: P_2  and  O_5
REMARK                            x       y       z     vdW  Elec       q    Type
REMARK                         _______ _______ _______ _____ _____    ______ ____
ROOT
ATOM      1  O   UNL     1       6.122   3.691  15.521  0.00  0.00    +0.000 OA
ATOM      2  P   UNL     1       6.789   4.985  16.048  0.00  0.00    +0.000 P 
ENDROOT
BRANCH   2   3
ATOM      3  O   UNL     1       7.950   4.196  16.874  0.00  0.00    +0.000 OA
ATOM      4  H   UNL     1       7.646   4.106  17.798  0.00  0.00    +0.000 HD
ENDBRANCH   2   3
BRANCH   2   5
ATOM      5  O   UNL     1       7.655   5.230  14.691  0.00  0.00    +0.000 OA
ATOM      6  H   UNL     1       8.157   6.060  14.810  0.00  0.00    +0.000 HD
ENDBRANCH   2   5
BRANCH   2   7
ATOM      7  O   UNL     1       7.535   6.431  16.636  0.00  0.00    +0.000 OA
ATOM      8  H   UNL     1       8.491   6.268  16.522  0.00  0.00    +0.000 HD
ENDBRANCH   2   7
TORSDOF 3
ENDMDL
MODEL 6
REMARK VINA RESULT:      -3.3      1.613      2.809
REMARK  Name = 
REMARK  3 active torsions:
REMARK  status: ('A' for Active; 'I' for Inactive)
REMARK    1  A    between atoms: P_2  and  O_3
REMARK    2  A    between atoms: P_2  and  O_4
REMARK    3  A    between atoms: P_2  and  O_5
REMARK                            x       y       z     vdW  Elec       q    Type
REMARK                         _______ _______ _______ _____ _____    ______ ____
ROOT
ATOM      1  O   UNL     1       7.926   4.375  16.770  0.00  0.00    +0.000 OA
ATOM      2  P   UNL     1       6.857   5.280  16.113  0.00  0.00    +0.000 P 
ENDROOT
BRANCH   2   3
ATOM      3  O   UNL     1       7.538   6.667  16.629  0.00  0.00    +0.000 OA
ATOM      4  H   UNL     1       8.169   6.959  15.943  0.00  0.00    +0.000 HD
ENDBRANCH   2   3
BRANCH   2   5
ATOM      5  O   UNL     1       7.566   5.254  14.648  0.00  0.00    +0.000 OA
ATOM      6  H   UNL     1       8.339   5.850  14.685  0.00  0.00    +0.000 HD
ENDBRANCH   2   5
BRANCH   2   7
ATOM      7  O   UNL     1       5.662   6.293  15.378  0.00  0.00    +0.000 OA
ATOM      8  H   UNL     1       6.138   6.728  14.646  0.00  0.00    +0.000 HD
ENDBRANCH   2   7
TORSDOF 3
ENDMDL
MODEL 7
REMARK VINA RESULT:      -3.2      1.638      2.238
REMARK  Name = 
REMARK  3 active torsions:
REMARK  status: ('A' for Active; 'I' for Inactive)
REMARK    1  A    between atoms: P_2  and  O_3
REMARK    2  A    between atoms: P_2  and  O_4
REMARK    3  A    between atoms: P_2  and  O_5
REMARK                            x       y       z     vdW  Elec       q    Type
REMARK                         _______ _______ _______ _____ _____    ______ ____
ROOT
ATOM      1  O   UNL     1       5.636   6.232  15.375  0.00  0.00    +0.000 OA
ATOM      2  P   UNL     1       6.733   5.375  16.052  0.00  0.00    +0.000 P 
ENDROOT
BRANCH   2   3
ATOM      3  O   UNL     1       7.618   5.215  14.694  0.00  0.00    +0.000 OA
ATOM      4  H   UNL     1       7.304   5.885  14.056  0.00  0.00    +0.000 HD
ENDBRANCH   2   3
BRANCH   2   5
ATOM      5  O   UNL     1       7.533   6.661  16.650  0.00  0.00    +0.000 OA
ATOM      6  H   UNL     1       6.866   7.315  16.938  0.00  0.00    +0.000 HD
ENDBRANCH   2   5
BRANCH   2   7
ATOM      7  O   UNL     1       7.959   4.418  16.809  0.00  0.00    +0.000 OA
ATOM      8  H   UNL     1       7.923   4.685  17.747  0.00  0.00    +0.000 HD
ENDBRANCH   2   7
TORSDOF 3
ENDMDL
MODEL 8
REMARK VINA RESULT:      -3.2      1.890      3.296
REMARK  Name = 
REMARK  3 active torsions:
REMARK  status: ('A' for Active; 'I' for Inactive)
REMARK    1  A    between atoms: P_2  and  O_3
REMARK    2  A    between atoms: P_2  and  O_4
REMARK    3  A    between atoms: P_2  and  O_5
REMARK                            x       y       z     vdW  Elec       q    Type
REMARK                         _______ _______ _______ _____ _____    ______ ____
ROOT
ATOM      1  O   UNL     1       4.662   5.522  19.428  0.00  0.00    +0.000 OA
ATOM      2  P   UNL     1       5.897   4.905  18.729  0.00  0.00    +0.000 P 
ENDROOT
BRANCH   2   3
ATOM      3  O   UNL     1       6.928   5.310  19.923  0.00  0.00    +0.000 OA
ATOM      4  H   UNL     1       6.427   5.302  20.761  0.00  0.00    +0.000 HD
ENDBRANCH   2   3
BRANCH   2   5
ATOM      5  O   UNL     1       5.585   3.395  19.251  0.00  0.00    +0.000 OA
ATOM      6  H   UNL     1       4.617   3.267  19.216  0.00  0.00    +0.000 HD
ENDBRANCH   2   5
BRANCH   2   7
ATOM      7  O   UNL     1       7.278   4.215  17.947  0.00  0.00    +0.000 OA
ATOM      8  H   UNL     1       7.861   4.979  17.777  0.00  0.00    +0.000 HD
ENDBRANCH   2   7
TORSDOF 3
ENDMDL
MODEL 9
REMARK VINA RESULT:      -3.2      0.412      2.603
REMARK  Name = 
REMARK  3 active torsions:
REMARK  status: ('A' for Active; 'I' for Inactive)
REMARK    1  A    between atoms: P_2  and  O_3
REMARK    2  A    between atoms: P_2  and  O_4
REMARK    3  A    between atoms: P_2  and  O_5
REMARK                            x       y       z     vdW  Elec       q    Type
REMARK                         _______ _______ _______ _____ _____    ______ ____
ROOT
ATOM      1  O   UNL     1       6.334   4.340  18.801  0.00  0.00    +0.000 OA
ATOM      2  P   UNL     1       6.851   4.918  17.461  0.00  0.00    +0.000 P 
ENDROOT
BRANCH   2   3
ATOM      3  O   UNL     1       8.253   4.090  17.503  0.00  0.00    +0.000 OA
ATOM      4  H   UNL     1       8.956   4.684  17.177  0.00  0.00    +0.000 HD
ENDBRANCH   2   3
BRANCH   2   5
ATOM      5  O   UNL     1       6.027   3.852  16.548  0.00  0.00    +0.000 OA
ATOM      6  H   UNL     1       5.373   3.413  17.127  0.00  0.00    +0.000 HD
ENDBRANCH   2   5
BRANCH   2   7
ATOM      7  O   UNL     1       7.428   5.564  15.963  0.00  0.00    +0.000 OA
ATOM      8  H   UNL     1       7.331   4.826  15.333  0.00  0.00    +0.000 HD
ENDBRANCH   2   7
TORSDOF 3
ENDMDL
