MODEL 1
REMARK VINA RESULT:      -7.3      0.000      0.000
REMARK  Name = 
REMARK  10 active torsions:
REMARK  status: ('A' for Active; 'I' for Inactive)
REMARK    1  A    between atoms: C_1  and  C_2
REMARK    2  A    between atoms: C_6  and  N_7
REMARK    3  A    between atoms: N_7  and  C_8
REMARK    4  A    between atoms: C_8  and  O_10
REMARK    5  A    between atoms: O_10  and  C_11
REMARK    6  A    between atoms: C_11  and  C_12
REMARK    7  A    between atoms: C_12  and  N_13
REMARK    8  A    between atoms: C_14  and  C_16
REMARK    9  A    between atoms: C_21  and  C_22
REMARK   10  A    between atoms: C_22  and  O_24
REMARK                            x       y       z     vdW  Elec       q    Type
REMARK                         _______ _______ _______ _____ _____    ______ ____
ROOT
ATOM      1  C   UNL     1       4.196   2.154  19.403  0.00  0.00    +0.000 C 
ENDROOT
BRANCH   1   2
ATOM      2  N   UNL     1       5.188   3.203  19.190  0.00  0.00    +0.000 N 
ATOM      3  C   UNL     1       5.098   4.127  18.174  0.00  0.00    +0.000 C 
ATOM      4  O   UNL     1       4.152   4.155  17.389  0.00  0.00    +0.000 OA
ATOM      5  H   UNL     1       6.070   3.095  19.690  0.00  0.00    +0.000 HD
BRANCH   3   6
ATOM      6  C   UNL     1       6.119   5.216  18.087  0.00  0.00    +0.000 A 
ATOM      7  C   UNL     1       6.858   5.417  19.276  0.00  0.00    +0.000 A 
ATOM      8  C   UNL     1       7.856   6.392  19.362  0.00  0.00    +0.000 A 
ATOM      9  C   UNL     1       8.149   7.176  18.256  0.00  0.00    +0.000 A 
ATOM     10  C   UNL     1       7.433   6.994  17.072  0.00  0.00    +0.000 A 
ATOM     11  C   UNL     1       6.388   6.048  16.986  0.00  0.00    +0.000 A 
BRANCH  11  12
ATOM     12  C   UNL     1       5.633   5.995  15.707  0.00  0.00    +0.000 C 
ATOM     13  O   UNL     1       4.943   6.905  15.290  0.00  0.00    +0.000 OA
BRANCH  12  14
ATOM     14  O   UNL     1       5.767   4.821  15.052  0.00  0.00    +0.000 OA
ATOM     15  H   UNL     1       6.412   4.805  14.320  0.00  0.00    +0.000 HD
ENDBRANCH  12  14
ENDBRANCH  11  12
ENDBRANCH   3   6
ENDBRANCH   1   2
BRANCH   1  16
ATOM     16  C   UNL     1       3.252   2.506  20.544  0.00  0.00    +0.000 C 
BRANCH  16  17
ATOM     17  O   UNL     1       3.228   3.910  20.851  0.00  0.00    +0.000 OA
BRANCH  17  18
ATOM     18  C   UNL     1       2.090   4.625  20.584  0.00  0.00    +0.000 C 
ATOM     19  S   UNL     1       0.826   3.690  20.045  0.00  0.00    +0.000 S 
BRANCH  18  20
ATOM     20  N   UNL     1       2.183   5.989  20.764  0.00  0.00    +0.000 N 
ATOM     21  H   UNL     1       2.323   6.288  21.716  0.00  0.00    +0.000 HD
BRANCH  20  27
ATOM     22  C   UNL     1       0.737  10.635  19.721  0.00  0.00    +0.000 C 
ATOM     23  C   UNL     1       1.391   9.352  19.304  0.00  0.00    +0.000 A 
ATOM     24  C   UNL     1       1.971   9.192  18.043  0.00  0.00    +0.000 A 
ATOM     25  C   UNL     1       2.583   7.992  17.698  0.00  0.00    +0.000 A 
ATOM     26  C   UNL     1       2.606   6.940  18.615  0.00  0.00    +0.000 A 
ATOM     27  C   UNL     1       2.029   7.081  19.888  0.00  0.00    +0.000 A 
ATOM     28  C   UNL     1       1.437   8.291  20.224  0.00  0.00    +0.000 A 
ENDBRANCH  20  27
ENDBRANCH  18  20
ENDBRANCH  17  18
ENDBRANCH  16  17
ENDBRANCH   1  16
TORSDOF 9
ENDMDL
MODEL 2
REMARK VINA RESULT:      -7.0      2.450      4.745
REMARK  Name = 
REMARK  10 active torsions:
REMARK  status: ('A' for Active; 'I' for Inactive)
REMARK    1  A    between atoms: C_1  and  C_2
REMARK    2  A    between atoms: C_6  and  N_7
REMARK    3  A    between atoms: N_7  and  C_8
REMARK    4  A    between atoms: C_8  and  O_10
REMARK    5  A    between atoms: O_10  and  C_11
REMARK    6  A    between atoms: C_11  and  C_12
REMARK    7  A    between atoms: C_12  and  N_13
REMARK    8  A    between atoms: C_14  and  C_16
REMARK    9  A    between atoms: C_21  and  C_22
REMARK   10  A    between atoms: C_22  and  O_24
REMARK                            x       y       z     vdW  Elec       q    Type
REMARK                         _______ _______ _______ _____ _____    ______ ____
ROOT
ATOM      1  C   UNL     1       5.888   3.762  16.531  0.00  0.00    +0.000 C 
ENDROOT
BRANCH   1   2
ATOM      2  N   UNL     1       4.738   3.404  17.355  0.00  0.00    +0.000 N 
ATOM      3  C   UNL     1       4.712   3.571  18.721  0.00  0.00    +0.000 C 
ATOM      4  O   UNL     1       5.648   4.068  19.343  0.00  0.00    +0.000 OA
ATOM      5  H   UNL     1       4.032   2.819  16.909  0.00  0.00    +0.000 HD
BRANCH   3   6
ATOM      6  C   UNL     1       3.457   3.252  19.469  0.00  0.00    +0.000 A 
ATOM      7  C   UNL     1       3.657   2.926  20.830  0.00  0.00    +0.000 A 
ATOM      8  C   UNL     1       2.588   2.608  21.672  0.00  0.00    +0.000 A 
ATOM      9  C   UNL     1       1.293   2.626  21.176  0.00  0.00    +0.000 A 
ATOM     10  C   UNL     1       1.072   2.946  19.836  0.00  0.00    +0.000 A 
ATOM     11  C   UNL     1       2.146   3.219  18.961  0.00  0.00    +0.000 A 
BRANCH  11  12
ATOM     12  C   UNL     1       1.806   3.464  17.534  0.00  0.00    +0.000 C 
ATOM     13  O   UNL     1       2.152   2.738  16.623  0.00  0.00    +0.000 OA
BRANCH  12  14
ATOM     14  O   UNL     1       1.087   4.591  17.339  0.00  0.00    +0.000 OA
ATOM     15  H   UNL     1       0.232   4.485  16.881  0.00  0.00    +0.000 HD
ENDBRANCH  12  14
ENDBRANCH  11  12
ENDBRANCH   3   6
ENDBRANCH   1   2
BRANCH   1  16
ATOM     16  C   UNL     1       5.479   4.650  15.364  0.00  0.00    +0.000 C 
BRANCH  16  17
ATOM     17  O   UNL     1       5.914   6.012  15.505  0.00  0.00    +0.000 OA
BRANCH  17  18
ATOM     18  C   UNL     1       5.495   6.730  16.594  0.00  0.00    +0.000 C 
ATOM     19  S   UNL     1       6.733   7.214  17.591  0.00  0.00    +0.000 S 
BRANCH  18  20
ATOM     20  N   UNL     1       4.131   6.901  16.709  0.00  0.00    +0.000 N 
ATOM     21  H   UNL     1       3.599   6.687  15.881  0.00  0.00    +0.000 HD
BRANCH  20  27
ATOM     22  C   UNL     1       0.939  10.240  18.559  0.00  0.00    +0.000 C 
ATOM     23  C   UNL     1       1.724   8.972  18.707  0.00  0.00    +0.000 A 
ATOM     24  C   UNL     1       1.627   8.168  19.845  0.00  0.00    +0.000 A 
ATOM     25  C   UNL     1       2.360   6.991  19.938  0.00  0.00    +0.000 A 
ATOM     26  C   UNL     1       3.205   6.618  18.892  0.00  0.00    +0.000 A 
ATOM     27  C   UNL     1       3.317   7.411  17.738  0.00  0.00    +0.000 A 
ATOM     28  C   UNL     1       2.565   8.577  17.653  0.00  0.00    +0.000 A 
ENDBRANCH  20  27
ENDBRANCH  18  20
ENDBRANCH  17  18
ENDBRANCH  16  17
ENDBRANCH   1  16
TORSDOF 9
ENDMDL
MODEL 3
REMARK VINA RESULT:      -7.0      2.359      5.521
REMARK  Name = 
REMARK  10 active torsions:
REMARK  status: ('A' for Active; 'I' for Inactive)
REMARK    1  A    between atoms: C_1  and  C_2
REMARK    2  A    between atoms: C_6  and  N_7
REMARK    3  A    between atoms: N_7  and  C_8
REMARK    4  A    between atoms: C_8  and  O_10
REMARK    5  A    between atoms: O_10  and  C_11
REMARK    6  A    between atoms: C_11  and  C_12
REMARK    7  A    between atoms: C_12  and  N_13
REMARK    8  A    between atoms: C_14  and  C_16
REMARK    9  A    between atoms: C_21  and  C_22
REMARK   10  A    between atoms: C_22  and  O_24
REMARK                            x       y       z     vdW  Elec       q    Type
REMARK                         _______ _______ _______ _____ _____    ______ ____
ROOT
ATOM      1  C   UNL     1       1.001   3.161  20.934  0.00  0.00    +0.000 C 
ENDROOT
BRANCH   1   2
ATOM      2  N   UNL     1       1.140   4.406  20.184  0.00  0.00    +0.000 N 
ATOM      3  C   UNL     1       1.921   5.456  20.608  0.00  0.00    +0.000 C 
ATOM      4  O   UNL     1       2.590   5.407  21.638  0.00  0.00    +0.000 OA
ATOM      5  H   UNL     1       0.460   4.557  19.438  0.00  0.00    +0.000 HD
BRANCH   3   6
ATOM      6  C   UNL     1       2.065   6.657  19.729  0.00  0.00    +0.000 A 
ATOM      7  C   UNL     1       2.744   6.412  18.513  0.00  0.00    +0.000 A 
ATOM      8  C   UNL     1       2.958   7.426  17.576  0.00  0.00    +0.000 A 
ATOM      9  C   UNL     1       2.483   8.705  17.826  0.00  0.00    +0.000 A 
ATOM     10  C   UNL     1       1.809   8.970  19.019  0.00  0.00    +0.000 A 
ATOM     11  C   UNL     1       1.631   7.968  19.997  0.00  0.00    +0.000 A 
BRANCH  11  12
ATOM     12  C   UNL     1       0.976   8.377  21.268  0.00  0.00    +0.000 C 
ATOM     13  O   UNL     1       1.567   8.893  22.197  0.00  0.00    +0.000 OA
BRANCH  12  14
ATOM     14  O   UNL     1      -0.346   8.101  21.305  0.00  0.00    +0.000 OA
ATOM     15  H   UNL     1      -0.895   8.688  21.857  0.00  0.00    +0.000 HD
ENDBRANCH  12  14
ENDBRANCH  11  12
ENDBRANCH   3   6
ENDBRANCH   1   2
BRANCH   1  16
ATOM     16  C   UNL     1       1.988   2.109  20.449  0.00  0.00    +0.000 C 
BRANCH  16  17
ATOM     17  O   UNL     1       3.356   2.547  20.493  0.00  0.00    +0.000 OA
BRANCH  17  18
ATOM     18  C   UNL     1       4.074   2.588  19.327  0.00  0.00    +0.000 C 
ATOM     19  S   UNL     1       3.433   1.649  18.115  0.00  0.00    +0.000 S 
BRANCH  18  20
ATOM     20  N   UNL     1       5.218   3.358  19.354  0.00  0.00    +0.000 N 
ATOM     21  H   UNL     1       5.772   3.277  20.192  0.00  0.00    +0.000 HD
BRANCH  20  27
ATOM     22  C   UNL     1       5.703   5.411  14.847  0.00  0.00    +0.000 C 
ATOM     23  C   UNL     1       5.997   5.417  16.317  0.00  0.00    +0.000 A 
ATOM     24  C   UNL     1       6.736   6.438  16.920  0.00  0.00    +0.000 A 
ATOM     25  C   UNL     1       6.975   6.416  18.289  0.00  0.00    +0.000 A 
ATOM     26  C   UNL     1       6.484   5.362  19.061  0.00  0.00    +0.000 A 
ATOM     27  C   UNL     1       5.738   4.326  18.473  0.00  0.00    +0.000 A 
ATOM     28  C   UNL     1       5.493   4.370  17.107  0.00  0.00    +0.000 A 
ENDBRANCH  20  27
ENDBRANCH  18  20
ENDBRANCH  17  18
ENDBRANCH  16  17
ENDBRANCH   1  16
TORSDOF 9
ENDMDL
MODEL 4
REMARK VINA RESULT:      -6.9      2.777      5.955
REMARK  Name = 
REMARK  10 active torsions:
REMARK  status: ('A' for Active; 'I' for Inactive)
REMARK    1  A    between atoms: C_1  and  C_2
REMARK    2  A    between atoms: C_6  and  N_7
REMARK    3  A    between atoms: N_7  and  C_8
REMARK    4  A    between atoms: C_8  and  O_10
REMARK    5  A    between atoms: O_10  and  C_11
REMARK    6  A    between atoms: C_11  and  C_12
REMARK    7  A    between atoms: C_12  and  N_13
REMARK    8  A    between atoms: C_14  and  C_16
REMARK    9  A    between atoms: C_21  and  C_22
REMARK   10  A    between atoms: C_22  and  O_24
REMARK                            x       y       z     vdW  Elec       q    Type
REMARK                         _______ _______ _______ _____ _____    ______ ____
ROOT
ATOM      1  C   UNL     1       4.715   6.955  16.372  0.00  0.00    +0.000 C 
ENDROOT
BRANCH   1   2
ATOM      2  N   UNL     1       3.927   7.062  17.596  0.00  0.00    +0.000 N 
ATOM      3  C   UNL     1       2.970   8.031  17.791  0.00  0.00    +0.000 C 
ATOM      4  O   UNL     1       2.684   8.859  16.929  0.00  0.00    +0.000 OA
ATOM      5  H   UNL     1       4.265   6.525  18.394  0.00  0.00    +0.000 HD
BRANCH   3   6
ATOM      6  C   UNL     1       2.157   8.008  19.046  0.00  0.00    +0.000 A 
ATOM      7  C   UNL     1       2.271   6.813  19.793  0.00  0.00    +0.000 A 
ATOM      8  C   UNL     1       1.581   6.631  20.995  0.00  0.00    +0.000 A 
ATOM      9  C   UNL     1       0.774   7.647  21.485  0.00  0.00    +0.000 A 
ATOM     10  C   UNL     1       0.647   8.836  20.764  0.00  0.00    +0.000 A 
ATOM     11  C   UNL     1       1.298   9.014  19.524  0.00  0.00    +0.000 A 
BRANCH  11  12
ATOM     12  C   UNL     1       1.027  10.283  18.798  0.00  0.00    +0.000 C 
ATOM     13  O   UNL     1       1.528  11.350  19.093  0.00  0.00    +0.000 OA
BRANCH  12  14
ATOM     14  O   UNL     1       0.146  10.144  17.784  0.00  0.00    +0.000 OA
ATOM     15  H   UNL     1       0.055  10.906  17.182  0.00  0.00    +0.000 HD
ENDBRANCH  12  14
ENDBRANCH  11  12
ENDBRANCH   3   6
ENDBRANCH   1   2
BRANCH   1  16
ATOM     16  C   UNL     1       5.080   5.508  16.072  0.00  0.00    +0.000 C 
BRANCH  16  17
ATOM     17  O   UNL     1       6.177   5.022  16.861  0.00  0.00    +0.000 OA
BRANCH  17  18
ATOM     18  C   UNL     1       5.925   4.550  18.123  0.00  0.00    +0.000 C 
ATOM     19  S   UNL     1       6.757   5.356  19.315  0.00  0.00    +0.000 S 
BRANCH  18  20
ATOM     20  N   UNL     1       5.066   3.475  18.200  0.00  0.00    +0.000 N 
ATOM     21  H   UNL     1       5.409   2.620  17.792  0.00  0.00    +0.000 HD
BRANCH  20  27
ATOM     22  C   UNL     1       1.698   2.671  21.774  0.00  0.00    +0.000 C 
ATOM     23  C   UNL     1       2.028   3.001  20.350  0.00  0.00    +0.000 A 
ATOM     24  C   UNL     1       1.038   3.287  19.406  0.00  0.00    +0.000 A 
ATOM     25  C   UNL     1       1.386   3.604  18.098  0.00  0.00    +0.000 A 
ATOM     26  C   UNL     1       2.730   3.625  17.725  0.00  0.00    +0.000 A 
ATOM     27  C   UNL     1       3.741   3.342  18.659  0.00  0.00    +0.000 A 
ATOM     28  C   UNL     1       3.380   3.043  19.966  0.00  0.00    +0.000 A 
ENDBRANCH  20  27
ENDBRANCH  18  20
ENDBRANCH  17  18
ENDBRANCH  16  17
ENDBRANCH   1  16
TORSDOF 9
ENDMDL
MODEL 5
REMARK VINA RESULT:      -6.9      2.351      6.121
REMARK  Name = 
REMARK  10 active torsions:
REMARK  status: ('A' for Active; 'I' for Inactive)
REMARK    1  A    between atoms: C_1  and  C_2
REMARK    2  A    between atoms: C_6  and  N_7
REMARK    3  A    between atoms: N_7  and  C_8
REMARK    4  A    between atoms: C_8  and  O_10
REMARK    5  A    between atoms: O_10  and  C_11
REMARK    6  A    between atoms: C_11  and  C_12
REMARK    7  A    between atoms: C_12  and  N_13
REMARK    8  A    between atoms: C_14  and  C_16
REMARK    9  A    between atoms: C_21  and  C_22
REMARK   10  A    between atoms: C_22  and  O_24
REMARK                            x       y       z     vdW  Elec       q    Type
REMARK                         _______ _______ _______ _____ _____    ______ ____
ROOT
ATOM      1  C   UNL     1       1.992   4.743  21.067  0.00  0.00    +0.000 C 
ENDROOT
BRANCH   1   2
ATOM      2  N   UNL     1       1.510   6.076  20.716  0.00  0.00    +0.000 N 
ATOM      3  C   UNL     1       2.271   6.994  20.029  0.00  0.00    +0.000 C 
ATOM      4  O   UNL     1       3.406   6.743  19.630  0.00  0.00    +0.000 OA
ATOM      5  H   UNL     1       0.662   6.385  21.191  0.00  0.00    +0.000 HD
BRANCH   3   6
ATOM      6  C   UNL     1       1.660   8.303  19.644  0.00  0.00    +0.000 A 
ATOM      7  C   UNL     1       1.946   8.713  18.321  0.00  0.00    +0.000 A 
ATOM      8  C   UNL     1       1.448   9.910  17.800  0.00  0.00    +0.000 A 
ATOM      9  C   UNL     1       0.637  10.716  18.585  0.00  0.00    +0.000 A 
ATOM     10  C   UNL     1       0.340  10.331  19.893  0.00  0.00    +0.000 A 
ATOM     11  C   UNL     1       0.879   9.150  20.449  0.00  0.00    +0.000 A 
BRANCH  11  12
ATOM     12  C   UNL     1       0.569   8.878  21.878  0.00  0.00    +0.000 C 
ATOM     13  O   UNL     1       1.247   9.278  22.805  0.00  0.00    +0.000 OA
BRANCH  12  14
ATOM     14  O   UNL     1      -0.534   8.119  22.053  0.00  0.00    +0.000 OA
ATOM     15  H   UNL     1      -1.313   8.568  22.432  0.00  0.00    +0.000 HD
ENDBRANCH  12  14
ENDBRANCH  11  12
ENDBRANCH   3   6
ENDBRANCH   1   2
BRANCH   1  16
ATOM     16  C   UNL     1       1.351   3.674  20.193  0.00  0.00    +0.000 C 
BRANCH  16  17
ATOM     17  O   UNL     1       1.484   3.934  18.786  0.00  0.00    +0.000 OA
BRANCH  17  18
ATOM     18  C   UNL     1       2.674   3.649  18.171  0.00  0.00    +0.000 C 
ATOM     19  S   UNL     1       3.257   2.131  18.516  0.00  0.00    +0.000 S 
BRANCH  18  20
ATOM     20  N   UNL     1       3.212   4.663  17.406  0.00  0.00    +0.000 N 
ATOM     21  H   UNL     1       2.549   5.339  17.061  0.00  0.00    +0.000 HD
BRANCH  20  27
ATOM     22  C   UNL     1       7.548   7.104  17.437  0.00  0.00    +0.000 C 
ATOM     23  C   UNL     1       6.672   6.017  16.892  0.00  0.00    +0.000 A 
ATOM     24  C   UNL     1       7.125   5.116  15.924  0.00  0.00    +0.000 A 
ATOM     25  C   UNL     1       6.287   4.111  15.454  0.00  0.00    +0.000 A 
ATOM     26  C   UNL     1       4.985   4.010  15.945  0.00  0.00    +0.000 A 
ATOM     27  C   UNL     1       4.511   4.905  16.918  0.00  0.00    +0.000 A 
ATOM     28  C   UNL     1       5.364   5.894  17.390  0.00  0.00    +0.000 A 
ENDBRANCH  20  27
ENDBRANCH  18  20
ENDBRANCH  17  18
ENDBRANCH  16  17
ENDBRANCH   1  16
TORSDOF 9
ENDMDL
MODEL 6
REMARK VINA RESULT:      -6.8      2.003      4.226
REMARK  Name = 
REMARK  10 active torsions:
REMARK  status: ('A' for Active; 'I' for Inactive)
REMARK    1  A    between atoms: C_1  and  C_2
REMARK    2  A    between atoms: C_6  and  N_7
REMARK    3  A    between atoms: N_7  and  C_8
REMARK    4  A    between atoms: C_8  and  O_10
REMARK    5  A    between atoms: O_10  and  C_11
REMARK    6  A    between atoms: C_11  and  C_12
REMARK    7  A    between atoms: C_12  and  N_13
REMARK    8  A    between atoms: C_14  and  C_16
REMARK    9  A    between atoms: C_21  and  C_22
REMARK   10  A    between atoms: C_22  and  O_24
REMARK                            x       y       z     vdW  Elec       q    Type
REMARK                         _______ _______ _______ _____ _____    ______ ____
ROOT
ATOM      1  C   UNL     1       2.268   8.105  17.500  0.00  0.00    +0.000 C 
ENDROOT
BRANCH   1   2
ATOM      2  N   UNL     1       3.596   7.511  17.609  0.00  0.00    +0.000 N 
ATOM      3  C   UNL     1       3.811   6.152  17.638  0.00  0.00    +0.000 C 
ATOM      4  O   UNL     1       2.897   5.337  17.538  0.00  0.00    +0.000 OA
ATOM      5  H   UNL     1       4.348   8.142  17.886  0.00  0.00    +0.000 HD
BRANCH   3   6
ATOM      6  C   UNL     1       5.215   5.638  17.668  0.00  0.00    +0.000 A 
ATOM      7  C   UNL     1       5.769   5.532  18.965  0.00  0.00    +0.000 A 
ATOM      8  C   UNL     1       7.070   5.063  19.170  0.00  0.00    +0.000 A 
ATOM      9  C   UNL     1       7.840   4.673  18.084  0.00  0.00    +0.000 A 
ATOM     10  C   UNL     1       7.312   4.767  16.795  0.00  0.00    +0.000 A 
ATOM     11  C   UNL     1       6.020   5.287  16.569  0.00  0.00    +0.000 A 
BRANCH  11  12
ATOM     12  C   UNL     1       5.589   5.425  15.153  0.00  0.00    +0.000 C 
ATOM     13  O   UNL     1       5.584   4.506  14.355  0.00  0.00    +0.000 OA
BRANCH  12  14
ATOM     14  O   UNL     1       5.219   6.681  14.823  0.00  0.00    +0.000 OA
ATOM     15  H   UNL     1       4.504   6.763  14.164  0.00  0.00    +0.000 HD
ENDBRANCH  12  14
ENDBRANCH  11  12
ENDBRANCH   3   6
ENDBRANCH   1   2
BRANCH   1  16
ATOM     16  C   UNL     1       1.769   8.599  18.850  0.00  0.00    +0.000 C 
BRANCH  16  17
ATOM     17  O   UNL     1       2.307   7.863  19.961  0.00  0.00    +0.000 OA
BRANCH  17  18
ATOM     18  C   UNL     1       1.450   7.402  20.925  0.00  0.00    +0.000 C 
ATOM     19  S   UNL     1       0.286   8.504  21.366  0.00  0.00    +0.000 S 
BRANCH  18  20
ATOM     20  N   UNL     1       1.707   6.132  21.397  0.00  0.00    +0.000 N 
ATOM     21  H   UNL     1       1.864   6.066  22.390  0.00  0.00    +0.000 HD
BRANCH  20  27
ATOM     22  C   UNL     1       4.480   2.220  20.068  0.00  0.00    +0.000 C 
ATOM     23  C   UNL     1       3.159   2.927  20.097  0.00  0.00    +0.000 A 
ATOM     24  C   UNL     1       2.001   2.356  19.562  0.00  0.00    +0.000 A 
ATOM     25  C   UNL     1       0.790   3.036  19.623  0.00  0.00    +0.000 A 
ATOM     26  C   UNL     1       0.736   4.301  20.210  0.00  0.00    +0.000 A 
ATOM     27  C   UNL     1       1.889   4.892  20.754  0.00  0.00    +0.000 A 
ATOM     28  C   UNL     1       3.088   4.193  20.701  0.00  0.00    +0.000 A 
ENDBRANCH  20  27
ENDBRANCH  18  20
ENDBRANCH  17  18
ENDBRANCH  16  17
ENDBRANCH   1  16
TORSDOF 9
ENDMDL
MODEL 7
REMARK VINA RESULT:      -6.8      3.334      5.547
REMARK  Name = 
REMARK  10 active torsions:
REMARK  status: ('A' for Active; 'I' for Inactive)
REMARK    1  A    between atoms: C_1  and  C_2
REMARK    2  A    between atoms: C_6  and  N_7
REMARK    3  A    between atoms: N_7  and  C_8
REMARK    4  A    between atoms: C_8  and  O_10
REMARK    5  A    between atoms: O_10  and  C_11
REMARK    6  A    between atoms: C_11  and  C_12
REMARK    7  A    between atoms: C_12  and  N_13
REMARK    8  A    between atoms: C_14  and  C_16
REMARK    9  A    between atoms: C_21  and  C_22
REMARK   10  A    between atoms: C_22  and  O_24
REMARK                            x       y       z     vdW  Elec       q    Type
REMARK                         _______ _______ _______ _____ _____    ______ ____
ROOT
ATOM      1  C   UNL     1       3.095   7.741  17.682  0.00  0.00    +0.000 C 
ENDROOT
BRANCH   1   2
ATOM      2  N   UNL     1       3.079   6.670  18.673  0.00  0.00    +0.000 N 
ATOM      3  C   UNL     1       2.363   5.507  18.511  0.00  0.00    +0.000 C 
ATOM      4  O   UNL     1       1.708   5.271  17.498  0.00  0.00    +0.000 OA
ATOM      5  H   UNL     1       3.445   6.907  19.595  0.00  0.00    +0.000 HD
BRANCH   3   6
ATOM      6  C   UNL     1       2.476   4.432  19.545  0.00  0.00    +0.000 A 
ATOM      7  C   UNL     1       1.364   4.340  20.414  0.00  0.00    +0.000 A 
ATOM      8  C   UNL     1       1.306   3.386  21.432  0.00  0.00    +0.000 A 
ATOM      9  C   UNL     1       2.353   2.489  21.595  0.00  0.00    +0.000 A 
ATOM     10  C   UNL     1       3.460   2.561  20.748  0.00  0.00    +0.000 A 
ATOM     11  C   UNL     1       3.554   3.553  19.747  0.00  0.00    +0.000 A 
BRANCH  11  12
ATOM     12  C   UNL     1       4.813   3.594  18.958  0.00  0.00    +0.000 C 
ATOM     13  O   UNL     1       5.808   4.203  19.303  0.00  0.00    +0.000 OA
BRANCH  12  14
ATOM     14  O   UNL     1       4.744   2.904  17.799  0.00  0.00    +0.000 OA
ATOM     15  H   UNL     1       5.593   2.711  17.358  0.00  0.00    +0.000 HD
ENDBRANCH  12  14
ENDBRANCH  11  12
ENDBRANCH   3   6
ENDBRANCH   1   2
BRANCH   1  16
ATOM     16  C   UNL     1       1.899   8.668  17.848  0.00  0.00    +0.000 C 
BRANCH  16  17
ATOM     17  O   UNL     1       1.645   9.030  19.215  0.00  0.00    +0.000 OA
BRANCH  17  18
ATOM     18  C   UNL     1       0.540   9.789  19.503  0.00  0.00    +0.000 C 
ATOM     19  S   UNL     1       0.153   9.818  21.119  0.00  0.00    +0.000 S 
BRANCH  18  20
ATOM     20  N   UNL     1      -0.087  10.368  18.420  0.00  0.00    +0.000 N 
ATOM     21  H   UNL     1       0.525  10.822  17.760  0.00  0.00    +0.000 HD
BRANCH  20  27
ATOM     22  C   UNL     1      -4.584  12.381  19.119  0.00  0.00    +0.000 C 
ATOM     23  C   UNL     1      -3.660  11.508  18.325  0.00  0.00    +0.000 A 
ATOM     24  C   UNL     1      -4.065  10.878  17.145  0.00  0.00    +0.000 A 
ATOM     25  C   UNL     1      -3.174  10.089  16.429  0.00  0.00    +0.000 A 
ATOM     26  C   UNL     1      -1.872   9.915  16.898  0.00  0.00    +0.000 A 
ATOM     27  C   UNL     1      -1.443  10.540  18.082  0.00  0.00    +0.000 A 
ATOM     28  C   UNL     1      -2.340  11.340  18.778  0.00  0.00    +0.000 A 
ENDBRANCH  20  27
ENDBRANCH  18  20
ENDBRANCH  17  18
ENDBRANCH  16  17
ENDBRANCH   1  16
TORSDOF 9
ENDMDL
MODEL 8
REMARK VINA RESULT:      -6.8      2.669      6.666
REMARK  Name = 
REMARK  10 active torsions:
REMARK  status: ('A' for Active; 'I' for Inactive)
REMARK    1  A    between atoms: C_1  and  C_2
REMARK    2  A    between atoms: C_6  and  N_7
REMARK    3  A    between atoms: N_7  and  C_8
REMARK    4  A    between atoms: C_8  and  O_10
REMARK    5  A    between atoms: O_10  and  C_11
REMARK    6  A    between atoms: C_11  and  C_12
REMARK    7  A    between atoms: C_12  and  N_13
REMARK    8  A    between atoms: C_14  and  C_16
REMARK    9  A    between atoms: C_21  and  C_22
REMARK   10  A    between atoms: C_22  and  O_24
REMARK                            x       y       z     vdW  Elec       q    Type
REMARK                         _______ _______ _______ _____ _____    ______ ____
ROOT
ATOM      1  C   UNL     1       3.073   6.531  18.154  0.00  0.00    +0.000 C 
ENDROOT
BRANCH   1   2
ATOM      2  N   UNL     1       2.698   7.759  18.848  0.00  0.00    +0.000 N 
ATOM      3  C   UNL     1       1.875   8.713  18.295  0.00  0.00    +0.000 C 
ATOM      4  O   UNL     1       1.366   8.582  17.183  0.00  0.00    +0.000 OA
ATOM      5  H   UNL     1       3.245   7.991  19.676  0.00  0.00    +0.000 HD
BRANCH   3   6
ATOM      6  C   UNL     1       1.480   9.899  19.116  0.00  0.00    +0.000 A 
ATOM      7  C   UNL     1       1.744  11.146  18.504  0.00  0.00    +0.000 A 
ATOM      8  C   UNL     1       1.431  12.353  19.134  0.00  0.00    +0.000 A 
ATOM      9  C   UNL     1       0.831  12.340  20.384  0.00  0.00    +0.000 A 
ATOM     10  C   UNL     1       0.560  11.121  21.007  0.00  0.00    +0.000 A 
ATOM     11  C   UNL     1       0.917   9.895  20.405  0.00  0.00    +0.000 A 
BRANCH  11  12
ATOM     12  C   UNL     1       0.662   8.660  21.191  0.00  0.00    +0.000 C 
ATOM     13  O   UNL     1      -0.449   8.217  21.413  0.00  0.00    +0.000 OA
BRANCH  12  14
ATOM     14  O   UNL     1       1.788   8.079  21.661  0.00  0.00    +0.000 OA
ATOM     15  H   UNL     1       2.425   8.669  22.106  0.00  0.00    +0.000 HD
ENDBRANCH  12  14
ENDBRANCH  11  12
ENDBRANCH   3   6
ENDBRANCH   1   2
BRANCH   1  16
ATOM     16  C   UNL     1       4.436   6.664  17.490  0.00  0.00    +0.000 C 
BRANCH  16  17
ATOM     17  O   UNL     1       5.503   6.085  18.259  0.00  0.00    +0.000 OA
BRANCH  17  18
ATOM     18  C   UNL     1       5.919   4.814  17.958  0.00  0.00    +0.000 C 
ATOM     19  S   UNL     1       6.886   4.730  16.608  0.00  0.00    +0.000 S 
BRANCH  18  20
ATOM     20  N   UNL     1       5.446   3.817  18.785  0.00  0.00    +0.000 N 
ATOM     21  H   UNL     1       6.146   3.351  19.340  0.00  0.00    +0.000 HD
BRANCH  20  27
ATOM     22  C   UNL     1       1.436   2.705  21.512  0.00  0.00    +0.000 C 
ATOM     23  C   UNL     1       2.160   2.692  20.200  0.00  0.00    +0.000 A 
ATOM     24  C   UNL     1       1.577   2.182  19.037  0.00  0.00    +0.000 A 
ATOM     25  C   UNL     1       2.275   2.201  17.835  0.00  0.00    +0.000 A 
ATOM     26  C   UNL     1       3.569   2.722  17.796  0.00  0.00    +0.000 A 
ATOM     27  C   UNL     1       4.173   3.240  18.953  0.00  0.00    +0.000 A 
ATOM     28  C   UNL     1       3.457   3.229  20.144  0.00  0.00    +0.000 A 
ENDBRANCH  20  27
ENDBRANCH  18  20
ENDBRANCH  17  18
ENDBRANCH  16  17
ENDBRANCH   1  16
TORSDOF 9
ENDMDL
MODEL 9
REMARK VINA RESULT:      -6.7      3.144      5.515
REMARK  Name = 
REMARK  10 active torsions:
REMARK  status: ('A' for Active; 'I' for Inactive)
REMARK    1  A    between atoms: C_1  and  C_2
REMARK    2  A    between atoms: C_6  and  N_7
REMARK    3  A    between atoms: N_7  and  C_8
REMARK    4  A    between atoms: C_8  and  O_10
REMARK    5  A    between atoms: O_10  and  C_11
REMARK    6  A    between atoms: C_11  and  C_12
REMARK    7  A    between atoms: C_12  and  N_13
REMARK    8  A    between atoms: C_14  and  C_16
REMARK    9  A    between atoms: C_21  and  C_22
REMARK   10  A    between atoms: C_22  and  O_24
REMARK                            x       y       z     vdW  Elec       q    Type
REMARK                         _______ _______ _______ _____ _____    ______ ____
ROOT
ATOM      1  C   UNL     1       2.735   7.925  17.816  0.00  0.00    +0.000 C 
ENDROOT
BRANCH   1   2
ATOM      2  N   UNL     1       2.843   6.814  18.756  0.00  0.00    +0.000 N 
ATOM      3  C   UNL     1       2.280   5.579  18.527  0.00  0.00    +0.000 C 
ATOM      4  O   UNL     1       1.670   5.313  17.493  0.00  0.00    +0.000 OA
ATOM      5  H   UNL     1       3.166   7.049  19.694  0.00  0.00    +0.000 HD
BRANCH   3   6
ATOM      6  C   UNL     1       2.515   4.478  19.511  0.00  0.00    +0.000 A 
ATOM      7  C   UNL     1       1.590   4.443  20.579  0.00  0.00    +0.000 A 
ATOM      8  C   UNL     1       1.664   3.474  21.583  0.00  0.00    +0.000 A 
ATOM      9  C   UNL     1       2.657   2.506  21.531  0.00  0.00    +0.000 A 
ATOM     10  C   UNL     1       3.581   2.520  20.485  0.00  0.00    +0.000 A 
ATOM     11  C   UNL     1       3.549   3.524  19.493  0.00  0.00    +0.000 A 
BRANCH  11  12
ATOM     12  C   UNL     1       4.630   3.497  18.473  0.00  0.00    +0.000 C 
ATOM     13  O   UNL     1       4.439   3.291  17.290  0.00  0.00    +0.000 OA
BRANCH  12  14
ATOM     14  O   UNL     1       5.861   3.704  18.990  0.00  0.00    +0.000 OA
ATOM     15  H   UNL     1       5.944   3.616  19.958  0.00  0.00    +0.000 HD
ENDBRANCH  12  14
ENDBRANCH  11  12
ENDBRANCH   3   6
ENDBRANCH   1   2
BRANCH   1  16
ATOM     16  C   UNL     1       1.634   8.893  18.226  0.00  0.00    +0.000 C 
BRANCH  16  17
ATOM     17  O   UNL     1       1.513   9.049  19.650  0.00  0.00    +0.000 OA
BRANCH  17  18
ATOM     18  C   UNL     1       0.381   9.631  20.156  0.00  0.00    +0.000 C 
ATOM     19  S   UNL     1      -0.192   8.891  21.530  0.00  0.00    +0.000 S 
BRANCH  18  20
ATOM     20  N   UNL     1      -0.118  10.697  19.438  0.00  0.00    +0.000 N 
ATOM     21  H   UNL     1       0.414  11.549  19.507  0.00  0.00    +0.000 HD
BRANCH  20  27
ATOM     22  C   UNL     1      -3.006   9.758  15.496  0.00  0.00    +0.000 C 
ATOM     23  C   UNL     1      -2.785  10.440  16.812  0.00  0.00    +0.000 A 
ATOM     24  C   UNL     1      -3.772  11.224  17.416  0.00  0.00    +0.000 A 
ATOM     25  C   UNL     1      -3.534  11.827  18.645  0.00  0.00    +0.000 A 
ATOM     26  C   UNL     1      -2.299  11.657  19.272  0.00  0.00    +0.000 A 
ATOM     27  C   UNL     1      -1.294  10.872  18.682  0.00  0.00    +0.000 A 
ATOM     28  C   UNL     1      -1.552  10.261  17.461  0.00  0.00    +0.000 A 
ENDBRANCH  20  27
ENDBRANCH  18  20
ENDBRANCH  17  18
ENDBRANCH  16  17
ENDBRANCH   1  16
TORSDOF 9
ENDMDL
