MODEL 1
REMARK VINA RESULT:      -8.1      0.000      0.000
REMARK  Name = 
REMARK  8 active torsions:
REMARK  status: ('A' for Active; 'I' for Inactive)
REMARK    1  A    between atoms: C_1  and  C_2
REMARK    2  A    between atoms: C_2  and  S_3
REMARK    3  A    between atoms: C_2  and  C_20
REMARK    4  A    between atoms: S_3  and  C_4
REMARK    5  A    between atoms: C_7  and  C_8
REMARK    6  A    between atoms: N_13  and  C_14
REMARK    7  A    between atoms: N_22  and  C_23
REMARK    8  A    between atoms: C_23  and  C_24
REMARK                            x       y       z     vdW  Elec       q    Type
REMARK                         _______ _______ _______ _____ _____    ______ ____
ROOT
ATOM      1  C   UNL     1       4.044   5.507  17.526  0.00  0.00    +0.000 A 
ATOM      2  N   UNL     1       4.246   6.628  16.863  0.00  0.00    +0.000 NA
ATOM      3  N   UNL     1       3.408   7.582  17.379  0.00  0.00    +0.000 NA
ATOM      4  C   UNL     1       2.752   7.046  18.389  0.00  0.00    +0.000 A 
ATOM      5  N   UNL     1       3.028   5.680  18.465  0.00  0.00    +0.000 N 
ENDROOT
BRANCH   5   6
ATOM      6  C   UNL     1       2.374   4.727  19.307  0.00  0.00    +0.000 A 
ATOM      7  C   UNL     1       2.807   4.558  20.636  0.00  0.00    +0.000 A 
ATOM      8  C   UNL     1       2.208   3.611  21.468  0.00  0.00    +0.000 A 
ATOM      9  C   UNL     1       1.153   2.840  20.996  0.00  0.00    +0.000 A 
ATOM     10  C   UNL     1       0.704   3.009  19.688  0.00  0.00    +0.000 A 
ATOM     11  C   UNL     1       1.317   3.939  18.842  0.00  0.00    +0.000 A 
ENDBRANCH   5   6
BRANCH   4  12
ATOM     12  C   UNL     1       2.027   7.821  19.355  0.00  0.00    +0.000 A 
ATOM     13  C   UNL     1       1.389   9.042  19.202  0.00  0.00    +0.000 A 
ATOM     14  C   UNL     1       0.808   9.376  20.452  0.00  0.00    +0.000 A 
ATOM     15  C   UNL     1       1.142   8.356  21.309  0.00  0.00    +0.000 A 
ATOM     16  O   UNL     1       1.880   7.423  20.662  0.00  0.00    +0.000 OA
ENDBRANCH   4  12
BRANCH   1  17
ATOM     17  S   UNL     1       4.838   4.015  17.125  0.00  0.00    +0.000 S 
BRANCH  17  19
ATOM     18  C   UNL     1       6.831   5.370  18.408  0.00  0.00    +0.000 C 
ATOM     19  C   UNL     1       6.624   4.424  17.222  0.00  0.00    +0.000 C 
BRANCH  19  20
ATOM     20  C   UNL     1       7.103   5.123  15.946  0.00  0.00    +0.000 C 
ATOM     21  O   UNL     1       7.607   6.245  15.940  0.00  0.00    +0.000 OA
ATOM     22  N   UNL     1       6.946   4.390  14.796  0.00  0.00    +0.000 N 
ATOM     23  H   UNL     1       6.618   3.429  14.863  0.00  0.00    +0.000 HD
BRANCH  22  24
ATOM     24  C   UNL     1       7.436   4.868  13.513  0.00  0.00    +0.000 C 
BRANCH  24  25
ATOM     25  C   UNL     1       6.640   4.308  12.331  0.00  0.00    +0.000 C 
ATOM     26  C   UNL     1       5.334   3.633  12.722  0.00  0.00    +0.000 C 
ATOM     27  C   UNL     1       5.235   2.498  11.736  0.00  0.00    +0.000 C 
ATOM     28  C   UNL     1       6.683   2.111  11.545  0.00  0.00    +0.000 C 
ATOM     29  O   UNL     1       7.436   3.326  11.637  0.00  0.00    +0.000 OA
ENDBRANCH  24  25
ENDBRANCH  22  24
ENDBRANCH  19  20
ENDBRANCH  17  19
ENDBRANCH   1  17
TORSDOF 7
ENDMDL
MODEL 2
REMARK VINA RESULT:      -8.1      0.727      1.265
REMARK  Name = 
REMARK  8 active torsions:
REMARK  status: ('A' for Active; 'I' for Inactive)
REMARK    1  A    between atoms: C_1  and  C_2
REMARK    2  A    between atoms: C_2  and  S_3
REMARK    3  A    between atoms: C_2  and  C_20
REMARK    4  A    between atoms: S_3  and  C_4
REMARK    5  A    between atoms: C_7  and  C_8
REMARK    6  A    between atoms: N_13  and  C_14
REMARK    7  A    between atoms: N_22  and  C_23
REMARK    8  A    between atoms: C_23  and  C_24
REMARK                            x       y       z     vdW  Elec       q    Type
REMARK                         _______ _______ _______ _____ _____    ______ ____
ROOT
ATOM      1  C   UNL     1       4.230   5.609  18.013  0.00  0.00    +0.000 A 
ATOM      2  N   UNL     1       4.412   6.727  17.339  0.00  0.00    +0.000 NA
ATOM      3  N   UNL     1       3.479   7.636  17.768  0.00  0.00    +0.000 NA
ATOM      4  C   UNL     1       2.783   7.079  18.740  0.00  0.00    +0.000 A 
ATOM      5  N   UNL     1       3.137   5.735  18.870  0.00  0.00    +0.000 N 
ENDROOT
BRANCH   5   6
ATOM      6  C   UNL     1       2.482   4.758  19.683  0.00  0.00    +0.000 A 
ATOM      7  C   UNL     1       1.326   4.114  19.203  0.00  0.00    +0.000 A 
ATOM      8  C   UNL     1       0.648   3.182  19.991  0.00  0.00    +0.000 A 
ATOM      9  C   UNL     1       1.129   2.859  21.255  0.00  0.00    +0.000 A 
ATOM     10  C   UNL     1       2.282   3.478  21.734  0.00  0.00    +0.000 A 
ATOM     11  C   UNL     1       2.951   4.431  20.959  0.00  0.00    +0.000 A 
ENDBRANCH   5   6
BRANCH   4  12
ATOM     12  C   UNL     1       1.939   7.824  19.629  0.00  0.00    +0.000 A 
ATOM     13  C   UNL     1       1.616   7.570  20.953  0.00  0.00    +0.000 A 
ATOM     14  C   UNL     1       0.758   8.613  21.387  0.00  0.00    +0.000 A 
ATOM     15  C   UNL     1       0.581   9.434  20.301  0.00  0.00    +0.000 A 
ATOM     16  O   UNL     1       1.279   8.964  19.239  0.00  0.00    +0.000 OA
ENDBRANCH   4  12
BRANCH   1  17
ATOM     17  S   UNL     1       5.144   4.163  17.708  0.00  0.00    +0.000 S 
BRANCH  17  19
ATOM     18  C   UNL     1       7.046   5.692  18.932  0.00  0.00    +0.000 C 
ATOM     19  C   UNL     1       6.890   4.725  17.755  0.00  0.00    +0.000 C 
BRANCH  19  20
ATOM     20  C   UNL     1       7.272   5.455  16.464  0.00  0.00    +0.000 C 
ATOM     21  O   UNL     1       7.597   6.641  16.431  0.00  0.00    +0.000 OA
ATOM     22  N   UNL     1       7.247   4.676  15.334  0.00  0.00    +0.000 N 
ATOM     23  H   UNL     1       7.071   3.678  15.425  0.00  0.00    +0.000 HD
BRANCH  22  24
ATOM     24  C   UNL     1       7.674   5.190  14.043  0.00  0.00    +0.000 C 
BRANCH  24  25
ATOM     25  C   UNL     1       6.728   4.792  12.907  0.00  0.00    +0.000 C 
ATOM     26  C   UNL     1       5.651   3.797  13.311  0.00  0.00    +0.000 C 
ATOM     27  C   UNL     1       5.504   2.943  12.078  0.00  0.00    +0.000 C 
ATOM     28  C   UNL     1       6.916   2.910  11.539  0.00  0.00    +0.000 C 
ATOM     29  O   UNL     1       7.486   4.189  11.838  0.00  0.00    +0.000 OA
ENDBRANCH  24  25
ENDBRANCH  22  24
ENDBRANCH  19  20
ENDBRANCH  17  19
ENDBRANCH   1  17
TORSDOF 7
ENDMDL
MODEL 3
REMARK VINA RESULT:      -8.1      2.828      4.651
REMARK  Name = 
REMARK  8 active torsions:
REMARK  status: ('A' for Active; 'I' for Inactive)
REMARK    1  A    between atoms: C_1  and  C_2
REMARK    2  A    between atoms: C_2  and  S_3
REMARK    3  A    between atoms: C_2  and  C_20
REMARK    4  A    between atoms: S_3  and  C_4
REMARK    5  A    between atoms: C_7  and  C_8
REMARK    6  A    between atoms: N_13  and  C_14
REMARK    7  A    between atoms: N_22  and  C_23
REMARK    8  A    between atoms: C_23  and  C_24
REMARK                            x       y       z     vdW  Elec       q    Type
REMARK                         _______ _______ _______ _____ _____    ______ ____
ROOT
ATOM      1  C   UNL     1       3.951   6.020  17.742  0.00  0.00    +0.000 A 
ATOM      2  N   UNL     1       4.060   7.198  17.162  0.00  0.00    +0.000 NA
ATOM      3  N   UNL     1       3.136   8.036  17.730  0.00  0.00    +0.000 NA
ATOM      4  C   UNL     1       2.520   7.374  18.690  0.00  0.00    +0.000 A 
ATOM      5  N   UNL     1       2.915   6.035  18.675  0.00  0.00    +0.000 N 
ENDROOT
BRANCH   5   6
ATOM      6  C   UNL     1       2.340   4.971  19.437  0.00  0.00    +0.000 A 
ATOM      7  C   UNL     1       2.782   4.739  20.753  0.00  0.00    +0.000 A 
ATOM      8  C   UNL     1       2.262   3.686  21.507  0.00  0.00    +0.000 A 
ATOM      9  C   UNL     1       1.274   2.869  20.970  0.00  0.00    +0.000 A 
ATOM     10  C   UNL     1       0.815   3.099  19.674  0.00  0.00    +0.000 A 
ATOM     11  C   UNL     1       1.352   4.137  18.905  0.00  0.00    +0.000 A 
ENDBRANCH   5   6
BRANCH   4  12
ATOM     12  C   UNL     1       1.719   8.012  19.695  0.00  0.00    +0.000 A 
ATOM     13  C   UNL     1       1.309   7.530  20.929  0.00  0.00    +0.000 A 
ATOM     14  C   UNL     1       0.547   8.552  21.551  0.00  0.00    +0.000 A 
ATOM     15  C   UNL     1       0.507   9.593  20.656  0.00  0.00    +0.000 A 
ATOM     16  O   UNL     1       1.201   9.275  19.536  0.00  0.00    +0.000 OA
ENDBRANCH   4  12
BRANCH   1  17
ATOM     17  S   UNL     1       4.878   4.635  17.250  0.00  0.00    +0.000 S 
BRANCH  17  19
ATOM     18  C   UNL     1       6.357   5.379  19.421  0.00  0.00    +0.000 C 
ATOM     19  C   UNL     1       6.540   4.938  17.966  0.00  0.00    +0.000 C 
BRANCH  19  20
ATOM     20  C   UNL     1       7.278   6.044  17.205  0.00  0.00    +0.000 C 
ATOM     21  O   UNL     1       7.549   5.974  16.008  0.00  0.00    +0.000 OA
ATOM     22  N   UNL     1       7.600   7.145  17.961  0.00  0.00    +0.000 N 
ATOM     23  H   UNL     1       7.265   7.201  18.920  0.00  0.00    +0.000 HD
BRANCH  22  24
ATOM     24  C   UNL     1       8.215   8.322  17.370  0.00  0.00    +0.000 C 
BRANCH  24  25
ATOM     25  C   UNL     1       8.147   9.546  18.287  0.00  0.00    +0.000 C 
ATOM     26  C   UNL     1       8.303  10.875  17.565  0.00  0.00    +0.000 C 
ATOM     27  C   UNL     1       9.070  11.709  18.560  0.00  0.00    +0.000 C 
ATOM     28  C   UNL     1       9.960  10.683  19.221  0.00  0.00    +0.000 C 
ATOM     29  O   UNL     1       9.200   9.470  19.271  0.00  0.00    +0.000 OA
ENDBRANCH  24  25
ENDBRANCH  22  24
ENDBRANCH  19  20
ENDBRANCH  17  19
ENDBRANCH   1  17
TORSDOF 7
ENDMDL
MODEL 4
REMARK VINA RESULT:      -8.0      2.836      4.738
REMARK  Name = 
REMARK  8 active torsions:
REMARK  status: ('A' for Active; 'I' for Inactive)
REMARK    1  A    between atoms: C_1  and  C_2
REMARK    2  A    between atoms: C_2  and  S_3
REMARK    3  A    between atoms: C_2  and  C_20
REMARK    4  A    between atoms: S_3  and  C_4
REMARK    5  A    between atoms: C_7  and  C_8
REMARK    6  A    between atoms: N_13  and  C_14
REMARK    7  A    between atoms: N_22  and  C_23
REMARK    8  A    between atoms: C_23  and  C_24
REMARK                            x       y       z     vdW  Elec       q    Type
REMARK                         _______ _______ _______ _____ _____    ______ ____
ROOT
ATOM      1  C   UNL     1       4.165   5.954  17.815  0.00  0.00    +0.000 A 
ATOM      2  N   UNL     1       4.316   7.104  17.191  0.00  0.00    +0.000 NA
ATOM      3  N   UNL     1       3.354   7.965  17.654  0.00  0.00    +0.000 NA
ATOM      4  C   UNL     1       2.671   7.346  18.596  0.00  0.00    +0.000 A 
ATOM      5  N   UNL     1       3.065   6.009  18.670  0.00  0.00    +0.000 N 
ENDROOT
BRANCH   5   6
ATOM      6  C   UNL     1       2.436   4.979  19.437  0.00  0.00    +0.000 A 
ATOM      7  C   UNL     1       1.403   4.215  18.862  0.00  0.00    +0.000 A 
ATOM      8  C   UNL     1       0.750   3.227  19.601  0.00  0.00    +0.000 A 
ATOM      9  C   UNL     1       1.137   2.967  20.911  0.00  0.00    +0.000 A 
ATOM     10  C   UNL     1       2.170   3.706  21.485  0.00  0.00    +0.000 A 
ATOM     11  C   UNL     1       2.810   4.714  20.758  0.00  0.00    +0.000 A 
ENDBRANCH   5   6
BRANCH   4  12
ATOM     12  C   UNL     1       1.801   8.026  19.512  0.00  0.00    +0.000 A 
ATOM     13  C   UNL     1       1.119   9.223  19.353  0.00  0.00    +0.000 A 
ATOM     14  C   UNL     1       0.384   9.453  20.544  0.00  0.00    +0.000 A 
ATOM     15  C   UNL     1       0.674   8.401  21.377  0.00  0.00    +0.000 A 
ATOM     16  O   UNL     1       1.530   7.544  20.770  0.00  0.00    +0.000 OA
ENDBRANCH   4  12
BRANCH   1  17
ATOM     17  S   UNL     1       5.124   4.550  17.454  0.00  0.00    +0.000 S 
BRANCH  17  19
ATOM     18  C   UNL     1       6.691   5.422  19.513  0.00  0.00    +0.000 C 
ATOM     19  C   UNL     1       6.802   4.997  18.046  0.00  0.00    +0.000 C 
BRANCH  19  20
ATOM     20  C   UNL     1       7.383   6.162  17.239  0.00  0.00    +0.000 C 
ATOM     21  O   UNL     1       7.554   6.120  16.021  0.00  0.00    +0.000 OA
ATOM     22  N   UNL     1       7.681   7.280  17.977  0.00  0.00    +0.000 N 
ATOM     23  H   UNL     1       7.428   7.305  18.962  0.00  0.00    +0.000 HD
BRANCH  22  24
ATOM     24  C   UNL     1       8.149   8.506  17.351  0.00  0.00    +0.000 C 
BRANCH  24  25
ATOM     25  C   UNL     1       8.138   9.700  18.309  0.00  0.00    +0.000 C 
ATOM     26  C   UNL     1       8.341  11.046  17.631  0.00  0.00    +0.000 C 
ATOM     27  C   UNL     1       9.148  11.814  18.645  0.00  0.00    +0.000 C 
ATOM     28  C   UNL     1      10.001  10.732  19.264  0.00  0.00    +0.000 C 
ATOM     29  O   UNL     1       9.195   9.549  19.279  0.00  0.00    +0.000 OA
ENDBRANCH  24  25
ENDBRANCH  22  24
ENDBRANCH  19  20
ENDBRANCH  17  19
ENDBRANCH   1  17
TORSDOF 7
ENDMDL
MODEL 5
REMARK VINA RESULT:      -7.8      2.986      4.914
REMARK  Name = 
REMARK  8 active torsions:
REMARK  status: ('A' for Active; 'I' for Inactive)
REMARK    1  A    between atoms: C_1  and  C_2
REMARK    2  A    between atoms: C_2  and  S_3
REMARK    3  A    between atoms: C_2  and  C_20
REMARK    4  A    between atoms: S_3  and  C_4
REMARK    5  A    between atoms: C_7  and  C_8
REMARK    6  A    between atoms: N_13  and  C_14
REMARK    7  A    between atoms: N_22  and  C_23
REMARK    8  A    between atoms: C_23  and  C_24
REMARK                            x       y       z     vdW  Elec       q    Type
REMARK                         _______ _______ _______ _____ _____    ______ ____
ROOT
ATOM      1  C   UNL     1       4.275   6.011  17.908  0.00  0.00    +0.000 A 
ATOM      2  N   UNL     1       4.410   7.177  17.309  0.00  0.00    +0.000 NA
ATOM      3  N   UNL     1       3.412   8.002  17.759  0.00  0.00    +0.000 NA
ATOM      4  C   UNL     1       2.721   7.346  18.670  0.00  0.00    +0.000 A 
ATOM      5  N   UNL     1       3.150   6.020  18.732  0.00  0.00    +0.000 N 
ENDROOT
BRANCH   5   6
ATOM      6  C   UNL     1       2.530   4.959  19.463  0.00  0.00    +0.000 A 
ATOM      7  C   UNL     1       1.477   4.232  18.875  0.00  0.00    +0.000 A 
ATOM      8  C   UNL     1       0.832   3.214  19.580  0.00  0.00    +0.000 A 
ATOM      9  C   UNL     1       1.245   2.888  20.866  0.00  0.00    +0.000 A 
ATOM     10  C   UNL     1       2.298   3.590  21.452  0.00  0.00    +0.000 A 
ATOM     11  C   UNL     1       2.931   4.627  20.760  0.00  0.00    +0.000 A 
ENDBRANCH   5   6
BRANCH   4  12
ATOM     12  C   UNL     1       1.807   7.986  19.573  0.00  0.00    +0.000 A 
ATOM     13  C   UNL     1       1.463   7.636  20.870  0.00  0.00    +0.000 A 
ATOM     14  C   UNL     1       0.528   8.597  21.334  0.00  0.00    +0.000 A 
ATOM     15  C   UNL     1       0.330   9.467  20.290  0.00  0.00    +0.000 A 
ATOM     16  O   UNL     1       1.086   9.103  19.226  0.00  0.00    +0.000 OA
ENDBRANCH   4  12
BRANCH   1  17
ATOM     17  S   UNL     1       5.282   4.641  17.549  0.00  0.00    +0.000 S 
BRANCH  17  19
ATOM     18  C   UNL     1       6.907   5.475  19.579  0.00  0.00    +0.000 C 
ATOM     19  C   UNL     1       6.957   5.173  18.078  0.00  0.00    +0.000 C 
BRANCH  19  20
ATOM     20  C   UNL     1       7.396   6.439  17.336  0.00  0.00    +0.000 C 
ATOM     21  O   UNL     1       7.588   6.477  16.121  0.00  0.00    +0.000 OA
ATOM     22  N   UNL     1       7.542   7.550  18.130  0.00  0.00    +0.000 N 
ATOM     23  H   UNL     1       7.275   7.495  19.110  0.00  0.00    +0.000 HD
BRANCH  22  24
ATOM     24  C   UNL     1       7.860   8.853  17.569  0.00  0.00    +0.000 C 
BRANCH  24  25
ATOM     25  C   UNL     1       9.065   9.509  18.247  0.00  0.00    +0.000 C 
ATOM     26  C   UNL     1       8.913   9.692  19.749  0.00  0.00    +0.000 C 
ATOM     27  C   UNL     1       9.619  11.000  20.001  0.00  0.00    +0.000 C 
ATOM     28  C   UNL     1       9.316  11.777  18.741  0.00  0.00    +0.000 C 
ATOM     29  O   UNL     1       9.285  10.817  17.679  0.00  0.00    +0.000 OA
ENDBRANCH  24  25
ENDBRANCH  22  24
ENDBRANCH  19  20
ENDBRANCH  17  19
ENDBRANCH   1  17
TORSDOF 7
ENDMDL
MODEL 6
REMARK VINA RESULT:      -7.8      3.861      6.348
REMARK  Name = 
REMARK  8 active torsions:
REMARK  status: ('A' for Active; 'I' for Inactive)
REMARK    1  A    between atoms: C_1  and  C_2
REMARK    2  A    between atoms: C_2  and  S_3
REMARK    3  A    between atoms: C_2  and  C_20
REMARK    4  A    between atoms: S_3  and  C_4
REMARK    5  A    between atoms: C_7  and  C_8
REMARK    6  A    between atoms: N_13  and  C_14
REMARK    7  A    between atoms: N_22  and  C_23
REMARK    8  A    between atoms: C_23  and  C_24
REMARK                            x       y       z     vdW  Elec       q    Type
REMARK                         _______ _______ _______ _____ _____    ______ ____
ROOT
ATOM      1  C   UNL     1       5.451   5.184  17.977  0.00  0.00    +0.000 A 
ATOM      2  N   UNL     1       6.004   4.036  18.313  0.00  0.00    +0.000 NA
ATOM      3  N   UNL     1       5.165   3.402  19.192  0.00  0.00    +0.000 NA
ATOM      4  C   UNL     1       4.084   4.145  19.331  0.00  0.00    +0.000 A 
ATOM      5  N   UNL     1       4.253   5.361  18.668  0.00  0.00    +0.000 N 
ENDROOT
BRANCH   5   6
ATOM      6  C   UNL     1       3.384   6.495  18.737  0.00  0.00    +0.000 A 
ATOM      7  C   UNL     1       2.684   6.763  19.929  0.00  0.00    +0.000 A 
ATOM      8  C   UNL     1       1.803   7.843  20.012  0.00  0.00    +0.000 A 
ATOM      9  C   UNL     1       1.631   8.686  18.920  0.00  0.00    +0.000 A 
ATOM     10  C   UNL     1       2.332   8.440  17.740  0.00  0.00    +0.000 A 
ATOM     11  C   UNL     1       3.196   7.345  17.643  0.00  0.00    +0.000 A 
ENDBRANCH   5   6
BRANCH   4  12
ATOM     12  C   UNL     1       2.869   3.661  19.922  0.00  0.00    +0.000 A 
ATOM     13  C   UNL     1       2.623   3.262  21.227  0.00  0.00    +0.000 A 
ATOM     14  C   UNL     1       1.259   2.883  21.303  0.00  0.00    +0.000 A 
ATOM     15  C   UNL     1       0.749   3.044  20.039  0.00  0.00    +0.000 A 
ATOM     16  O   UNL     1       1.710   3.502  19.200  0.00  0.00    +0.000 OA
ENDBRANCH   4  12
BRANCH   1  17
ATOM     17  S   UNL     1       6.234   6.346  16.950  0.00  0.00    +0.000 S 
BRANCH  17  19
ATOM     18  C   UNL     1       7.693   6.145  19.249  0.00  0.00    +0.000 C 
ATOM     19  C   UNL     1       7.778   6.762  17.850  0.00  0.00    +0.000 C 
BRANCH  19  20
ATOM     20  C   UNL     1       7.946   8.278  17.990  0.00  0.00    +0.000 C 
ATOM     21  O   UNL     1       7.283   9.093  17.349  0.00  0.00    +0.000 OA
ATOM     22  N   UNL     1       8.887   8.670  18.911  0.00  0.00    +0.000 N 
ATOM     23  H   UNL     1       9.337   7.963  19.488  0.00  0.00    +0.000 HD
BRANCH  22  24
ATOM     24  C   UNL     1       9.102  10.071  19.234  0.00  0.00    +0.000 C 
BRANCH  24  25
ATOM     25  C   UNL     1       9.661  10.870  18.054  0.00  0.00    +0.000 C 
ATOM     26  C   UNL     1      11.028  11.486  18.309  0.00  0.00    +0.000 C 
ATOM     27  C   UNL     1      10.950  12.794  17.565  0.00  0.00    +0.000 C 
ATOM     28  C   UNL     1       9.498  13.177  17.739  0.00  0.00    +0.000 C 
ATOM     29  O   UNL     1       8.760  11.950  17.735  0.00  0.00    +0.000 OA
ENDBRANCH  24  25
ENDBRANCH  22  24
ENDBRANCH  19  20
ENDBRANCH  17  19
ENDBRANCH   1  17
TORSDOF 7
ENDMDL
MODEL 7
REMARK VINA RESULT:      -7.7      2.974      5.060
REMARK  Name = 
REMARK  8 active torsions:
REMARK  status: ('A' for Active; 'I' for Inactive)
REMARK    1  A    between atoms: C_1  and  C_2
REMARK    2  A    between atoms: C_2  and  S_3
REMARK    3  A    between atoms: C_2  and  C_20
REMARK    4  A    between atoms: S_3  and  C_4
REMARK    5  A    between atoms: C_7  and  C_8
REMARK    6  A    between atoms: N_13  and  C_14
REMARK    7  A    between atoms: N_22  and  C_23
REMARK    8  A    between atoms: C_23  and  C_24
REMARK                            x       y       z     vdW  Elec       q    Type
REMARK                         _______ _______ _______ _____ _____    ______ ____
ROOT
ATOM      1  C   UNL     1       3.880   6.497  17.890  0.00  0.00    +0.000 A 
ATOM      2  N   UNL     1       3.934   7.703  17.361  0.00  0.00    +0.000 NA
ATOM      3  N   UNL     1       2.931   8.454  17.916  0.00  0.00    +0.000 NA
ATOM      4  C   UNL     1       2.319   7.714  18.820  0.00  0.00    +0.000 A 
ATOM      5  N   UNL     1       2.804   6.406  18.772  0.00  0.00    +0.000 N 
ENDROOT
BRANCH   5   6
ATOM      6  C   UNL     1       2.269   5.275  19.465  0.00  0.00    +0.000 A 
ATOM      7  C   UNL     1       2.696   4.997  20.777  0.00  0.00    +0.000 A 
ATOM      8  C   UNL     1       2.214   3.880  21.463  0.00  0.00    +0.000 A 
ATOM      9  C   UNL     1       1.281   3.044  20.862  0.00  0.00    +0.000 A 
ATOM     10  C   UNL     1       0.838   3.319  19.570  0.00  0.00    +0.000 A 
ATOM     11  C   UNL     1       1.336   4.422  18.869  0.00  0.00    +0.000 A 
ENDBRANCH   5   6
BRANCH   4  12
ATOM     12  C   UNL     1       1.432   8.255  19.810  0.00  0.00    +0.000 A 
ATOM     13  C   UNL     1       1.247   7.871  21.129  0.00  0.00    +0.000 A 
ATOM     14  C   UNL     1       0.267   8.730  21.687  0.00  0.00    +0.000 A 
ATOM     15  C   UNL     1      -0.115   9.576  20.675  0.00  0.00    +0.000 A 
ATOM     16  O   UNL     1       0.572   9.293  19.542  0.00  0.00    +0.000 OA
ENDBRANCH   4  12
BRANCH   1  17
ATOM     17  S   UNL     1       4.920   5.198  17.390  0.00  0.00    +0.000 S 
BRANCH  17  19
ATOM     18  C   UNL     1       7.068   5.065  15.710  0.00  0.00    +0.000 C 
ATOM     19  C   UNL     1       6.367   6.050  16.651  0.00  0.00    +0.000 C 
BRANCH  19  20
ATOM     20  C   UNL     1       7.360   6.492  17.730  0.00  0.00    +0.000 C 
ATOM     21  O   UNL     1       7.835   5.724  18.565  0.00  0.00    +0.000 OA
ATOM     22  N   UNL     1       7.705   7.820  17.684  0.00  0.00    +0.000 N 
ATOM     23  H   UNL     1       7.365   8.393  16.914  0.00  0.00    +0.000 HD
BRANCH  22  24
ATOM     24  C   UNL     1       8.708   8.380  18.575  0.00  0.00    +0.000 C 
BRANCH  24  25
ATOM     25  C   UNL     1       8.626   9.906  18.672  0.00  0.00    +0.000 C 
ATOM     26  C   UNL     1       9.508  10.642  17.676  0.00  0.00    +0.000 C 
ATOM     27  C   UNL     1       9.961  11.849  18.458  0.00  0.00    +0.000 C 
ATOM     28  C   UNL     1      10.071  11.301  19.861  0.00  0.00    +0.000 C 
ATOM     29  O   UNL     1       9.029  10.326  19.992  0.00  0.00    +0.000 OA
ENDBRANCH  24  25
ENDBRANCH  22  24
ENDBRANCH  19  20
ENDBRANCH  17  19
ENDBRANCH   1  17
TORSDOF 7
ENDMDL
MODEL 8
REMARK VINA RESULT:      -7.6      2.859      5.044
REMARK  Name = 
REMARK  8 active torsions:
REMARK  status: ('A' for Active; 'I' for Inactive)
REMARK    1  A    between atoms: C_1  and  C_2
REMARK    2  A    between atoms: C_2  and  S_3
REMARK    3  A    between atoms: C_2  and  C_20
REMARK    4  A    between atoms: S_3  and  C_4
REMARK    5  A    between atoms: C_7  and  C_8
REMARK    6  A    between atoms: N_13  and  C_14
REMARK    7  A    between atoms: N_22  and  C_23
REMARK    8  A    between atoms: C_23  and  C_24
REMARK                            x       y       z     vdW  Elec       q    Type
REMARK                         _______ _______ _______ _____ _____    ______ ____
ROOT
ATOM      1  C   UNL     1       2.212   7.807  18.866  0.00  0.00    +0.000 A 
ATOM      2  N   UNL     1       2.422   8.018  17.582  0.00  0.00    +0.000 NA
ATOM      3  N   UNL     1       1.969   9.276  17.280  0.00  0.00    +0.000 NA
ATOM      4  C   UNL     1       1.545   9.836  18.396  0.00  0.00    +0.000 A 
ATOM      5  N   UNL     1       1.566   8.904  19.435  0.00  0.00    +0.000 N 
ENDROOT
BRANCH   5   6
ATOM      6  C   UNL     1       1.015   9.078  20.743  0.00  0.00    +0.000 A 
ATOM      7  C   UNL     1       1.875   9.160  21.854  0.00  0.00    +0.000 A 
ATOM      8  C   UNL     1       1.362   9.296  23.146  0.00  0.00    +0.000 A 
ATOM      9  C   UNL     1      -0.011   9.380  23.343  0.00  0.00    +0.000 A 
ATOM     10  C   UNL     1      -0.872   9.316  22.248  0.00  0.00    +0.000 A 
ATOM     11  C   UNL     1      -0.364   9.155  20.955  0.00  0.00    +0.000 A 
ENDBRANCH   5   6
BRANCH   4  12
ATOM     12  C   UNL     1       1.294  11.243  18.523  0.00  0.00    +0.000 A 
ATOM     13  C   UNL     1       2.194  12.297  18.563  0.00  0.00    +0.000 A 
ATOM     14  C   UNL     1       1.440  13.493  18.684  0.00  0.00    +0.000 A 
ATOM     15  C   UNL     1       0.124  13.107  18.738  0.00  0.00    +0.000 A 
ATOM     16  O   UNL     1       0.026  11.758  18.650  0.00  0.00    +0.000 OA
ENDBRANCH   4  12
BRANCH   1  17
ATOM     17  S   UNL     1       2.554   6.292  19.643  0.00  0.00    +0.000 S 
BRANCH  17  19
ATOM     18  C   UNL     1       1.476   3.985  18.658  0.00  0.00    +0.000 C 
ATOM     19  C   UNL     1       2.489   5.069  18.277  0.00  0.00    +0.000 C 
BRANCH  19  20
ATOM     20  C   UNL     1       3.855   4.411  18.057  0.00  0.00    +0.000 C 
ATOM     21  O   UNL     1       4.319   3.553  18.806  0.00  0.00    +0.000 OA
ATOM     22  N   UNL     1       4.523   4.836  16.936  0.00  0.00    +0.000 N 
ATOM     23  H   UNL     1       4.056   5.471  16.292  0.00  0.00    +0.000 HD
BRANCH  22  24
ATOM     24  C   UNL     1       5.787   4.243  16.530  0.00  0.00    +0.000 C 
BRANCH  24  25
ATOM     25  C   UNL     1       6.977   5.179  16.754  0.00  0.00    +0.000 C 
ATOM     26  C   UNL     1       7.435   5.271  18.201  0.00  0.00    +0.000 C 
ATOM     27  C   UNL     1       7.857   6.712  18.330  0.00  0.00    +0.000 C 
ATOM     28  C   UNL     1       6.879   7.416  17.418  0.00  0.00    +0.000 C 
ATOM     29  O   UNL     1       6.625   6.514  16.334  0.00  0.00    +0.000 OA
ENDBRANCH  24  25
ENDBRANCH  22  24
ENDBRANCH  19  20
ENDBRANCH  17  19
ENDBRANCH   1  17
TORSDOF 7
ENDMDL
MODEL 9
REMARK VINA RESULT:      -7.5      2.914      5.194
REMARK  Name = 
REMARK  8 active torsions:
REMARK  status: ('A' for Active; 'I' for Inactive)
REMARK    1  A    between atoms: C_1  and  C_2
REMARK    2  A    between atoms: C_2  and  S_3
REMARK    3  A    between atoms: C_2  and  C_20
REMARK    4  A    between atoms: S_3  and  C_4
REMARK    5  A    between atoms: C_7  and  C_8
REMARK    6  A    between atoms: N_13  and  C_14
REMARK    7  A    between atoms: N_22  and  C_23
REMARK    8  A    between atoms: C_23  and  C_24
REMARK                            x       y       z     vdW  Elec       q    Type
REMARK                         _______ _______ _______ _____ _____    ______ ____
ROOT
ATOM      1  C   UNL     1       2.254   7.644  18.980  0.00  0.00    +0.000 A 
ATOM      2  N   UNL     1       2.457   7.826  17.691  0.00  0.00    +0.000 NA
ATOM      3  N   UNL     1       1.997   9.074  17.361  0.00  0.00    +0.000 NA
ATOM      4  C   UNL     1       1.576   9.659  18.465  0.00  0.00    +0.000 A 
ATOM      5  N   UNL     1       1.605   8.752  19.526  0.00  0.00    +0.000 N 
ENDROOT
BRANCH   5   6
ATOM      6  C   UNL     1       1.061   8.954  20.832  0.00  0.00    +0.000 A 
ATOM      7  C   UNL     1      -0.336   8.992  21.006  0.00  0.00    +0.000 A 
ATOM      8  C   UNL     1      -0.893   9.223  22.265  0.00  0.00    +0.000 A 
ATOM      9  C   UNL     1      -0.067   9.389  23.371  0.00  0.00    +0.000 A 
ATOM     10  C   UNL     1       1.317   9.336  23.214  0.00  0.00    +0.000 A 
ATOM     11  C   UNL     1       1.880   9.131  21.951  0.00  0.00    +0.000 A 
ENDBRANCH   5   6
BRANCH   4  12
ATOM     12  C   UNL     1       1.319  11.068  18.560  0.00  0.00    +0.000 A 
ATOM     13  C   UNL     1       2.206  12.130  18.485  0.00  0.00    +0.000 A 
ATOM     14  C   UNL     1       1.451  13.323  18.623  0.00  0.00    +0.000 A 
ATOM     15  C   UNL     1       0.148  12.927  18.802  0.00  0.00    +0.000 A 
ATOM     16  O   UNL     1       0.060  11.575  18.774  0.00  0.00    +0.000 OA
ENDBRANCH   4  12
BRANCH   1  17
ATOM     17  S   UNL     1       2.607   6.149  19.792  0.00  0.00    +0.000 S 
BRANCH  17  19
ATOM     18  C   UNL     1       1.255   3.779  19.714  0.00  0.00    +0.000 C 
ATOM     19  C   UNL     1       1.752   4.883  18.777  0.00  0.00    +0.000 C 
BRANCH  19  20
ATOM     20  C   UNL     1       2.703   4.263  17.748  0.00  0.00    +0.000 C 
ATOM     21  O   UNL     1       2.353   3.409  16.934  0.00  0.00    +0.000 OA
ATOM     22  N   UNL     1       3.986   4.751  17.784  0.00  0.00    +0.000 N 
ATOM     23  H   UNL     1       4.202   5.528  18.405  0.00  0.00    +0.000 HD
BRANCH  22  24
ATOM     24  C   UNL     1       4.987   4.339  16.814  0.00  0.00    +0.000 C 
BRANCH  24  25
ATOM     25  C   UNL     1       6.413   4.674  17.258  0.00  0.00    +0.000 C 
ATOM     26  C   UNL     1       6.521   5.152  18.698  0.00  0.00    +0.000 C 
ATOM     27  C   UNL     1       7.620   6.182  18.627  0.00  0.00    +0.000 C 
ATOM     28  C   UNL     1       7.406   6.787  17.260  0.00  0.00    +0.000 C 
ATOM     29  O   UNL     1       6.944   5.722  16.421  0.00  0.00    +0.000 OA
ENDBRANCH  24  25
ENDBRANCH  22  24
ENDBRANCH  19  20
ENDBRANCH  17  19
ENDBRANCH   1  17
TORSDOF 7
ENDMDL
