MODEL 1
REMARK VINA RESULT:      -6.6      0.000      0.000
REMARK  Name = 
REMARK  12 active torsions:
REMARK  status: ('A' for Active; 'I' for Inactive)
REMARK    1  A    between atoms: C_1  and  C_2
REMARK    2  A    between atoms: C_2  and  O_3
REMARK    3  A    between atoms: O_3  and  C_4
REMARK    4  A    between atoms: C_9  and  N_10
REMARK    5  A    between atoms: C_11  and  C_13
REMARK    6  A    between atoms: C_13  and  N_14
REMARK    7  A    between atoms: C_13  and  C_24
REMARK    8  A    between atoms: C_15  and  C_17
REMARK    9  A    between atoms: C_20  and  C_21
REMARK   10  A    between atoms: C_24  and  C_25
REMARK   11  A    between atoms: C_24  and  C_26
REMARK   12  A    between atoms: C_26  and  C_27
REMARK                            x       y       z     vdW  Elec       q    Type
REMARK                         _______ _______ _______ _____ _____    ______ ____
ROOT
ATOM      1  C   UNL     1       0.937  10.524  19.815  0.00  0.00    +0.000 C 
ENDROOT
BRANCH   1   3
ATOM      2  N   UNL     1       2.039   8.421  19.039  0.00  0.00    +0.000 N 
ATOM      3  C   UNL     1       1.176   9.466  18.695  0.00  0.00    +0.000 C 
ATOM      4  O   UNL     1       0.522   9.444  17.655  0.00  0.00    +0.000 OA
ATOM      5  H   UNL     1       2.796   8.748  19.631  0.00  0.00    +0.000 HD
BRANCH   2  11
ATOM      6  C   UNL     1       4.486   3.848  19.344  0.00  0.00    +0.000 C 
ATOM      7  O   UNL     1       5.697   3.741  19.263  0.00  0.00    +0.000 OA
ATOM      8  N   UNL     1       3.794   5.029  19.100  0.00  0.00    +0.000 N 
ATOM      9  C   UNL     1       2.372   5.193  19.363  0.00  0.00    +0.000 C 
ATOM     10  C   UNL     1       1.712   6.015  18.264  0.00  0.00    +0.000 C 
ATOM     11  C   UNL     1       2.377   7.389  18.044  0.00  0.00    +0.000 C 
ATOM     12  C   UNL     1       3.896   7.194  17.877  0.00  0.00    +0.000 C 
ATOM     13  C   UNL     1       4.545   6.260  18.905  0.00  0.00    +0.000 C 
BRANCH   6  14
ATOM     14  O   UNL     1       3.658   2.815  19.682  0.00  0.00    +0.000 OA
BRANCH  14  16
ATOM     15  C   UNL     1       2.671   2.012  17.607  0.00  0.00    +0.000 C 
ATOM     16  C   UNL     1       3.611   1.706  18.757  0.00  0.00    +0.000 C 
ENDBRANCH  14  16
ENDBRANCH   6  14
ENDBRANCH   2  11
ENDBRANCH   1   3
BRANCH   1  17
ATOM     17  N   UNL     1       0.936  11.945  19.371  0.00  0.00    +0.000 N 
ATOM     18  C   UNL     1       1.645  13.000  19.932  0.00  0.00    +0.000 C 
ATOM     19  O   UNL     1       2.238  12.914  20.999  0.00  0.00    +0.000 OA
ATOM     20  H   UNL     1       0.546  12.105  18.451  0.00  0.00    +0.000 HD
BRANCH  18  21
ATOM     21  C   UNL     1       1.493  14.325  19.148  0.00  0.00    +0.000 C 
ATOM     22  C   UNL     1       0.417  15.310  19.642  0.00  0.00    +0.000 C 
ATOM     23  C   UNL     1       0.234  16.470  18.638  0.00  0.00    +0.000 C 
ATOM     24  C   UNL     1       1.550  17.163  18.228  0.00  0.00    +0.000 C 
ATOM     25  C   UNL     1       1.327  18.094  17.030  0.00  0.00    +0.000 C 
ATOM     26  C   UNL     1       2.655  16.143  17.911  0.00  0.00    +0.000 C 
ATOM     27  C   UNL     1       2.802  15.117  19.037  0.00  0.00    +0.000 C 
ENDBRANCH  18  21
ENDBRANCH   1  17
BRANCH   1  28
ATOM     28  C   UNL     1      -0.170  10.151  20.858  0.00  0.00    +0.000 C 
ATOM     29  C   UNL     1       0.337   9.234  21.977  0.00  0.00    +0.000 C 
BRANCH  28  30
ATOM     30  C   UNL     1      -0.869  11.373  21.534  0.00  0.00    +0.000 C 
ATOM     31  C   UNL     1      -1.090  11.272  23.038  0.00  0.00    +0.000 C 
ENDBRANCH  28  30
ENDBRANCH   1  28
TORSDOF 8
ENDMDL
MODEL 2
REMARK VINA RESULT:      -6.5      3.724      9.977
REMARK  Name = 
REMARK  12 active torsions:
REMARK  status: ('A' for Active; 'I' for Inactive)
REMARK    1  A    between atoms: C_1  and  C_2
REMARK    2  A    between atoms: C_2  and  O_3
REMARK    3  A    between atoms: O_3  and  C_4
REMARK    4  A    between atoms: C_9  and  N_10
REMARK    5  A    between atoms: C_11  and  C_13
REMARK    6  A    between atoms: C_13  and  N_14
REMARK    7  A    between atoms: C_13  and  C_24
REMARK    8  A    between atoms: C_15  and  C_17
REMARK    9  A    between atoms: C_20  and  C_21
REMARK   10  A    between atoms: C_24  and  C_25
REMARK   11  A    between atoms: C_24  and  C_26
REMARK   12  A    between atoms: C_26  and  C_27
REMARK                            x       y       z     vdW  Elec       q    Type
REMARK                         _______ _______ _______ _____ _____    ______ ____
ROOT
ATOM      1  C   UNL     1       0.330  11.005  19.452  0.00  0.00    +0.000 C 
ENDROOT
BRANCH   1   3
ATOM      2  N   UNL     1      -0.963  11.603  21.503  0.00  0.00    +0.000 N 
ATOM      3  C   UNL     1       0.278  11.667  20.862  0.00  0.00    +0.000 C 
ATOM      4  O   UNL     1       1.286  12.053  21.449  0.00  0.00    +0.000 OA
ATOM      5  H   UNL     1      -1.725  11.705  20.841  0.00  0.00    +0.000 HD
BRANCH   2  11
ATOM      6  C   UNL     1      -4.409  15.012  23.372  0.00  0.00    +0.000 C 
ATOM      7  O   UNL     1      -4.268  16.219  23.267  0.00  0.00    +0.000 OA
ATOM      8  N   UNL     1      -3.430  14.085  23.034  0.00  0.00    +0.000 N 
ATOM      9  C   UNL     1      -3.665  12.649  23.000  0.00  0.00    +0.000 C 
ATOM     10  C   UNL     1      -2.460  11.893  23.545  0.00  0.00    +0.000 C 
ATOM     11  C   UNL     1      -1.144  12.237  22.821  0.00  0.00    +0.000 C 
ATOM     12  C   UNL     1      -0.975  13.768  22.777  0.00  0.00    +0.000 C 
ATOM     13  C   UNL     1      -2.228  14.543  22.354  0.00  0.00    +0.000 C 
BRANCH   6  14
ATOM     14  O   UNL     1      -5.551  14.424  23.840  0.00  0.00    +0.000 OA
BRANCH  14  16
ATOM     15  C   UNL     1      -7.269  14.707  22.139  0.00  0.00    +0.000 C 
ATOM     16  C   UNL     1      -6.790  15.097  23.524  0.00  0.00    +0.000 C 
ENDBRANCH  14  16
ENDBRANCH   6  14
ENDBRANCH   2  11
ENDBRANCH   1   3
BRANCH   1  17
ATOM     17  N   UNL     1       1.206   9.807  19.332  0.00  0.00    +0.000 N 
ATOM     18  C   UNL     1       1.229   8.698  20.169  0.00  0.00    +0.000 C 
ATOM     19  O   UNL     1       0.632   8.652  21.236  0.00  0.00    +0.000 OA
ATOM     20  H   UNL     1       1.675   9.707  18.442  0.00  0.00    +0.000 HD
BRANCH  18  21
ATOM     21  C   UNL     1       2.192   7.587  19.685  0.00  0.00    +0.000 C 
ATOM     22  C   UNL     1       1.899   6.152  20.163  0.00  0.00    +0.000 C 
ATOM     23  C   UNL     1       3.059   5.203  19.787  0.00  0.00    +0.000 C 
ATOM     24  C   UNL     1       3.479   5.276  18.305  0.00  0.00    +0.000 C 
ATOM     25  C   UNL     1       4.803   4.536  18.075  0.00  0.00    +0.000 C 
ATOM     26  C   UNL     1       3.590   6.729  17.816  0.00  0.00    +0.000 C 
ATOM     27  C   UNL     1       2.330   7.527  18.159  0.00  0.00    +0.000 C 
ENDBRANCH  18  21
ENDBRANCH   1  17
BRANCH   1  28
ATOM     28  C   UNL     1      -1.048  10.900  18.714  0.00  0.00    +0.000 C 
ATOM     29  C   UNL     1      -1.499  12.223  18.084  0.00  0.00    +0.000 C 
BRANCH  28  30
ATOM     30  C   UNL     1      -1.111   9.806  17.601  0.00  0.00    +0.000 C 
ATOM     31  C   UNL     1      -2.269   9.915  16.618  0.00  0.00    +0.000 C 
ENDBRANCH  28  30
ENDBRANCH   1  28
TORSDOF 8
ENDMDL
MODEL 3
REMARK VINA RESULT:      -6.5      3.603      9.273
REMARK  Name = 
REMARK  12 active torsions:
REMARK  status: ('A' for Active; 'I' for Inactive)
REMARK    1  A    between atoms: C_1  and  C_2
REMARK    2  A    between atoms: C_2  and  O_3
REMARK    3  A    between atoms: O_3  and  C_4
REMARK    4  A    between atoms: C_9  and  N_10
REMARK    5  A    between atoms: C_11  and  C_13
REMARK    6  A    between atoms: C_13  and  N_14
REMARK    7  A    between atoms: C_13  and  C_24
REMARK    8  A    between atoms: C_15  and  C_17
REMARK    9  A    between atoms: C_20  and  C_21
REMARK   10  A    between atoms: C_24  and  C_25
REMARK   11  A    between atoms: C_24  and  C_26
REMARK   12  A    between atoms: C_26  and  C_27
REMARK                            x       y       z     vdW  Elec       q    Type
REMARK                         _______ _______ _______ _____ _____    ______ ____
ROOT
ATOM      1  C   UNL     1       0.926   8.518  19.878  0.00  0.00    +0.000 C 
ENDROOT
BRANCH   1   3
ATOM      2  N   UNL     1      -0.781  10.133  19.031  0.00  0.00    +0.000 N 
ATOM      3  C   UNL     1       0.581   9.902  19.249  0.00  0.00    +0.000 C 
ATOM      4  O   UNL     1       1.413  10.796  19.121  0.00  0.00    +0.000 OA
ATOM      5  H   UNL     1      -1.256   9.285  18.740  0.00  0.00    +0.000 HD
BRANCH   2  11
ATOM      6  C   UNL     1      -5.443  12.304  18.295  0.00  0.00    +0.000 C 
ATOM      7  O   UNL     1      -6.145  12.049  17.332  0.00  0.00    +0.000 OA
ATOM      8  N   UNL     1      -4.129  11.871  18.433  0.00  0.00    +0.000 N 
ATOM      9  C   UNL     1      -3.357  12.033  19.656  0.00  0.00    +0.000 C 
ATOM     10  C   UNL     1      -1.913  12.396  19.336  0.00  0.00    +0.000 C 
ATOM     11  C   UNL     1      -1.222  11.388  18.397  0.00  0.00    +0.000 C 
ATOM     12  C   UNL     1      -2.113  11.153  17.163  0.00  0.00    +0.000 C 
ATOM     13  C   UNL     1      -3.596  10.917  17.472  0.00  0.00    +0.000 C 
BRANCH   6  14
ATOM     14  O   UNL     1      -5.864  13.052  19.359  0.00  0.00    +0.000 OA
BRANCH  14  16
ATOM     15  C   UNL     1      -6.851  12.296  21.451  0.00  0.00    +0.000 C 
ATOM     16  C   UNL     1      -7.091  12.627  19.991  0.00  0.00    +0.000 C 
ENDBRANCH  14  16
ENDBRANCH   6  14
ENDBRANCH   2  11
ENDBRANCH   1   3
BRANCH   1  17
ATOM     17  N   UNL     1       2.058   7.786  19.246  0.00  0.00    +0.000 N 
ATOM     18  C   UNL     1       2.380   6.443  19.399  0.00  0.00    +0.000 C 
ATOM     19  O   UNL     1       1.853   5.720  20.234  0.00  0.00    +0.000 OA
ATOM     20  H   UNL     1       2.503   8.269  18.476  0.00  0.00    +0.000 HD
BRANCH  18  21
ATOM     21  C   UNL     1       3.561   5.992  18.508  0.00  0.00    +0.000 C 
ATOM     22  C   UNL     1       4.117   7.024  17.507  0.00  0.00    +0.000 C 
ATOM     23  C   UNL     1       5.131   6.365  16.546  0.00  0.00    +0.000 C 
ATOM     24  C   UNL     1       6.233   5.550  17.254  0.00  0.00    +0.000 C 
ATOM     25  C   UNL     1       7.017   4.700  16.246  0.00  0.00    +0.000 C 
ATOM     26  C   UNL     1       5.657   4.660  18.367  0.00  0.00    +0.000 C 
ATOM     27  C   UNL     1       4.758   5.463  19.309  0.00  0.00    +0.000 C 
ENDBRANCH  18  21
ENDBRANCH   1  17
BRANCH   1  28
ATOM     28  C   UNL     1       0.890   8.469  21.442  0.00  0.00    +0.000 C 
ATOM     29  C   UNL     1       1.895   9.424  22.100  0.00  0.00    +0.000 C 
BRANCH  28  30
ATOM     30  C   UNL     1      -0.509   8.755  22.073  0.00  0.00    +0.000 C 
ATOM     31  C   UNL     1      -0.584   9.935  23.034  0.00  0.00    +0.000 C 
ENDBRANCH  28  30
ENDBRANCH   1  28
TORSDOF 8
ENDMDL
MODEL 4
REMARK VINA RESULT:      -6.5      3.696      9.357
REMARK  Name = 
REMARK  12 active torsions:
REMARK  status: ('A' for Active; 'I' for Inactive)
REMARK    1  A    between atoms: C_1  and  C_2
REMARK    2  A    between atoms: C_2  and  O_3
REMARK    3  A    between atoms: O_3  and  C_4
REMARK    4  A    between atoms: C_9  and  N_10
REMARK    5  A    between atoms: C_11  and  C_13
REMARK    6  A    between atoms: C_13  and  N_14
REMARK    7  A    between atoms: C_13  and  C_24
REMARK    8  A    between atoms: C_15  and  C_17
REMARK    9  A    between atoms: C_20  and  C_21
REMARK   10  A    between atoms: C_24  and  C_25
REMARK   11  A    between atoms: C_24  and  C_26
REMARK   12  A    between atoms: C_26  and  C_27
REMARK                            x       y       z     vdW  Elec       q    Type
REMARK                         _______ _______ _______ _____ _____    ______ ____
ROOT
ATOM      1  C   UNL     1       1.062   8.718  19.649  0.00  0.00    +0.000 C 
ENDROOT
BRANCH   1   3
ATOM      2  N   UNL     1      -0.754  10.290  18.964  0.00  0.00    +0.000 N 
ATOM      3  C   UNL     1       0.593   9.947  18.813  0.00  0.00    +0.000 C 
ATOM      4  O   UNL     1       1.378  10.674  18.209  0.00  0.00    +0.000 OA
ATOM      5  H   UNL     1      -1.335   9.464  19.065  0.00  0.00    +0.000 HD
BRANCH   2  11
ATOM      6  C   UNL     1      -5.569  12.160  18.411  0.00  0.00    +0.000 C 
ATOM      7  O   UNL     1      -6.356  11.725  17.588  0.00  0.00    +0.000 OA
ATOM      8  N   UNL     1      -4.228  11.797  18.469  0.00  0.00    +0.000 N 
ATOM      9  C   UNL     1      -3.340  12.188  19.554  0.00  0.00    +0.000 C 
ATOM     10  C   UNL     1      -1.957  12.536  19.018  0.00  0.00    +0.000 C 
ATOM     11  C   UNL     1      -1.321  11.405  18.186  0.00  0.00    +0.000 C 
ATOM     12  C   UNL     1      -2.326  10.938  17.115  0.00  0.00    +0.000 C 
ATOM     13  C   UNL     1      -3.754  10.712  17.625  0.00  0.00    +0.000 C 
BRANCH   6  14
ATOM     14  O   UNL     1      -5.911  13.064  19.377  0.00  0.00    +0.000 OA
BRANCH  14  16
ATOM     15  C   UNL     1      -7.092  13.650  21.424  0.00  0.00    +0.000 C 
ATOM     16  C   UNL     1      -6.971  12.667  20.275  0.00  0.00    +0.000 C 
ENDBRANCH  14  16
ENDBRANCH   6  14
ENDBRANCH   2  11
ENDBRANCH   1   3
BRANCH   1  17
ATOM     17  N   UNL     1       2.172   7.920  19.058  0.00  0.00    +0.000 N 
ATOM     18  C   UNL     1       2.460   6.581  19.291  0.00  0.00    +0.000 C 
ATOM     19  O   UNL     1       1.920   5.925  20.172  0.00  0.00    +0.000 OA
ATOM     20  H   UNL     1       2.623   8.344  18.258  0.00  0.00    +0.000 HD
BRANCH  18  21
ATOM     21  C   UNL     1       3.624   6.046  18.424  0.00  0.00    +0.000 C 
ATOM     22  C   UNL     1       3.391   4.713  17.687  0.00  0.00    +0.000 C 
ATOM     23  C   UNL     1       4.704   4.202  17.052  0.00  0.00    +0.000 C 
ATOM     24  C   UNL     1       5.439   5.252  16.192  0.00  0.00    +0.000 C 
ATOM     25  C   UNL     1       6.854   4.775  15.840  0.00  0.00    +0.000 C 
ATOM     26  C   UNL     1       5.496   6.620  16.891  0.00  0.00    +0.000 C 
ATOM     27  C   UNL     1       4.111   7.054  17.374  0.00  0.00    +0.000 C 
ENDBRANCH  18  21
ENDBRANCH   1  17
BRANCH   1  28
ATOM     28  C   UNL     1       1.165   8.962  21.192  0.00  0.00    +0.000 C 
ATOM     29  C   UNL     1       1.448  10.425  21.556  0.00  0.00    +0.000 C 
BRANCH  28  30
ATOM     30  C   UNL     1      -0.087   8.511  22.010  0.00  0.00    +0.000 C 
ATOM     31  C   UNL     1      -0.587   9.488  23.066  0.00  0.00    +0.000 C 
ENDBRANCH  28  30
ENDBRANCH   1  28
TORSDOF 8
ENDMDL
MODEL 5
REMARK VINA RESULT:      -6.5      3.585      9.963
REMARK  Name = 
REMARK  12 active torsions:
REMARK  status: ('A' for Active; 'I' for Inactive)
REMARK    1  A    between atoms: C_1  and  C_2
REMARK    2  A    between atoms: C_2  and  O_3
REMARK    3  A    between atoms: O_3  and  C_4
REMARK    4  A    between atoms: C_9  and  N_10
REMARK    5  A    between atoms: C_11  and  C_13
REMARK    6  A    between atoms: C_13  and  N_14
REMARK    7  A    between atoms: C_13  and  C_24
REMARK    8  A    between atoms: C_15  and  C_17
REMARK    9  A    between atoms: C_20  and  C_21
REMARK   10  A    between atoms: C_24  and  C_25
REMARK   11  A    between atoms: C_24  and  C_26
REMARK   12  A    between atoms: C_26  and  C_27
REMARK                            x       y       z     vdW  Elec       q    Type
REMARK                         _______ _______ _______ _____ _____    ______ ____
ROOT
ATOM      1  C   UNL     1       0.196  10.572  19.300  0.00  0.00    +0.000 C 
ENDROOT
BRANCH   1   3
ATOM      2  N   UNL     1      -1.029  11.481  21.277  0.00  0.00    +0.000 N 
ATOM      3  C   UNL     1       0.214  11.088  20.771  0.00  0.00    +0.000 C 
ATOM      4  O   UNL     1       1.201  10.990  21.495  0.00  0.00    +0.000 OA
ATOM      5  H   UNL     1      -1.592  11.932  20.563  0.00  0.00    +0.000 HD
BRANCH   2  11
ATOM      6  C   UNL     1      -4.116  15.041  23.466  0.00  0.00    +0.000 C 
ATOM      7  O   UNL     1      -3.867  16.234  23.443  0.00  0.00    +0.000 OA
ATOM      8  N   UNL     1      -3.231  14.057  23.040  0.00  0.00    +0.000 N 
ATOM      9  C   UNL     1      -3.597  12.654  22.910  0.00  0.00    +0.000 C 
ATOM     10  C   UNL     1      -2.456  11.756  23.371  0.00  0.00    +0.000 C 
ATOM     11  C   UNL     1      -1.127  12.032  22.640  0.00  0.00    +0.000 C 
ATOM     12  C   UNL     1      -0.821  13.541  22.700  0.00  0.00    +0.000 C 
ATOM     13  C   UNL     1      -2.006  14.454  22.364  0.00  0.00    +0.000 C 
BRANCH   6  14
ATOM     14  O   UNL     1      -5.297  14.525  23.920  0.00  0.00    +0.000 OA
BRANCH  14  16
ATOM     15  C   UNL     1      -6.734  14.719  21.965  0.00  0.00    +0.000 C 
ATOM     16  C   UNL     1      -6.500  15.137  23.403  0.00  0.00    +0.000 C 
ENDBRANCH  14  16
ENDBRANCH   6  14
ENDBRANCH   2  11
ENDBRANCH   1   3
BRANCH   1  17
ATOM     17  N   UNL     1       0.912   9.288  19.059  0.00  0.00    +0.000 N 
ATOM     18  C   UNL     1       1.981   9.072  18.198  0.00  0.00    +0.000 C 
ATOM     19  O   UNL     1       2.361   9.901  17.383  0.00  0.00    +0.000 OA
ATOM     20  H   UNL     1       0.731   8.563  19.741  0.00  0.00    +0.000 HD
BRANCH  18  21
ATOM     21  C   UNL     1       2.549   7.635  18.278  0.00  0.00    +0.000 C 
ATOM     22  C   UNL     1       1.581   6.482  17.946  0.00  0.00    +0.000 C 
ATOM     23  C   UNL     1       2.222   5.116  18.282  0.00  0.00    +0.000 C 
ATOM     24  C   UNL     1       3.631   4.917  17.688  0.00  0.00    +0.000 C 
ATOM     25  C   UNL     1       4.310   3.683  18.295  0.00  0.00    +0.000 C 
ATOM     26  C   UNL     1       4.513   6.160  17.886  0.00  0.00    +0.000 C 
ATOM     27  C   UNL     1       3.798   7.428  17.412  0.00  0.00    +0.000 C 
ENDBRANCH  18  21
ENDBRANCH   1  17
BRANCH   1  28
ATOM     28  C   UNL     1      -1.174  10.722  18.558  0.00  0.00    +0.000 C 
ATOM     29  C   UNL     1      -1.408  12.130  17.998  0.00  0.00    +0.000 C 
BRANCH  28  30
ATOM     30  C   UNL     1      -1.397   9.711  17.389  0.00  0.00    +0.000 C 
ATOM     31  C   UNL     1      -2.569  10.005  16.460  0.00  0.00    +0.000 C 
ENDBRANCH  28  30
ENDBRANCH   1  28
TORSDOF 8
ENDMDL
MODEL 6
REMARK VINA RESULT:      -6.5      3.667      9.486
REMARK  Name = 
REMARK  12 active torsions:
REMARK  status: ('A' for Active; 'I' for Inactive)
REMARK    1  A    between atoms: C_1  and  C_2
REMARK    2  A    between atoms: C_2  and  O_3
REMARK    3  A    between atoms: O_3  and  C_4
REMARK    4  A    between atoms: C_9  and  N_10
REMARK    5  A    between atoms: C_11  and  C_13
REMARK    6  A    between atoms: C_13  and  N_14
REMARK    7  A    between atoms: C_13  and  C_24
REMARK    8  A    between atoms: C_15  and  C_17
REMARK    9  A    between atoms: C_20  and  C_21
REMARK   10  A    between atoms: C_24  and  C_25
REMARK   11  A    between atoms: C_24  and  C_26
REMARK   12  A    between atoms: C_26  and  C_27
REMARK                            x       y       z     vdW  Elec       q    Type
REMARK                         _______ _______ _______ _____ _____    ______ ____
ROOT
ATOM      1  C   UNL     1       0.844   8.592  20.341  0.00  0.00    +0.000 C 
ENDROOT
BRANCH   1   3
ATOM      2  N   UNL     1      -0.810  10.038  19.155  0.00  0.00    +0.000 N 
ATOM      3  C   UNL     1       0.514   9.914  19.584  0.00  0.00    +0.000 C 
ATOM      4  O   UNL     1       1.300  10.856  19.525  0.00  0.00    +0.000 OA
ATOM      5  H   UNL     1      -1.184   9.145  18.850  0.00  0.00    +0.000 HD
BRANCH   2  11
ATOM      6  C   UNL     1      -5.413  12.292  18.301  0.00  0.00    +0.000 C 
ATOM      7  O   UNL     1      -6.157  11.952  17.397  0.00  0.00    +0.000 OA
ATOM      8  N   UNL     1      -4.112  11.825  18.451  0.00  0.00    +0.000 N 
ATOM      9  C   UNL     1      -3.292  12.102  19.621  0.00  0.00    +0.000 C 
ATOM     10  C   UNL     1      -1.848  12.366  19.217  0.00  0.00    +0.000 C 
ATOM     11  C   UNL     1      -1.227  11.224  18.387  0.00  0.00    +0.000 C 
ATOM     12  C   UNL     1      -2.169  10.880  17.217  0.00  0.00    +0.000 C 
ATOM     13  C   UNL     1      -3.648  10.743  17.597  0.00  0.00    +0.000 C 
BRANCH   6  14
ATOM     14  O   UNL     1      -5.769  13.179  19.278  0.00  0.00    +0.000 OA
BRANCH  14  16
ATOM     15  C   UNL     1      -6.637  15.414  18.856  0.00  0.00    +0.000 C 
ATOM     16  C   UNL     1      -6.970  13.945  19.036  0.00  0.00    +0.000 C 
ENDBRANCH  14  16
ENDBRANCH   6  14
ENDBRANCH   2  11
ENDBRANCH   1   3
BRANCH   1  17
ATOM     17  N   UNL     1       2.030   7.842  19.842  0.00  0.00    +0.000 N 
ATOM     18  C   UNL     1       2.252   6.473  19.922  0.00  0.00    +0.000 C 
ATOM     19  O   UNL     1       1.554   5.720  20.588  0.00  0.00    +0.000 OA
ATOM     20  H   UNL     1       2.625   8.356  19.205  0.00  0.00    +0.000 HD
BRANCH  18  21
ATOM     21  C   UNL     1       3.545   6.019  19.203  0.00  0.00    +0.000 C 
ATOM     22  C   UNL     1       4.012   4.572  19.451  0.00  0.00    +0.000 C 
ATOM     23  C   UNL     1       5.418   4.341  18.853  0.00  0.00    +0.000 C 
ATOM     24  C   UNL     1       5.557   4.780  17.381  0.00  0.00    +0.000 C 
ATOM     25  C   UNL     1       7.030   4.791  16.951  0.00  0.00    +0.000 C 
ATOM     26  C   UNL     1       4.921   6.157  17.136  0.00  0.00    +0.000 C 
ATOM     27  C   UNL     1       3.493   6.213  17.682  0.00  0.00    +0.000 C 
ENDBRANCH  18  21
ENDBRANCH   1  17
BRANCH   1  28
ATOM     28  C   UNL     1       0.708   8.664  21.899  0.00  0.00    +0.000 C 
ATOM     29  C   UNL     1       1.773   9.548  22.559  0.00  0.00    +0.000 C 
BRANCH  28  30
ATOM     30  C   UNL     1      -0.685   9.149  22.411  0.00  0.00    +0.000 C 
ATOM     31  C   UNL     1      -0.740  10.565  22.968  0.00  0.00    +0.000 C 
ENDBRANCH  28  30
ENDBRANCH   1  28
TORSDOF 8
ENDMDL
MODEL 7
REMARK VINA RESULT:      -6.4      3.176      6.173
REMARK  Name = 
REMARK  12 active torsions:
REMARK  status: ('A' for Active; 'I' for Inactive)
REMARK    1  A    between atoms: C_1  and  C_2
REMARK    2  A    between atoms: C_2  and  O_3
REMARK    3  A    between atoms: O_3  and  C_4
REMARK    4  A    between atoms: C_9  and  N_10
REMARK    5  A    between atoms: C_11  and  C_13
REMARK    6  A    between atoms: C_13  and  N_14
REMARK    7  A    between atoms: C_13  and  C_24
REMARK    8  A    between atoms: C_15  and  C_17
REMARK    9  A    between atoms: C_20  and  C_21
REMARK   10  A    between atoms: C_24  and  C_25
REMARK   11  A    between atoms: C_24  and  C_26
REMARK   12  A    between atoms: C_26  and  C_27
REMARK                            x       y       z     vdW  Elec       q    Type
REMARK                         _______ _______ _______ _____ _____    ______ ____
ROOT
ATOM      1  C   UNL     1       2.399   5.079  20.184  0.00  0.00    +0.000 C 
ENDROOT
BRANCH   1   3
ATOM      2  N   UNL     1       4.622   5.657  19.205  0.00  0.00    +0.000 N 
ATOM      3  C   UNL     1       3.832   4.641  19.751  0.00  0.00    +0.000 C 
ATOM      4  O   UNL     1       4.300   3.541  20.031  0.00  0.00    +0.000 OA
ATOM      5  H   UNL     1       4.068   6.292  18.640  0.00  0.00    +0.000 HD
BRANCH   2  11
ATOM      6  C   UNL     1       6.550   4.569  14.504  0.00  0.00    +0.000 C 
ATOM      7  O   UNL     1       6.572   3.440  14.045  0.00  0.00    +0.000 OA
ATOM      8  N   UNL     1       6.198   4.865  15.816  0.00  0.00    +0.000 N 
ATOM      9  C   UNL     1       6.009   6.222  16.307  0.00  0.00    +0.000 C 
ATOM     10  C   UNL     1       6.567   6.366  17.717  0.00  0.00    +0.000 C 
ATOM     11  C   UNL     1       5.978   5.350  18.715  0.00  0.00    +0.000 C 
ATOM     12  C   UNL     1       6.093   3.933  18.121  0.00  0.00    +0.000 C 
ATOM     13  C   UNL     1       5.656   3.809  16.657  0.00  0.00    +0.000 C 
BRANCH   6  14
ATOM     14  O   UNL     1       6.875   5.684  13.783  0.00  0.00    +0.000 OA
BRANCH  14  16
ATOM     15  C   UNL     1       7.507   5.267  11.469  0.00  0.00    +0.000 C 
ATOM     16  C   UNL     1       7.993   5.554  12.877  0.00  0.00    +0.000 C 
ENDBRANCH  14  16
ENDBRANCH   6  14
ENDBRANCH   2  11
ENDBRANCH   1   3
BRANCH   1  17
ATOM     17  N   UNL     1       2.165   6.548  20.249  0.00  0.00    +0.000 N 
ATOM     18  C   UNL     1       2.103   7.436  19.183  0.00  0.00    +0.000 C 
ATOM     19  O   UNL     1       2.415   7.131  18.039  0.00  0.00    +0.000 OA
ATOM     20  H   UNL     1       1.814   6.886  21.136  0.00  0.00    +0.000 HD
BRANCH  18  21
ATOM     21  C   UNL     1       1.736   8.878  19.608  0.00  0.00    +0.000 C 
ATOM     22  C   UNL     1       1.128   9.793  18.527  0.00  0.00    +0.000 C 
ATOM     23  C   UNL     1       1.025  11.248  19.036  0.00  0.00    +0.000 C 
ATOM     24  C   UNL     1       0.336  11.389  20.408  0.00  0.00    +0.000 C 
ATOM     25  C   UNL     1       0.527  12.802  20.973  0.00  0.00    +0.000 C 
ATOM     26  C   UNL     1       0.845  10.341  21.411  0.00  0.00    +0.000 C 
ATOM     27  C   UNL     1       0.792   8.932  20.816  0.00  0.00    +0.000 C 
ENDBRANCH  18  21
ENDBRANCH   1  17
BRANCH   1  28
ATOM     28  C   UNL     1       1.231   4.245  19.560  0.00  0.00    +0.000 C 
ATOM     29  C   UNL     1       1.466   3.879  18.090  0.00  0.00    +0.000 C 
BRANCH  28  30
ATOM     30  C   UNL     1       0.891   2.924  20.322  0.00  0.00    +0.000 C 
ATOM     31  C   UNL     1       1.422   2.815  21.745  0.00  0.00    +0.000 C 
ENDBRANCH  28  30
ENDBRANCH   1  28
TORSDOF 8
ENDMDL
MODEL 8
REMARK VINA RESULT:      -6.4      3.520      9.443
REMARK  Name = 
REMARK  12 active torsions:
REMARK  status: ('A' for Active; 'I' for Inactive)
REMARK    1  A    between atoms: C_1  and  C_2
REMARK    2  A    between atoms: C_2  and  O_3
REMARK    3  A    between atoms: O_3  and  C_4
REMARK    4  A    between atoms: C_9  and  N_10
REMARK    5  A    between atoms: C_11  and  C_13
REMARK    6  A    between atoms: C_13  and  N_14
REMARK    7  A    between atoms: C_13  and  C_24
REMARK    8  A    between atoms: C_15  and  C_17
REMARK    9  A    between atoms: C_20  and  C_21
REMARK   10  A    between atoms: C_24  and  C_25
REMARK   11  A    between atoms: C_24  and  C_26
REMARK   12  A    between atoms: C_26  and  C_27
REMARK                            x       y       z     vdW  Elec       q    Type
REMARK                         _______ _______ _______ _____ _____    ______ ____
ROOT
ATOM      1  C   UNL     1       0.999   8.554  19.835  0.00  0.00    +0.000 C 
ENDROOT
BRANCH   1   3
ATOM      2  N   UNL     1      -0.712  10.274  19.244  0.00  0.00    +0.000 N 
ATOM      3  C   UNL     1       0.648   9.952  19.239  0.00  0.00    +0.000 C 
ATOM      4  O   UNL     1       1.505  10.783  18.955  0.00  0.00    +0.000 OA
ATOM      5  H   UNL     1      -1.286   9.458  19.056  0.00  0.00    +0.000 HD
BRANCH   2  11
ATOM      6  C   UNL     1      -5.256  12.794  19.304  0.00  0.00    +0.000 C 
ATOM      7  O   UNL     1      -6.140  12.579  18.493  0.00  0.00    +0.000 OA
ATOM      8  N   UNL     1      -3.975  12.261  19.213  0.00  0.00    +0.000 N 
ATOM      9  C   UNL     1      -2.980  12.382  20.269  0.00  0.00    +0.000 C 
ATOM     10  C   UNL     1      -1.597  12.625  19.680  0.00  0.00    +0.000 C 
ATOM     11  C   UNL     1      -1.168  11.549  18.662  0.00  0.00    +0.000 C 
ATOM     12  C   UNL     1      -2.287  11.365  17.619  0.00  0.00    +0.000 C 
ATOM     13  C   UNL     1      -3.701  11.252  18.202  0.00  0.00    +0.000 C 
BRANCH   6  14
ATOM     14  O   UNL     1      -5.416  13.591  20.402  0.00  0.00    +0.000 OA
BRANCH  14  16
ATOM     15  C   UNL     1      -4.665  15.831  20.991  0.00  0.00    +0.000 C 
ATOM     16  C   UNL     1      -5.610  15.000  20.144  0.00  0.00    +0.000 C 
ENDBRANCH  14  16
ENDBRANCH   6  14
ENDBRANCH   2  11
ENDBRANCH   1   3
BRANCH   1  17
ATOM     17  N   UNL     1       2.118   7.831  19.169  0.00  0.00    +0.000 N 
ATOM     18  C   UNL     1       2.451   6.490  19.308  0.00  0.00    +0.000 C 
ATOM     19  O   UNL     1       1.952   5.761  20.155  0.00  0.00    +0.000 OA
ATOM     20  H   UNL     1       2.538   8.320  18.389  0.00  0.00    +0.000 HD
BRANCH  18  21
ATOM     21  C   UNL     1       3.610   6.049  18.383  0.00  0.00    +0.000 C 
ATOM     22  C   UNL     1       3.400   4.759  17.566  0.00  0.00    +0.000 C 
ATOM     23  C   UNL     1       4.712   4.332  16.871  0.00  0.00    +0.000 C 
ATOM     24  C   UNL     1       5.395   5.457  16.065  0.00  0.00    +0.000 C 
ATOM     25  C   UNL     1       6.814   5.049  15.652  0.00  0.00    +0.000 C 
ATOM     26  C   UNL     1       5.428   6.778  16.850  0.00  0.00    +0.000 C 
ATOM     27  C   UNL     1       4.042   7.136  17.390  0.00  0.00    +0.000 C 
ENDBRANCH  18  21
ENDBRANCH   1  17
BRANCH   1  28
ATOM     28  C   UNL     1       0.992   8.476  21.399  0.00  0.00    +0.000 C 
ATOM     29  C   UNL     1       1.877   9.538  22.062  0.00  0.00    +0.000 C 
BRANCH  28  30
ATOM     30  C   UNL     1      -0.424   8.573  22.051  0.00  0.00    +0.000 C 
ATOM     31  C   UNL     1      -0.644   9.736  23.010  0.00  0.00    +0.000 C 
ENDBRANCH  28  30
ENDBRANCH   1  28
TORSDOF 8
ENDMDL
MODEL 9
REMARK VINA RESULT:      -6.2      3.645      6.479
REMARK  Name = 
REMARK  12 active torsions:
REMARK  status: ('A' for Active; 'I' for Inactive)
REMARK    1  A    between atoms: C_1  and  C_2
REMARK    2  A    between atoms: C_2  and  O_3
REMARK    3  A    between atoms: O_3  and  C_4
REMARK    4  A    between atoms: C_9  and  N_10
REMARK    5  A    between atoms: C_11  and  C_13
REMARK    6  A    between atoms: C_13  and  N_14
REMARK    7  A    between atoms: C_13  and  C_24
REMARK    8  A    between atoms: C_15  and  C_17
REMARK    9  A    between atoms: C_20  and  C_21
REMARK   10  A    between atoms: C_24  and  C_25
REMARK   11  A    between atoms: C_24  and  C_26
REMARK   12  A    between atoms: C_26  and  C_27
REMARK                            x       y       z     vdW  Elec       q    Type
REMARK                         _______ _______ _______ _____ _____    ______ ____
ROOT
ATOM      1  C   UNL     1       3.270   5.234  19.892  0.00  0.00    +0.000 C 
ENDROOT
BRANCH   1   3
ATOM      2  N   UNL     1       4.483   5.759  17.774  0.00  0.00    +0.000 N 
ATOM      3  C   UNL     1       4.614   5.414  19.122  0.00  0.00    +0.000 C 
ATOM      4  O   UNL     1       5.703   5.432  19.688  0.00  0.00    +0.000 OA
ATOM      5  H   UNL     1       3.686   5.295  17.349  0.00  0.00    +0.000 HD
BRANCH   2  11
ATOM      6  C   UNL     1       5.985   3.598  13.294  0.00  0.00    +0.000 C 
ATOM      7  O   UNL     1       6.579   2.535  13.240  0.00  0.00    +0.000 OA
ATOM      8  N   UNL     1       5.720   4.279  14.476  0.00  0.00    +0.000 N 
ATOM      9  C   UNL     1       4.865   5.455  14.549  0.00  0.00    +0.000 C 
ATOM     10  C   UNL     1       5.438   6.478  15.522  0.00  0.00    +0.000 C 
ATOM     11  C   UNL     1       5.684   5.908  16.933  0.00  0.00    +0.000 C 
ATOM     12  C   UNL     1       6.499   4.605  16.817  0.00  0.00    +0.000 C 
ATOM     13  C   UNL     1       6.004   3.627  15.745  0.00  0.00    +0.000 C 
BRANCH   6  14
ATOM     14  O   UNL     1       5.508   4.253  12.192  0.00  0.00    +0.000 OA
BRANCH  14  16
ATOM     15  C   UNL     1       3.504   3.405  11.102  0.00  0.00    +0.000 C 
ATOM     16  C   UNL     1       5.020   3.420  11.118  0.00  0.00    +0.000 C 
ENDBRANCH  14  16
ENDBRANCH   6  14
ENDBRANCH   2  11
ENDBRANCH   1   3
BRANCH   1  17
ATOM     17  N   UNL     1       2.613   6.492  20.344  0.00  0.00    +0.000 N 
ATOM     18  C   UNL     1       2.135   7.523  19.545  0.00  0.00    +0.000 C 
ATOM     19  O   UNL     1       2.361   7.599  18.345  0.00  0.00    +0.000 OA
ATOM     20  H   UNL     1       2.304   6.490  21.308  0.00  0.00    +0.000 HD
BRANCH  18  21
ATOM     21  C   UNL     1       1.412   8.632  20.346  0.00  0.00    +0.000 C 
ATOM     22  C   UNL     1       0.584   9.651  19.539  0.00  0.00    +0.000 C 
ATOM     23  C   UNL     1       0.112  10.812  20.443  0.00  0.00    +0.000 C 
ATOM     24  C   UNL     1      -0.584  10.357  21.742  0.00  0.00    +0.000 C 
ATOM     25  C   UNL     1      -0.760  11.535  22.708  0.00  0.00    +0.000 C 
ATOM     26  C   UNL     1       0.183   9.216  22.428  0.00  0.00    +0.000 C 
ATOM     27  C   UNL     1       0.491   8.085  21.445  0.00  0.00    +0.000 C 
ENDBRANCH  18  21
ENDBRANCH   1  17
BRANCH   1  28
ATOM     28  C   UNL     1       2.304   4.151  19.304  0.00  0.00    +0.000 C 
ATOM     29  C   UNL     1       3.030   2.888  18.827  0.00  0.00    +0.000 C 
BRANCH  28  30
ATOM     30  C   UNL     1       1.164   3.699  20.271  0.00  0.00    +0.000 C 
ATOM     31  C   UNL     1       1.608   3.060  21.580  0.00  0.00    +0.000 C 
ENDBRANCH  28  30
ENDBRANCH   1  28
TORSDOF 8
ENDMDL
