MODEL 1
REMARK VINA RESULT:      -9.8      0.000      0.000
REMARK  Name = 
REMARK  7 active torsions:
REMARK  status: ('A' for Active; 'I' for Inactive)
REMARK    1  A    between atoms: C_1  and  N_2
REMARK    2  A    between atoms: C_3  and  C_5
REMARK    3  A    between atoms: C_8  and  C_9
REMARK    4  A    between atoms: N_17  and  C_18
REMARK    5  A    between atoms: C_18  and  C_19
REMARK    6  A    between atoms: C_19  and  N_20
REMARK    7  A    between atoms: C_24  and  C_25
REMARK                            x       y       z     vdW  Elec       q    Type
REMARK                         _______ _______ _______ _____ _____    ______ ____
ROOT
ATOM      1  C   UNL     1       3.423   5.631  18.933  0.00  0.00    +0.000 A 
ATOM      2  C   UNL     1       2.803   5.143  20.101  0.00  0.00    +0.000 A 
ATOM      3  C   UNL     1       1.705   5.948  20.909  0.00  0.00    +0.000 A 
ATOM      4  C   UNL     1       1.317   7.273  20.570  0.00  0.00    +0.000 A 
ATOM      5  C   UNL     1       2.041   7.516  19.467  0.00  0.00    +0.000 A 
ATOM      6  C   UNL     1       2.820   6.763  18.605  0.00  0.00    +0.000 A 
ATOM      7  C   UNL     1       2.235   8.820  18.920  0.00  0.00    +0.000 C 
ATOM      8  C   UNL     1       1.299   9.862  18.944  0.00  0.00    +0.000 C 
ATOM      9  N   UNL     1       0.473   9.938  20.026  0.00  0.00    +0.000 N 
ATOM     10  C   UNL     1       0.332   8.704  20.917  0.00  0.00    +0.000 C 
ATOM     11  O   UNL     1      -0.484   8.638  21.831  0.00  0.00    +0.000 OA
ENDROOT
BRANCH   1  15
ATOM     12  C   UNL     1       5.820   4.897  15.355  0.00  0.00    +0.000 A 
ATOM     13  C   UNL     1       5.678   3.906  16.354  0.00  0.00    +0.000 A 
ATOM     14  C   UNL     1       4.997   4.135  17.581  0.00  0.00    +0.000 A 
ATOM     15  C   UNL     1       4.478   5.381  17.877  0.00  0.00    +0.000 A 
ATOM     16  C   UNL     1       4.710   6.397  16.842  0.00  0.00    +0.000 A 
ATOM     17  C   UNL     1       5.305   6.154  15.596  0.00  0.00    +0.000 A 
BRANCH  12  20
ATOM     18  C   UNL     1       6.586   3.229  12.072  0.00  0.00    +0.000 C 
ATOM     19  N   UNL     1       5.987   3.633  13.291  0.00  0.00    +0.000 N 
ATOM     20  C   UNL     1       6.507   4.660  14.050  0.00  0.00    +0.000 C 
ATOM     21  O   UNL     1       7.495   5.306  13.700  0.00  0.00    +0.000 OA
ATOM     22  H   UNL     1       5.078   3.249  13.526  0.00  0.00    +0.000 HD
ENDBRANCH  12  20
ENDBRANCH   1  15
BRANCH   9  23
ATOM     23  C   UNL     1      -0.089  11.345  19.726  0.00  0.00    +0.000 C 
BRANCH  23  24
ATOM     24  C   UNL     1      -1.792  11.382  19.061  0.00  0.00    +0.000 C 
BRANCH  24  25
ATOM     25  N   UNL     1      -2.343  11.038  17.663  0.00  0.00    +0.000 NA
ATOM     26  C   UNL     1      -1.858   9.997  16.757  0.00  0.00    +0.000 C 
ATOM     27  C   UNL     1      -3.070   9.540  15.952  0.00  0.00    +0.000 C 
ATOM     28  C   UNL     1      -3.892  10.806  15.825  0.00  0.00    +0.000 C 
ATOM     29  C   UNL     1      -3.645  11.528  17.171  0.00  0.00    +0.000 C 
ATOM     30  C   UNL     1      -4.771  11.195  18.136  0.00  0.00    +0.000 C 
ENDBRANCH  24  25
ENDBRANCH  23  24
ENDBRANCH   9  23
TORSDOF 5
ENDMDL
MODEL 2
REMARK VINA RESULT:      -9.6      0.945      1.433
REMARK  Name = 
REMARK  7 active torsions:
REMARK  status: ('A' for Active; 'I' for Inactive)
REMARK    1  A    between atoms: C_1  and  N_2
REMARK    2  A    between atoms: C_3  and  C_5
REMARK    3  A    between atoms: C_8  and  C_9
REMARK    4  A    between atoms: N_17  and  C_18
REMARK    5  A    between atoms: C_18  and  C_19
REMARK    6  A    between atoms: C_19  and  N_20
REMARK    7  A    between atoms: C_24  and  C_25
REMARK                            x       y       z     vdW  Elec       q    Type
REMARK                         _______ _______ _______ _____ _____    ______ ____
ROOT
ATOM      1  C   UNL     1       3.150   6.080  18.871  0.00  0.00    +0.000 A 
ATOM      2  C   UNL     1       2.464   5.859  20.082  0.00  0.00    +0.000 A 
ATOM      3  C   UNL     1       1.465   6.907  20.725  0.00  0.00    +0.000 A 
ATOM      4  C   UNL     1       1.245   8.198  20.174  0.00  0.00    +0.000 A 
ATOM      5  C   UNL     1       2.003   8.177  19.067  0.00  0.00    +0.000 A 
ATOM      6  C   UNL     1       2.692   7.210  18.355  0.00  0.00    +0.000 A 
ATOM      7  C   UNL     1       2.360   9.345  18.330  0.00  0.00    +0.000 C 
ATOM      8  C   UNL     1       1.558  10.483  18.166  0.00  0.00    +0.000 C 
ATOM      9  N   UNL     1       0.737  10.826  19.200  0.00  0.00    +0.000 N 
ATOM     10  C   UNL     1       0.439   9.772  20.266  0.00  0.00    +0.000 C 
ATOM     11  O   UNL     1      -0.388   9.949  21.156  0.00  0.00    +0.000 OA
ENDROOT
BRANCH   1  15
ATOM     12  C   UNL     1       5.700   4.991  15.495  0.00  0.00    +0.000 A 
ATOM     13  C   UNL     1       4.843   4.041  16.098  0.00  0.00    +0.000 A 
ATOM     14  C   UNL     1       4.075   4.320  17.262  0.00  0.00    +0.000 A 
ATOM     15  C   UNL     1       4.176   5.543  17.897  0.00  0.00    +0.000 A 
ATOM     16  C   UNL     1       5.130   6.472  17.278  0.00  0.00    +0.000 A 
ATOM     17  C   UNL     1       5.825   6.233  16.083  0.00  0.00    +0.000 A 
BRANCH  12  20
ATOM     18  C   UNL     1       6.571   3.417  12.193  0.00  0.00    +0.000 C 
ATOM     19  N   UNL     1       5.905   3.841  13.369  0.00  0.00    +0.000 N 
ATOM     20  C   UNL     1       6.489   4.720  14.256  0.00  0.00    +0.000 C 
ATOM     21  O   UNL     1       7.602   5.212  14.065  0.00  0.00    +0.000 OA
ATOM     22  H   UNL     1       4.925   3.602  13.475  0.00  0.00    +0.000 HD
ENDBRANCH  12  20
ENDBRANCH   1  15
BRANCH   9  23
ATOM     23  C   UNL     1       0.354  12.225  18.669  0.00  0.00    +0.000 C 
BRANCH  23  24
ATOM     24  C   UNL     1      -1.440  12.536  18.509  0.00  0.00    +0.000 C 
BRANCH  24  25
ATOM     25  N   UNL     1      -2.640  11.567  18.480  0.00  0.00    +0.000 NA
ATOM     26  C   UNL     1      -4.011  11.852  18.902  0.00  0.00    +0.000 C 
ATOM     27  C   UNL     1      -4.910  10.976  18.035  0.00  0.00    +0.000 C 
ATOM     28  C   UNL     1      -4.067   9.738  17.813  0.00  0.00    +0.000 C 
ATOM     29  C   UNL     1      -2.626  10.295  17.731  0.00  0.00    +0.000 C 
ATOM     30  C   UNL     1      -2.249  10.507  16.274  0.00  0.00    +0.000 C 
ENDBRANCH  24  25
ENDBRANCH  23  24
ENDBRANCH   9  23
TORSDOF 5
ENDMDL
MODEL 3
REMARK VINA RESULT:      -9.2      1.999      2.723
REMARK  Name = 
REMARK  7 active torsions:
REMARK  status: ('A' for Active; 'I' for Inactive)
REMARK    1  A    between atoms: C_1  and  N_2
REMARK    2  A    between atoms: C_3  and  C_5
REMARK    3  A    between atoms: C_8  and  C_9
REMARK    4  A    between atoms: N_17  and  C_18
REMARK    5  A    between atoms: C_18  and  C_19
REMARK    6  A    between atoms: C_19  and  N_20
REMARK    7  A    between atoms: C_24  and  C_25
REMARK                            x       y       z     vdW  Elec       q    Type
REMARK                         _______ _______ _______ _____ _____    ______ ____
ROOT
ATOM      1  C   UNL     1       3.467   5.479  18.921  0.00  0.00    +0.000 A 
ATOM      2  C   UNL     1       2.877   5.154  20.159  0.00  0.00    +0.000 A 
ATOM      3  C   UNL     1       1.823   6.078  20.895  0.00  0.00    +0.000 A 
ATOM      4  C   UNL     1       1.449   7.359  20.406  0.00  0.00    +0.000 A 
ATOM      5  C   UNL     1       2.139   7.447  19.259  0.00  0.00    +0.000 A 
ATOM      6  C   UNL     1       2.874   6.576  18.474  0.00  0.00    +0.000 A 
ATOM      7  C   UNL     1       2.340   8.668  18.548  0.00  0.00    +0.000 C 
ATOM      8  C   UNL     1       1.425   9.727  18.471  0.00  0.00    +0.000 C 
ATOM      9  N   UNL     1       0.638   9.955  19.561  0.00  0.00    +0.000 N 
ATOM     10  C   UNL     1       0.504   8.844  20.602  0.00  0.00    +0.000 C 
ATOM     11  O   UNL     1      -0.282   8.912  21.542  0.00  0.00    +0.000 OA
ENDROOT
BRANCH   1  15
ATOM     12  C   UNL     1       5.950   4.815  15.388  0.00  0.00    +0.000 A 
ATOM     13  C   UNL     1       5.139   3.783  15.915  0.00  0.00    +0.000 A 
ATOM     14  C   UNL     1       4.397   3.919  17.120  0.00  0.00    +0.000 A 
ATOM     15  C   UNL     1       4.480   5.075  17.871  0.00  0.00    +0.000 A 
ATOM     16  C   UNL     1       5.387   6.092  17.324  0.00  0.00    +0.000 A 
ATOM     17  C   UNL     1       6.054   5.996  16.094  0.00  0.00    +0.000 A 
BRANCH  12  20
ATOM     18  C   UNL     1       6.934   3.422  12.036  0.00  0.00    +0.000 C 
ATOM     19  N   UNL     1       6.260   3.716  13.247  0.00  0.00    +0.000 N 
ATOM     20  C   UNL     1       6.710   4.695  14.108  0.00  0.00    +0.000 C 
ATOM     21  O   UNL     1       7.697   5.390  13.862  0.00  0.00    +0.000 OA
ATOM     22  H   UNL     1       5.351   3.294  13.403  0.00  0.00    +0.000 HD
ENDBRANCH  12  20
ENDBRANCH   1  15
BRANCH   9  23
ATOM     23  C   UNL     1       0.093  11.327  19.106  0.00  0.00    +0.000 C 
BRANCH  23  24
ATOM     24  C   UNL     1      -0.525  12.407  20.445  0.00  0.00    +0.000 C 
BRANCH  24  25
ATOM     25  N   UNL     1      -1.745  12.270  21.378  0.00  0.00    +0.000 NA
ATOM     26  C   UNL     1      -1.752  11.755  22.747  0.00  0.00    +0.000 C 
ATOM     27  C   UNL     1      -2.884  12.483  23.466  0.00  0.00    +0.000 C 
ATOM     28  C   UNL     1      -3.906  12.689  22.369  0.00  0.00    +0.000 C 
ATOM     29  C   UNL     1      -3.039  12.928  21.111  0.00  0.00    +0.000 C 
ATOM     30  C   UNL     1      -2.871  14.423  20.890  0.00  0.00    +0.000 C 
ENDBRANCH  24  25
ENDBRANCH  23  24
ENDBRANCH   9  23
TORSDOF 5
ENDMDL
MODEL 4
REMARK VINA RESULT:      -9.2      2.451      3.527
REMARK  Name = 
REMARK  7 active torsions:
REMARK  status: ('A' for Active; 'I' for Inactive)
REMARK    1  A    between atoms: C_1  and  N_2
REMARK    2  A    between atoms: C_3  and  C_5
REMARK    3  A    between atoms: C_8  and  C_9
REMARK    4  A    between atoms: N_17  and  C_18
REMARK    5  A    between atoms: C_18  and  C_19
REMARK    6  A    between atoms: C_19  and  N_20
REMARK    7  A    between atoms: C_24  and  C_25
REMARK                            x       y       z     vdW  Elec       q    Type
REMARK                         _______ _______ _______ _____ _____    ______ ____
ROOT
ATOM      1  C   UNL     1       3.375   5.756  18.840  0.00  0.00    +0.000 A 
ATOM      2  C   UNL     1       2.778   5.541  20.098  0.00  0.00    +0.000 A 
ATOM      3  C   UNL     1       1.772   6.560  20.775  0.00  0.00    +0.000 A 
ATOM      4  C   UNL     1       1.457   7.823  20.204  0.00  0.00    +0.000 A 
ATOM      5  C   UNL     1       2.144   7.803  19.052  0.00  0.00    +0.000 A 
ATOM      6  C   UNL     1       2.832   6.848  18.323  0.00  0.00    +0.000 A 
ATOM      7  C   UNL     1       2.397   8.964  18.262  0.00  0.00    +0.000 C 
ATOM      8  C   UNL     1       1.533  10.057  18.119  0.00  0.00    +0.000 C 
ATOM      9  N   UNL     1       0.764  10.394  19.194  0.00  0.00    +0.000 N 
ATOM     10  C   UNL     1       0.584   9.361  20.305  0.00  0.00    +0.000 C 
ATOM     11  O   UNL     1      -0.192   9.526  21.241  0.00  0.00    +0.000 OA
ENDROOT
BRANCH   1  15
ATOM     12  C   UNL     1       5.899   4.850  15.392  0.00  0.00    +0.000 A 
ATOM     13  C   UNL     1       4.902   3.946  15.823  0.00  0.00    +0.000 A 
ATOM     14  C   UNL     1       4.128   4.148  16.999  0.00  0.00    +0.000 A 
ATOM     15  C   UNL     1       4.362   5.237  17.816  0.00  0.00    +0.000 A 
ATOM     16  C   UNL     1       5.454   6.111  17.368  0.00  0.00    +0.000 A 
ATOM     17  C   UNL     1       6.160   5.962  16.166  0.00  0.00    +0.000 A 
BRANCH  12  20
ATOM     18  C   UNL     1       6.909   3.356  12.091  0.00  0.00    +0.000 C 
ATOM     19  N   UNL     1       6.213   3.709  13.273  0.00  0.00    +0.000 N 
ATOM     20  C   UNL     1       6.697   4.664  14.142  0.00  0.00    +0.000 C 
ATOM     21  O   UNL     1       7.738   5.286  13.929  0.00  0.00    +0.000 OA
ATOM     22  H   UNL     1       5.272   3.353  13.398  0.00  0.00    +0.000 HD
ENDBRANCH  12  20
ENDBRANCH   1  15
BRANCH   9  23
ATOM     23  C   UNL     1       0.281  11.757  18.650  0.00  0.00    +0.000 C 
BRANCH  23  24
ATOM     24  C   UNL     1       0.895  13.221  19.557  0.00  0.00    +0.000 C 
BRANCH  24  25
ATOM     25  N   UNL     1       1.890  14.326  19.146  0.00  0.00    +0.000 NA
ATOM     26  C   UNL     1       3.079  14.172  18.309  0.00  0.00    +0.000 C 
ATOM     27  C   UNL     1       3.265  15.504  17.590  0.00  0.00    +0.000 C 
ATOM     28  C   UNL     1       2.761  16.511  18.602  0.00  0.00    +0.000 C 
ATOM     29  C   UNL     1       1.600  15.765  19.302  0.00  0.00    +0.000 C 
ATOM     30  C   UNL     1       0.285  16.147  18.643  0.00  0.00    +0.000 C 
ENDBRANCH  24  25
ENDBRANCH  23  24
ENDBRANCH   9  23
TORSDOF 5
ENDMDL
MODEL 5
REMARK VINA RESULT:      -9.1      1.756      2.737
REMARK  Name = 
REMARK  7 active torsions:
REMARK  status: ('A' for Active; 'I' for Inactive)
REMARK    1  A    between atoms: C_1  and  N_2
REMARK    2  A    between atoms: C_3  and  C_5
REMARK    3  A    between atoms: C_8  and  C_9
REMARK    4  A    between atoms: N_17  and  C_18
REMARK    5  A    between atoms: C_18  and  C_19
REMARK    6  A    between atoms: C_19  and  N_20
REMARK    7  A    between atoms: C_24  and  C_25
REMARK                            x       y       z     vdW  Elec       q    Type
REMARK                         _______ _______ _______ _____ _____    ______ ____
ROOT
ATOM      1  C   UNL     1       3.511   5.368  18.860  0.00  0.00    +0.000 A 
ATOM      2  C   UNL     1       2.935   4.993  20.090  0.00  0.00    +0.000 A 
ATOM      3  C   UNL     1       1.881   5.883  20.869  0.00  0.00    +0.000 A 
ATOM      4  C   UNL     1       1.495   7.179  20.431  0.00  0.00    +0.000 A 
ATOM      5  C   UNL     1       2.174   7.313  19.282  0.00  0.00    +0.000 A 
ATOM      6  C   UNL     1       2.907   6.476  18.459  0.00  0.00    +0.000 A 
ATOM      7  C   UNL     1       2.360   8.561  18.615  0.00  0.00    +0.000 C 
ATOM      8  C   UNL     1       1.438   9.615  18.585  0.00  0.00    +0.000 C 
ATOM      9  N   UNL     1       0.660   9.798  19.690  0.00  0.00    +0.000 N 
ATOM     10  C   UNL     1       0.542   8.649  20.690  0.00  0.00    +0.000 C 
ATOM     11  O   UNL     1      -0.235   8.676  21.639  0.00  0.00    +0.000 OA
ENDROOT
BRANCH   1  15
ATOM     12  C   UNL     1       5.877   4.710  15.246  0.00  0.00    +0.000 A 
ATOM     13  C   UNL     1       5.263   3.631  15.923  0.00  0.00    +0.000 A 
ATOM     14  C   UNL     1       4.573   3.782  17.157  0.00  0.00    +0.000 A 
ATOM     15  C   UNL     1       4.517   5.010  17.787  0.00  0.00    +0.000 A 
ATOM     16  C   UNL     1       5.228   6.086  17.085  0.00  0.00    +0.000 A 
ATOM     17  C   UNL     1       5.836   5.961  15.828  0.00  0.00    +0.000 A 
BRANCH  12  20
ATOM     18  C   UNL     1       6.786   3.201  11.924  0.00  0.00    +0.000 C 
ATOM     19  N   UNL     1       6.156   3.517  13.153  0.00  0.00    +0.000 N 
ATOM     20  C   UNL     1       6.578   4.570  13.935  0.00  0.00    +0.000 C 
ATOM     21  O   UNL     1       7.499   5.316  13.600  0.00  0.00    +0.000 OA
ATOM     22  H   UNL     1       5.288   3.043  13.380  0.00  0.00    +0.000 HD
ENDBRANCH  12  20
ENDBRANCH   1  15
BRANCH   9  23
ATOM     23  C   UNL     1       0.101  11.182  19.290  0.00  0.00    +0.000 C 
BRANCH  23  24
ATOM     24  C   UNL     1      -1.643  11.483  19.744  0.00  0.00    +0.000 C 
BRANCH  24  25
ATOM     25  N   UNL     1      -2.279  12.497  20.717  0.00  0.00    +0.000 NA
ATOM     26  C   UNL     1      -3.644  13.019  20.676  0.00  0.00    +0.000 C 
ATOM     27  C   UNL     1      -4.026  13.316  22.123  0.00  0.00    +0.000 C 
ATOM     28  C   UNL     1      -2.711  13.738  22.743  0.00  0.00    +0.000 C 
ATOM     29  C   UNL     1      -1.672  12.852  22.015  0.00  0.00    +0.000 C 
ATOM     30  C   UNL     1      -1.384  11.619  22.855  0.00  0.00    +0.000 C 
ENDBRANCH  24  25
ENDBRANCH  23  24
ENDBRANCH   9  23
TORSDOF 5
ENDMDL
MODEL 6
REMARK VINA RESULT:      -9.1      3.272     10.484
REMARK  Name = 
REMARK  7 active torsions:
REMARK  status: ('A' for Active; 'I' for Inactive)
REMARK    1  A    between atoms: C_1  and  N_2
REMARK    2  A    between atoms: C_3  and  C_5
REMARK    3  A    between atoms: C_8  and  C_9
REMARK    4  A    between atoms: N_17  and  C_18
REMARK    5  A    between atoms: C_18  and  C_19
REMARK    6  A    between atoms: C_19  and  N_20
REMARK    7  A    between atoms: C_24  and  C_25
REMARK                            x       y       z     vdW  Elec       q    Type
REMARK                         _______ _______ _______ _____ _____    ______ ____
ROOT
ATOM      1  C   UNL     1       0.155  10.644  19.769  0.00  0.00    +0.000 A 
ATOM      2  C   UNL     1       0.864  11.039  18.617  0.00  0.00    +0.000 A 
ATOM      3  C   UNL     1       1.899  10.106  17.864  0.00  0.00    +0.000 A 
ATOM      4  C   UNL     1       2.264   8.819  18.343  0.00  0.00    +0.000 A 
ATOM      5  C   UNL     1       1.492   8.681  19.431  0.00  0.00    +0.000 A 
ATOM      6  C   UNL     1       0.418   9.363  19.977  0.00  0.00    +0.000 A 
ATOM      7  C   UNL     1       1.705   7.688  20.432  0.00  0.00    +0.000 C 
ATOM      8  C   UNL     1       2.201   6.397  20.208  0.00  0.00    +0.000 C 
ATOM      9  N   UNL     1       3.113   6.241  19.206  0.00  0.00    +0.000 N 
ATOM     10  C   UNL     1       3.232   7.347  18.158  0.00  0.00    +0.000 C 
ATOM     11  O   UNL     1       3.929   7.233  17.154  0.00  0.00    +0.000 OA
ENDROOT
BRANCH   1  15
ATOM     12  C   UNL     1      -2.249  12.617  22.836  0.00  0.00    +0.000 A 
ATOM     13  C   UNL     1      -1.328  11.600  23.174  0.00  0.00    +0.000 A 
ATOM     14  C   UNL     1      -0.601  10.857  22.203  0.00  0.00    +0.000 A 
ATOM     15  C   UNL     1      -0.810  11.071  20.854  0.00  0.00    +0.000 A 
ATOM     16  C   UNL     1      -1.826  12.086  20.548  0.00  0.00    +0.000 A 
ATOM     17  C   UNL     1      -2.482  12.878  21.501  0.00  0.00    +0.000 A 
BRANCH  12  20
ATOM     18  C   UNL     1      -2.858  15.324  25.375  0.00  0.00    +0.000 C 
ATOM     19  N   UNL     1      -2.317  14.516  24.345  0.00  0.00    +0.000 N 
ATOM     20  C   UNL     1      -2.996  13.424  23.848  0.00  0.00    +0.000 C 
ATOM     21  O   UNL     1      -4.118  13.106  24.243  0.00  0.00    +0.000 OA
ATOM     22  H   UNL     1      -1.481  14.842  23.871  0.00  0.00    +0.000 HD
ENDBRANCH  12  20
ENDBRANCH   1  15
BRANCH   9  23
ATOM     23  C   UNL     1       3.543   4.803  19.575  0.00  0.00    +0.000 C 
BRANCH  23  24
ATOM     24  C   UNL     1       5.152   4.269  18.892  0.00  0.00    +0.000 C 
BRANCH  24  25
ATOM     25  N   UNL     1       5.681   4.240  17.444  0.00  0.00    +0.000 NA
ATOM     26  C   UNL     1       4.898   4.036  16.225  0.00  0.00    +0.000 C 
ATOM     27  C   UNL     1       5.620   4.809  15.126  0.00  0.00    +0.000 C 
ATOM     28  C   UNL     1       7.076   4.689  15.525  0.00  0.00    +0.000 C 
ATOM     29  C   UNL     1       7.026   4.719  17.071  0.00  0.00    +0.000 C 
ATOM     30  C   UNL     1       7.270   6.138  17.557  0.00  0.00    +0.000 C 
ENDBRANCH  24  25
ENDBRANCH  23  24
ENDBRANCH   9  23
TORSDOF 5
ENDMDL
MODEL 7
REMARK VINA RESULT:      -9.0      1.327      1.930
REMARK  Name = 
REMARK  7 active torsions:
REMARK  status: ('A' for Active; 'I' for Inactive)
REMARK    1  A    between atoms: C_1  and  N_2
REMARK    2  A    between atoms: C_3  and  C_5
REMARK    3  A    between atoms: C_8  and  C_9
REMARK    4  A    between atoms: N_17  and  C_18
REMARK    5  A    between atoms: C_18  and  C_19
REMARK    6  A    between atoms: C_19  and  N_20
REMARK    7  A    between atoms: C_24  and  C_25
REMARK                            x       y       z     vdW  Elec       q    Type
REMARK                         _______ _______ _______ _____ _____    ______ ____
ROOT
ATOM      1  C   UNL     1       3.255   5.847  18.966  0.00  0.00    +0.000 A 
ATOM      2  C   UNL     1       2.635   5.628  20.212  0.00  0.00    +0.000 A 
ATOM      3  C   UNL     1       1.596   6.633  20.860  0.00  0.00    +0.000 A 
ATOM      4  C   UNL     1       1.270   7.886  20.274  0.00  0.00    +0.000 A 
ATOM      5  C   UNL     1       1.983   7.872  19.138  0.00  0.00    +0.000 A 
ATOM      6  C   UNL     1       2.704   6.926  18.431  0.00  0.00    +0.000 A 
ATOM      7  C   UNL     1       2.233   9.033  18.346  0.00  0.00    +0.000 C 
ATOM      8  C   UNL     1       1.352  10.109  18.177  0.00  0.00    +0.000 C 
ATOM      9  N   UNL     1       0.553  10.438  19.233  0.00  0.00    +0.000 N 
ATOM     10  C   UNL     1       0.367   9.408  20.346  0.00  0.00    +0.000 C 
ATOM     11  O   UNL     1      -0.432   9.565  21.264  0.00  0.00    +0.000 OA
ENDROOT
BRANCH   1  15
ATOM     12  C   UNL     1       5.736   4.801  15.525  0.00  0.00    +0.000 A 
ATOM     13  C   UNL     1       4.962   3.823  16.190  0.00  0.00    +0.000 A 
ATOM     14  C   UNL     1       4.223   4.093  17.375  0.00  0.00    +0.000 A 
ATOM     15  C   UNL     1       4.274   5.340  17.968  0.00  0.00    +0.000 A 
ATOM     16  C   UNL     1       5.145   6.304  17.283  0.00  0.00    +0.000 A 
ATOM     17  C   UNL     1       5.807   6.067  16.070  0.00  0.00    +0.000 A 
BRANCH  12  20
ATOM     18  C   UNL     1       8.266   5.353  12.798  0.00  0.00    +0.000 C 
ATOM     19  N   UNL     1       7.518   5.419  13.999  0.00  0.00    +0.000 N 
ATOM     20  C   UNL     1       6.492   4.538  14.264  0.00  0.00    +0.000 C 
ATOM     21  O   UNL     1       6.188   3.626  13.494  0.00  0.00    +0.000 OA
ATOM     22  H   UNL     1       7.847   6.037  14.734  0.00  0.00    +0.000 HD
ENDBRANCH  12  20
ENDBRANCH   1  15
BRANCH   9  23
ATOM     23  C   UNL     1       0.058  11.789  18.670  0.00  0.00    +0.000 C 
BRANCH  23  24
ATOM     24  C   UNL     1      -1.700  11.832  18.172  0.00  0.00    +0.000 C 
BRANCH  24  25
ATOM     25  N   UNL     1      -2.989  11.954  19.009  0.00  0.00    +0.000 NA
ATOM     26  C   UNL     1      -3.202  12.807  20.178  0.00  0.00    +0.000 C 
ATOM     27  C   UNL     1      -4.685  13.167  20.173  0.00  0.00    +0.000 C 
ATOM     28  C   UNL     1      -5.333  11.931  19.587  0.00  0.00    +0.000 C 
ATOM     29  C   UNL     1      -4.295  11.438  18.553  0.00  0.00    +0.000 C 
ATOM     30  C   UNL     1      -4.659  11.973  17.178  0.00  0.00    +0.000 C 
ENDBRANCH  24  25
ENDBRANCH  23  24
ENDBRANCH   9  23
TORSDOF 5
ENDMDL
MODEL 8
REMARK VINA RESULT:      -9.0      0.991      1.073
REMARK  Name = 
REMARK  7 active torsions:
REMARK  status: ('A' for Active; 'I' for Inactive)
REMARK    1  A    between atoms: C_1  and  N_2
REMARK    2  A    between atoms: C_3  and  C_5
REMARK    3  A    between atoms: C_8  and  C_9
REMARK    4  A    between atoms: N_17  and  C_18
REMARK    5  A    between atoms: C_18  and  C_19
REMARK    6  A    between atoms: C_19  and  N_20
REMARK    7  A    between atoms: C_24  and  C_25
REMARK                            x       y       z     vdW  Elec       q    Type
REMARK                         _______ _______ _______ _____ _____    ______ ____
ROOT
ATOM      1  C   UNL     1       3.446   5.456  18.954  0.00  0.00    +0.000 A 
ATOM      2  C   UNL     1       2.908   5.200  20.231  0.00  0.00    +0.000 A 
ATOM      3  C   UNL     1       1.872   6.157  20.951  0.00  0.00    +0.000 A 
ATOM      4  C   UNL     1       1.464   7.402  20.401  0.00  0.00    +0.000 A 
ATOM      5  C   UNL     1       2.109   7.428  19.225  0.00  0.00    +0.000 A 
ATOM      6  C   UNL     1       2.824   6.518  18.465  0.00  0.00    +0.000 A 
ATOM      7  C   UNL     1       2.267   8.606  18.435  0.00  0.00    +0.000 C 
ATOM      8  C   UNL     1       1.338   9.649  18.331  0.00  0.00    +0.000 C 
ATOM      9  N   UNL     1       0.590   9.934  19.435  0.00  0.00    +0.000 N 
ATOM     10  C   UNL     1       0.509   8.887  20.545  0.00  0.00    +0.000 C 
ATOM     11  O   UNL     1      -0.241   9.003  21.509  0.00  0.00    +0.000 OA
ENDROOT
BRANCH   1  15
ATOM     12  C   UNL     1       5.875   4.696  15.403  0.00  0.00    +0.000 A 
ATOM     13  C   UNL     1       4.972   3.723  15.891  0.00  0.00    +0.000 A 
ATOM     14  C   UNL     1       4.240   3.883  17.100  0.00  0.00    +0.000 A 
ATOM     15  C   UNL     1       4.423   5.000  17.892  0.00  0.00    +0.000 A 
ATOM     16  C   UNL     1       5.422   5.949  17.383  0.00  0.00    +0.000 A 
ATOM     17  C   UNL     1       6.083   5.837  16.151  0.00  0.00    +0.000 A 
BRANCH  12  20
ATOM     18  C   UNL     1       8.345   5.548  12.698  0.00  0.00    +0.000 C 
ATOM     19  N   UNL     1       7.609   5.498  13.907  0.00  0.00    +0.000 N 
ATOM     20  C   UNL     1       6.628   4.553  14.120  0.00  0.00    +0.000 C 
ATOM     21  O   UNL     1       6.358   3.681  13.294  0.00  0.00    +0.000 OA
ATOM     22  H   UNL     1       7.917   6.080  14.679  0.00  0.00    +0.000 HD
ENDBRANCH  12  20
ENDBRANCH   1  15
BRANCH   9  23
ATOM     23  C   UNL     1       0.011  11.271  18.919  0.00  0.00    +0.000 C 
BRANCH  23  24
ATOM     24  C   UNL     1      -1.813  11.353  18.836  0.00  0.00    +0.000 C 
BRANCH  24  25
ATOM     25  N   UNL     1      -2.769  11.492  17.634  0.00  0.00    +0.000 NA
ATOM     26  C   UNL     1      -2.550  10.999  16.274  0.00  0.00    +0.000 C 
ATOM     27  C   UNL     1      -3.933  10.682  15.713  0.00  0.00    +0.000 C 
ATOM     28  C   UNL     1      -4.815  11.721  16.373  0.00  0.00    +0.000 C 
ATOM     29  C   UNL     1      -4.184  11.888  17.775  0.00  0.00    +0.000 C 
ATOM     30  C   UNL     1      -4.917  11.002  18.767  0.00  0.00    +0.000 C 
ENDBRANCH  24  25
ENDBRANCH  23  24
ENDBRANCH   9  23
TORSDOF 5
ENDMDL
MODEL 9
REMARK VINA RESULT:      -8.8      1.450      1.968
REMARK  Name = 
REMARK  7 active torsions:
REMARK  status: ('A' for Active; 'I' for Inactive)
REMARK    1  A    between atoms: C_1  and  N_2
REMARK    2  A    between atoms: C_3  and  C_5
REMARK    3  A    between atoms: C_8  and  C_9
REMARK    4  A    between atoms: N_17  and  C_18
REMARK    5  A    between atoms: C_18  and  C_19
REMARK    6  A    between atoms: C_19  and  N_20
REMARK    7  A    between atoms: C_24  and  C_25
REMARK                            x       y       z     vdW  Elec       q    Type
REMARK                         _______ _______ _______ _____ _____    ______ ____
ROOT
ATOM      1  C   UNL     1       3.448   5.618  18.925  0.00  0.00    +0.000 A 
ATOM      2  C   UNL     1       2.848   5.221  20.137  0.00  0.00    +0.000 A 
ATOM      3  C   UNL     1       1.759   6.083  20.897  0.00  0.00    +0.000 A 
ATOM      4  C   UNL     1       1.360   7.376  20.461  0.00  0.00    +0.000 A 
ATOM      5  C   UNL     1       2.065   7.534  19.331  0.00  0.00    +0.000 A 
ATOM      6  C   UNL     1       2.834   6.719  18.519  0.00  0.00    +0.000 A 
ATOM      7  C   UNL     1       2.245   8.792  18.681  0.00  0.00    +0.000 C 
ATOM      8  C   UNL     1       1.305   9.829  18.638  0.00  0.00    +0.000 C 
ATOM      9  N   UNL     1       0.495   9.987  19.724  0.00  0.00    +0.000 N 
ATOM     10  C   UNL     1       0.374   8.826  20.710  0.00  0.00    +0.000 C 
ATOM     11  O   UNL     1      -0.428   8.830  21.639  0.00  0.00    +0.000 OA
ENDROOT
BRANCH   1  15
ATOM     12  C   UNL     1       5.842   4.858  15.351  0.00  0.00    +0.000 A 
ATOM     13  C   UNL     1       5.447   3.801  16.203  0.00  0.00    +0.000 A 
ATOM     14  C   UNL     1       4.759   4.010  17.430  0.00  0.00    +0.000 A 
ATOM     15  C   UNL     1       4.487   5.289  17.875  0.00  0.00    +0.000 A 
ATOM     16  C   UNL     1       4.978   6.357  16.995  0.00  0.00    +0.000 A 
ATOM     17  C   UNL     1       5.580   6.154  15.745  0.00  0.00    +0.000 A 
BRANCH  12  20
ATOM     18  C   UNL     1       8.294   5.487  12.570  0.00  0.00    +0.000 C 
ATOM     19  N   UNL     1       7.594   5.502  13.801  0.00  0.00    +0.000 N 
ATOM     20  C   UNL     1       6.539   4.650  14.046  0.00  0.00    +0.000 C 
ATOM     21  O   UNL     1       6.165   3.808  13.229  0.00  0.00    +0.000 OA
ATOM     22  H   UNL     1       7.978   6.052  14.562  0.00  0.00    +0.000 HD
ENDBRANCH  12  20
ENDBRANCH   1  15
BRANCH   9  23
ATOM     23  C   UNL     1      -0.078  11.365  19.323  0.00  0.00    +0.000 C 
BRANCH  23  24
ATOM     24  C   UNL     1      -1.566  11.891  20.245  0.00  0.00    +0.000 C 
BRANCH  24  25
ATOM     25  N   UNL     1      -2.967  12.312  19.757  0.00  0.00    +0.000 NA
ATOM     26  C   UNL     1      -3.737  11.709  18.669  0.00  0.00    +0.000 C 
ATOM     27  C   UNL     1      -5.205  11.891  19.042  0.00  0.00    +0.000 C 
ATOM     28  C   UNL     1      -5.208  13.210  19.785  0.00  0.00    +0.000 C 
ATOM     29  C   UNL     1      -3.853  13.202  20.532  0.00  0.00    +0.000 C 
ATOM     30  C   UNL     1      -4.061  12.692  21.948  0.00  0.00    +0.000 C 
ENDBRANCH  24  25
ENDBRANCH  23  24
ENDBRANCH   9  23
TORSDOF 5
ENDMDL
