MODEL 1
REMARK VINA RESULT:      -8.5      0.000      0.000
REMARK  Name = 
REMARK  4 active torsions:
REMARK  status: ('A' for Active; 'I' for Inactive)
REMARK    1  A    between atoms: C_6  and  C_7
REMARK    2  A    between atoms: C_7  and  N_8
REMARK    3  A    between atoms: N_15  and  C_16
REMARK    4  A    between atoms: C_19  and  C_20
REMARK                            x       y       z     vdW  Elec       q    Type
REMARK                         _______ _______ _______ _____ _____    ______ ____
ROOT
ATOM      1  N   UNL     1       2.813   6.604  18.846  0.00  0.00    +0.000 N 
ATOM      2  N   UNL     1       2.601   6.065  20.071  0.00  0.00    +0.000 NA
ATOM      3  N   UNL     1       1.826   6.896  20.761  0.00  0.00    +0.000 NA
ATOM      4  C   UNL     1       1.591   7.982  19.976  0.00  0.00    +0.000 A 
ATOM      5  C   UNL     1       2.244   7.839  18.774  0.00  0.00    +0.000 A 
ATOM      6  C   UNL     1       2.232   8.846  17.687  0.00  0.00    +0.000 C 
ATOM      7  C   UNL     1       1.791  10.223  18.266  0.00  0.00    +0.000 C 
ATOM      8  N   UNL     1       0.632  10.141  19.191  0.00  0.00    +0.000 N 
ATOM      9  C   UNL     1       0.770   9.177  20.325  0.00  0.00    +0.000 C 
ENDROOT
BRANCH   8  10
ATOM     10  C   UNL     1      -0.649  10.489  18.788  0.00  0.00    +0.000 A 
ATOM     11  C   UNL     1      -1.253   9.964  17.639  0.00  0.00    +0.000 A 
ATOM     12  C   UNL     1      -2.544  10.341  17.248  0.00  0.00    +0.000 A 
ATOM     13  C   UNL     1      -3.273  11.275  17.990  0.00  0.00    +0.000 A 
ATOM     14  C   UNL     1      -2.680  11.821  19.134  0.00  0.00    +0.000 A 
ATOM     15  C   UNL     1      -1.393  11.427  19.523  0.00  0.00    +0.000 A 
BRANCH  13  16
ATOM     16  C   UNL     1      -4.661  11.695  17.577  0.00  0.00    +0.000 C 
ATOM     17  F   UNL     1      -5.583  10.693  17.663  0.00  0.00    +0.000 F 
ATOM     18  F   UNL     1      -5.150  12.712  18.340  0.00  0.00    +0.000 F 
ATOM     19  F   UNL     1      -4.715  12.136  16.290  0.00  0.00    +0.000 F 
ENDBRANCH  13  16
ENDBRANCH   8  10
BRANCH   1  20
ATOM     20  C   UNL     1       3.610   5.890  17.863  0.00  0.00    +0.000 C 
BRANCH  20  26
ATOM     21  F   UNL     1       7.908   8.039  16.955  0.00  0.00    +0.000 F 
ATOM     22  C   UNL     1       7.207   7.130  17.644  0.00  0.00    +0.000 A 
ATOM     23  C   UNL     1       7.849   6.355  18.604  0.00  0.00    +0.000 A 
ATOM     24  C   UNL     1       7.115   5.420  19.328  0.00  0.00    +0.000 A 
ATOM     25  C   UNL     1       5.747   5.266  19.085  0.00  0.00    +0.000 A 
ATOM     26  C   UNL     1       5.095   6.036  18.106  0.00  0.00    +0.000 A 
ATOM     27  C   UNL     1       5.845   6.981  17.390  0.00  0.00    +0.000 A 
ENDBRANCH  20  26
ENDBRANCH   1  20
TORSDOF 4
ENDMDL
MODEL 2
REMARK VINA RESULT:      -8.5      0.096      1.166
REMARK  Name = 
REMARK  4 active torsions:
REMARK  status: ('A' for Active; 'I' for Inactive)
REMARK    1  A    between atoms: C_6  and  C_7
REMARK    2  A    between atoms: C_7  and  N_8
REMARK    3  A    between atoms: N_15  and  C_16
REMARK    4  A    between atoms: C_19  and  C_20
REMARK                            x       y       z     vdW  Elec       q    Type
REMARK                         _______ _______ _______ _____ _____    ______ ____
ROOT
ATOM      1  N   UNL     1       2.765   6.602  18.837  0.00  0.00    +0.000 N 
ATOM      2  N   UNL     1       2.554   6.056  20.059  0.00  0.00    +0.000 NA
ATOM      3  N   UNL     1       1.802   6.897  20.764  0.00  0.00    +0.000 NA
ATOM      4  C   UNL     1       1.583   7.994  19.992  0.00  0.00    +0.000 A 
ATOM      5  C   UNL     1       2.222   7.850  18.782  0.00  0.00    +0.000 A 
ATOM      6  C   UNL     1       2.221   8.868  17.705  0.00  0.00    +0.000 C 
ATOM      7  C   UNL     1       1.815  10.247  18.301  0.00  0.00    +0.000 C 
ATOM      8  N   UNL     1       0.663  10.181  19.236  0.00  0.00    +0.000 N 
ATOM      9  C   UNL     1       0.791   9.204  20.360  0.00  0.00    +0.000 C 
ENDROOT
BRANCH   8  10
ATOM     10  C   UNL     1      -0.614  10.560  18.849  0.00  0.00    +0.000 A 
ATOM     11  C   UNL     1      -1.338  11.566  19.499  0.00  0.00    +0.000 A 
ATOM     12  C   UNL     1      -2.632  11.921  19.096  0.00  0.00    +0.000 A 
ATOM     13  C   UNL     1      -3.255  11.264  18.030  0.00  0.00    +0.000 A 
ATOM     14  C   UNL     1      -2.551  10.246  17.377  0.00  0.00    +0.000 A 
ATOM     15  C   UNL     1      -1.253   9.908  17.780  0.00  0.00    +0.000 A 
BRANCH  13  16
ATOM     16  C   UNL     1      -4.650  11.631  17.589  0.00  0.00    +0.000 C 
ATOM     17  F   UNL     1      -4.732  11.979  16.273  0.00  0.00    +0.000 F 
ATOM     18  F   UNL     1      -5.538  10.613  17.758  0.00  0.00    +0.000 F 
ATOM     19  F   UNL     1      -5.158  12.687  18.283  0.00  0.00    +0.000 F 
ENDBRANCH  13  16
ENDBRANCH   8  10
BRANCH   1  20
ATOM     20  C   UNL     1       3.538   5.881  17.839  0.00  0.00    +0.000 C 
BRANCH  20  26
ATOM     21  F   UNL     1       7.859   7.974  16.913  0.00  0.00    +0.000 F 
ATOM     22  C   UNL     1       7.152   7.065  17.596  0.00  0.00    +0.000 A 
ATOM     23  C   UNL     1       7.793   6.265  18.535  0.00  0.00    +0.000 A 
ATOM     24  C   UNL     1       7.052   5.330  19.253  0.00  0.00    +0.000 A 
ATOM     25  C   UNL     1       5.679   5.202  19.024  0.00  0.00    +0.000 A 
ATOM     26  C   UNL     1       5.028   5.998  18.066  0.00  0.00    +0.000 A 
ATOM     27  C   UNL     1       5.785   6.943  17.357  0.00  0.00    +0.000 A 
ENDBRANCH  20  26
ENDBRANCH   1  20
TORSDOF 4
ENDMDL
MODEL 3
REMARK VINA RESULT:      -8.4      0.831      1.420
REMARK  Name = 
REMARK  4 active torsions:
REMARK  status: ('A' for Active; 'I' for Inactive)
REMARK    1  A    between atoms: C_6  and  C_7
REMARK    2  A    between atoms: C_7  and  N_8
REMARK    3  A    between atoms: N_15  and  C_16
REMARK    4  A    between atoms: C_19  and  C_20
REMARK                            x       y       z     vdW  Elec       q    Type
REMARK                         _______ _______ _______ _____ _____    ______ ____
ROOT
ATOM      1  N   UNL     1       2.732   6.446  19.012  0.00  0.00    +0.000 N 
ATOM      2  N   UNL     1       2.531   5.999  20.276  0.00  0.00    +0.000 NA
ATOM      3  N   UNL     1       1.792   6.898  20.920  0.00  0.00    +0.000 NA
ATOM      4  C   UNL     1       1.570   7.933  20.066  0.00  0.00    +0.000 A 
ATOM      5  C   UNL     1       2.195   7.689  18.864  0.00  0.00    +0.000 A 
ATOM      6  C   UNL     1       2.188   8.619  17.711  0.00  0.00    +0.000 C 
ATOM      7  C   UNL     1       1.796  10.044  18.201  0.00  0.00    +0.000 C 
ATOM      8  N   UNL     1       0.655  10.059  19.150  0.00  0.00    +0.000 N 
ATOM      9  C   UNL     1       0.789   9.172  20.346  0.00  0.00    +0.000 C 
ENDROOT
BRANCH   8  10
ATOM     10  C   UNL     1      -0.625  10.414  18.747  0.00  0.00    +0.000 A 
ATOM     11  C   UNL     1      -1.261   9.838  17.641  0.00  0.00    +0.000 A 
ATOM     12  C   UNL     1      -2.549  10.223  17.248  0.00  0.00    +0.000 A 
ATOM     13  C   UNL     1      -3.243  11.217  17.946  0.00  0.00    +0.000 A 
ATOM     14  C   UNL     1      -2.617  11.813  19.046  0.00  0.00    +0.000 A 
ATOM     15  C   UNL     1      -1.334  11.412  19.438  0.00  0.00    +0.000 A 
BRANCH  13  16
ATOM     16  C   UNL     1      -4.628  11.645  17.531  0.00  0.00    +0.000 C 
ATOM     17  F   UNL     1      -5.174  12.591  18.348  0.00  0.00    +0.000 F 
ATOM     18  F   UNL     1      -4.657  12.179  16.278  0.00  0.00    +0.000 F 
ATOM     19  F   UNL     1      -5.514  10.612  17.517  0.00  0.00    +0.000 F 
ENDBRANCH  13  16
ENDBRANCH   8  10
BRANCH   1  20
ATOM     20  C   UNL     1       3.489   5.644  18.066  0.00  0.00    +0.000 C 
BRANCH  20  26
ATOM     21  F   UNL     1       7.990   5.261  19.941  0.00  0.00    +0.000 F 
ATOM     22  C   UNL     1       7.182   5.771  19.004  0.00  0.00    +0.000 A 
ATOM     23  C   UNL     1       7.714   6.586  18.011  0.00  0.00    +0.000 A 
ATOM     24  C   UNL     1       6.873   7.104  17.031  0.00  0.00    +0.000 A 
ATOM     25  C   UNL     1       5.508   6.805  17.052  0.00  0.00    +0.000 A 
ATOM     26  C   UNL     1       4.961   5.992  18.060  0.00  0.00    +0.000 A 
ATOM     27  C   UNL     1       5.822   5.469  19.037  0.00  0.00    +0.000 A 
ENDBRANCH  20  26
ENDBRANCH   1  20
TORSDOF 4
ENDMDL
MODEL 4
REMARK VINA RESULT:      -8.4      0.844      1.699
REMARK  Name = 
REMARK  4 active torsions:
REMARK  status: ('A' for Active; 'I' for Inactive)
REMARK    1  A    between atoms: C_6  and  C_7
REMARK    2  A    between atoms: C_7  and  N_8
REMARK    3  A    between atoms: N_15  and  C_16
REMARK    4  A    between atoms: C_19  and  C_20
REMARK                            x       y       z     vdW  Elec       q    Type
REMARK                         _______ _______ _______ _____ _____    ______ ____
ROOT
ATOM      1  N   UNL     1       2.695   6.465  18.983  0.00  0.00    +0.000 N 
ATOM      2  N   UNL     1       2.493   5.982  20.233  0.00  0.00    +0.000 NA
ATOM      3  N   UNL     1       1.782   6.876  20.913  0.00  0.00    +0.000 NA
ATOM      4  C   UNL     1       1.578   7.943  20.094  0.00  0.00    +0.000 A 
ATOM      5  C   UNL     1       2.187   7.724  18.880  0.00  0.00    +0.000 A 
ATOM      6  C   UNL     1       2.193   8.691  17.757  0.00  0.00    +0.000 C 
ATOM      7  C   UNL     1       1.839  10.108  18.296  0.00  0.00    +0.000 C 
ATOM      8  N   UNL     1       0.706  10.120  19.256  0.00  0.00    +0.000 N 
ATOM      9  C   UNL     1       0.829   9.191  20.421  0.00  0.00    +0.000 C 
ENDROOT
BRANCH   8  10
ATOM     10  C   UNL     1      -0.568  10.518  18.876  0.00  0.00    +0.000 A 
ATOM     11  C   UNL     1      -1.278  11.525  19.541  0.00  0.00    +0.000 A 
ATOM     12  C   UNL     1      -2.569  11.900  19.146  0.00  0.00    +0.000 A 
ATOM     13  C   UNL     1      -3.202  11.263  18.073  0.00  0.00    +0.000 A 
ATOM     14  C   UNL     1      -2.512  10.245  17.406  0.00  0.00    +0.000 A 
ATOM     15  C   UNL     1      -1.217   9.887  17.801  0.00  0.00    +0.000 A 
BRANCH  13  16
ATOM     16  C   UNL     1      -4.593  11.652  17.640  0.00  0.00    +0.000 C 
ATOM     17  F   UNL     1      -4.661  12.088  16.350  0.00  0.00    +0.000 F 
ATOM     18  F   UNL     1      -5.477  10.620  17.729  0.00  0.00    +0.000 F 
ATOM     19  F   UNL     1      -5.116  12.657  18.397  0.00  0.00    +0.000 F 
ENDBRANCH  13  16
ENDBRANCH   8  10
BRANCH   1  20
ATOM     20  C   UNL     1       3.425   5.675  18.005  0.00  0.00    +0.000 C 
BRANCH  20  26
ATOM     21  F   UNL     1       7.829   5.437  20.119  0.00  0.00    +0.000 F 
ATOM     22  C   UNL     1       7.079   5.825  19.080  0.00  0.00    +0.000 A 
ATOM     23  C   UNL     1       7.681   6.463  18.001  0.00  0.00    +0.000 A 
ATOM     24  C   UNL     1       6.901   6.853  16.917  0.00  0.00    +0.000 A 
ATOM     25  C   UNL     1       5.526   6.604  16.921  0.00  0.00    +0.000 A 
ATOM     26  C   UNL     1       4.907   5.972  18.014  0.00  0.00    +0.000 A 
ATOM     27  C   UNL     1       5.708   5.575  19.096  0.00  0.00    +0.000 A 
ENDBRANCH  20  26
ENDBRANCH   1  20
TORSDOF 4
ENDMDL
MODEL 5
REMARK VINA RESULT:      -8.3      2.520      3.343
REMARK  Name = 
REMARK  4 active torsions:
REMARK  status: ('A' for Active; 'I' for Inactive)
REMARK    1  A    between atoms: C_6  and  C_7
REMARK    2  A    between atoms: C_7  and  N_8
REMARK    3  A    between atoms: N_15  and  C_16
REMARK    4  A    between atoms: C_19  and  C_20
REMARK                            x       y       z     vdW  Elec       q    Type
REMARK                         _______ _______ _______ _____ _____    ______ ____
ROOT
ATOM      1  N   UNL     1       2.464   6.887  19.044  0.00  0.00    +0.000 N 
ATOM      2  N   UNL     1       2.350   6.457  20.325  0.00  0.00    +0.000 NA
ATOM      3  N   UNL     1       1.655   7.364  21.006  0.00  0.00    +0.000 NA
ATOM      4  C   UNL     1       1.374   8.386  20.154  0.00  0.00    +0.000 A 
ATOM      5  C   UNL     1       1.916   8.127  18.917  0.00  0.00    +0.000 A 
ATOM      6  C   UNL     1       1.829   9.041  17.754  0.00  0.00    +0.000 C 
ATOM      7  C   UNL     1       1.469  10.472  18.249  0.00  0.00    +0.000 C 
ATOM      8  N   UNL     1       0.394  10.500  19.273  0.00  0.00    +0.000 N 
ATOM      9  C   UNL     1       0.611   9.629  20.470  0.00  0.00    +0.000 C 
ENDROOT
BRANCH   8  10
ATOM     10  C   UNL     1      -0.910  10.848  18.954  0.00  0.00    +0.000 A 
ATOM     11  C   UNL     1      -1.627  11.828  19.651  0.00  0.00    +0.000 A 
ATOM     12  C   UNL     1      -2.948  12.152  19.317  0.00  0.00    +0.000 A 
ATOM     13  C   UNL     1      -3.606  11.490  18.275  0.00  0.00    +0.000 A 
ATOM     14  C   UNL     1      -2.909  10.499  17.576  0.00  0.00    +0.000 A 
ATOM     15  C   UNL     1      -1.584  10.191  17.911  0.00  0.00    +0.000 A 
BRANCH  13  16
ATOM     16  C   UNL     1      -5.029  11.825  17.907  0.00  0.00    +0.000 C 
ATOM     17  F   UNL     1      -5.149  12.444  16.698  0.00  0.00    +0.000 F 
ATOM     18  F   UNL     1      -5.826  10.722  17.839  0.00  0.00    +0.000 F 
ATOM     19  F   UNL     1      -5.621  12.657  18.808  0.00  0.00    +0.000 F 
ENDBRANCH  13  16
ENDBRANCH   8  10
BRANCH   1  20
ATOM     20  C   UNL     1       3.157   6.072  18.061  0.00  0.00    +0.000 C 
BRANCH  20  26
ATOM     21  F   UNL     1       0.203   2.193  18.438  0.00  0.00    +0.000 F 
ATOM     22  C   UNL     1       1.447   2.688  18.444  0.00  0.00    +0.000 A 
ATOM     23  C   UNL     1       2.525   1.825  18.611  0.00  0.00    +0.000 A 
ATOM     24  C   UNL     1       3.818   2.341  18.604  0.00  0.00    +0.000 A 
ATOM     25  C   UNL     1       4.022   3.713  18.432  0.00  0.00    +0.000 A 
ATOM     26  C   UNL     1       2.936   4.592  18.276  0.00  0.00    +0.000 A 
ATOM     27  C   UNL     1       1.638   4.058  18.276  0.00  0.00    +0.000 A 
ENDBRANCH  20  26
ENDBRANCH   1  20
TORSDOF 4
ENDMDL
MODEL 6
REMARK VINA RESULT:      -8.3      2.128      2.975
REMARK  Name = 
REMARK  4 active torsions:
REMARK  status: ('A' for Active; 'I' for Inactive)
REMARK    1  A    between atoms: C_6  and  C_7
REMARK    2  A    between atoms: C_7  and  N_8
REMARK    3  A    between atoms: N_15  and  C_16
REMARK    4  A    between atoms: C_19  and  C_20
REMARK                            x       y       z     vdW  Elec       q    Type
REMARK                         _______ _______ _______ _____ _____    ______ ____
ROOT
ATOM      1  N   UNL     1       2.605   6.842  19.090  0.00  0.00    +0.000 N 
ATOM      2  N   UNL     1       2.412   6.380  20.349  0.00  0.00    +0.000 NA
ATOM      3  N   UNL     1       1.652   7.256  21.000  0.00  0.00    +0.000 NA
ATOM      4  C   UNL     1       1.409   8.293  20.154  0.00  0.00    +0.000 A 
ATOM      5  C   UNL     1       2.040   8.074  18.952  0.00  0.00    +0.000 A 
ATOM      6  C   UNL     1       2.015   9.013  17.806  0.00  0.00    +0.000 C 
ATOM      7  C   UNL     1       1.590  10.424  18.307  0.00  0.00    +0.000 C 
ATOM      8  N   UNL     1       0.447  10.406  19.254  0.00  0.00    +0.000 N 
ATOM      9  C   UNL     1       0.600   9.512  20.443  0.00  0.00    +0.000 C 
ENDROOT
BRANCH   8  10
ATOM     10  C   UNL     1      -0.839  10.736  18.852  0.00  0.00    +0.000 A 
ATOM     11  C   UNL     1      -1.626  11.680  19.523  0.00  0.00    +0.000 A 
ATOM     12  C   UNL     1      -2.928  11.986  19.104  0.00  0.00    +0.000 A 
ATOM     13  C   UNL     1      -3.494  11.340  18.001  0.00  0.00    +0.000 A 
ATOM     14  C   UNL     1      -2.727  10.384  17.327  0.00  0.00    +0.000 A 
ATOM     15  C   UNL     1      -1.423  10.095  17.746  0.00  0.00    +0.000 A 
BRANCH  13  16
ATOM     16  C   UNL     1      -4.896  11.655  17.542  0.00  0.00    +0.000 C 
ATOM     17  F   UNL     1      -5.798  10.673  17.829  0.00  0.00    +0.000 F 
ATOM     18  F   UNL     1      -5.391  12.789  18.112  0.00  0.00    +0.000 F 
ATOM     19  F   UNL     1      -4.976  11.849  16.197  0.00  0.00    +0.000 F 
ENDBRANCH  13  16
ENDBRANCH   8  10
BRANCH   1  20
ATOM     20  C   UNL     1       3.382   6.065  18.139  0.00  0.00    +0.000 C 
BRANCH  20  26
ATOM     21  F   UNL     1       4.883   1.751  19.885  0.00  0.00    +0.000 F 
ATOM     22  C   UNL     1       3.963   2.455  19.214  0.00  0.00    +0.000 A 
ATOM     23  C   UNL     1       2.830   1.812  18.728  0.00  0.00    +0.000 A 
ATOM     24  C   UNL     1       1.869   2.550  18.042  0.00  0.00    +0.000 A 
ATOM     25  C   UNL     1       2.050   3.922  17.847  0.00  0.00    +0.000 A 
ATOM     26  C   UNL     1       3.200   4.575  18.324  0.00  0.00    +0.000 A 
ATOM     27  C   UNL     1       4.156   3.821  19.022  0.00  0.00    +0.000 A 
ENDBRANCH  20  26
ENDBRANCH   1  20
TORSDOF 4
ENDMDL
MODEL 7
REMARK VINA RESULT:      -8.3      2.080      2.850
REMARK  Name = 
REMARK  4 active torsions:
REMARK  status: ('A' for Active; 'I' for Inactive)
REMARK    1  A    between atoms: C_6  and  C_7
REMARK    2  A    between atoms: C_7  and  N_8
REMARK    3  A    between atoms: N_15  and  C_16
REMARK    4  A    between atoms: C_19  and  C_20
REMARK                            x       y       z     vdW  Elec       q    Type
REMARK                         _______ _______ _______ _____ _____    ______ ____
ROOT
ATOM      1  N   UNL     1       2.690   6.819  19.029  0.00  0.00    +0.000 N 
ATOM      2  N   UNL     1       2.482   6.326  20.275  0.00  0.00    +0.000 NA
ATOM      3  N   UNL     1       1.683   7.168  20.925  0.00  0.00    +0.000 NA
ATOM      4  C   UNL     1       1.431   8.215  20.095  0.00  0.00    +0.000 A 
ATOM      5  C   UNL     1       2.095   8.038  18.904  0.00  0.00    +0.000 A 
ATOM      6  C   UNL     1       2.070   9.000  17.777  0.00  0.00    +0.000 C 
ATOM      7  C   UNL     1       1.595  10.389  18.297  0.00  0.00    +0.000 C 
ATOM      8  N   UNL     1       0.432  10.320  19.217  0.00  0.00    +0.000 N 
ATOM      9  C   UNL     1       0.582   9.406  20.390  0.00  0.00    +0.000 C 
ENDROOT
BRANCH   8  10
ATOM     10  C   UNL     1      -0.854  10.623  18.792  0.00  0.00    +0.000 A 
ATOM     11  C   UNL     1      -1.426  10.064  17.643  0.00  0.00    +0.000 A 
ATOM     12  C   UNL     1      -2.722  10.397  17.229  0.00  0.00    +0.000 A 
ATOM     13  C   UNL     1      -3.489  11.319  17.949  0.00  0.00    +0.000 A 
ATOM     14  C   UNL     1      -2.928  11.897  19.092  0.00  0.00    +0.000 A 
ATOM     15  C   UNL     1      -1.635  11.548  19.505  0.00  0.00    +0.000 A 
BRANCH  13  16
ATOM     16  C   UNL     1      -4.883  11.690  17.512  0.00  0.00    +0.000 C 
ATOM     17  F   UNL     1      -5.003  11.872  16.165  0.00  0.00    +0.000 F 
ATOM     18  F   UNL     1      -5.805  10.743  17.840  0.00  0.00    +0.000 F 
ATOM     19  F   UNL     1      -5.320  12.848  18.081  0.00  0.00    +0.000 F 
ENDBRANCH  13  16
ENDBRANCH   8  10
BRANCH   1  20
ATOM     20  C   UNL     1       3.509   6.084  18.081  0.00  0.00    +0.000 C 
BRANCH  20  26
ATOM     21  F   UNL     1       4.930   1.823  20.016  0.00  0.00    +0.000 F 
ATOM     22  C   UNL     1       4.087   2.493  19.222  0.00  0.00    +0.000 A 
ATOM     23  C   UNL     1       3.065   1.806  18.576  0.00  0.00    +0.000 A 
ATOM     24  C   UNL     1       2.181   2.508  17.760  0.00  0.00    +0.000 A 
ATOM     25  C   UNL     1       2.328   3.888  17.596  0.00  0.00    +0.000 A 
ATOM     26  C   UNL     1       3.368   4.586  18.235  0.00  0.00    +0.000 A 
ATOM     27  C   UNL     1       4.245   3.868  19.062  0.00  0.00    +0.000 A 
ENDBRANCH  20  26
ENDBRANCH   1  20
TORSDOF 4
ENDMDL
MODEL 8
REMARK VINA RESULT:      -8.1      1.141      1.660
REMARK  Name = 
REMARK  4 active torsions:
REMARK  status: ('A' for Active; 'I' for Inactive)
REMARK    1  A    between atoms: C_6  and  C_7
REMARK    2  A    between atoms: C_7  and  N_8
REMARK    3  A    between atoms: N_15  and  C_16
REMARK    4  A    between atoms: C_19  and  C_20
REMARK                            x       y       z     vdW  Elec       q    Type
REMARK                         _______ _______ _______ _____ _____    ______ ____
ROOT
ATOM      1  N   UNL     1       2.676   5.909  18.893  0.00  0.00    +0.000 N 
ATOM      2  N   UNL     1       2.561   5.525  20.188  0.00  0.00    +0.000 NA
ATOM      3  N   UNL     1       1.987   6.517  20.864  0.00  0.00    +0.000 NA
ATOM      4  C   UNL     1       1.785   7.542  19.993  0.00  0.00    +0.000 A 
ATOM      5  C   UNL     1       2.255   7.196  18.747  0.00  0.00    +0.000 A 
ATOM      6  C   UNL     1       2.225   8.084  17.562  0.00  0.00    +0.000 C 
ATOM      7  C   UNL     1       2.032   9.557  18.027  0.00  0.00    +0.000 C 
ATOM      8  N   UNL     1       1.002   9.723  19.083  0.00  0.00    +0.000 N 
ATOM      9  C   UNL     1       1.167   8.865  20.296  0.00  0.00    +0.000 C 
ENDROOT
BRANCH   8  10
ATOM     10  C   UNL     1      -0.270  10.198  18.794  0.00  0.00    +0.000 A 
ATOM     11  C   UNL     1      -0.933  11.132  19.599  0.00  0.00    +0.000 A 
ATOM     12  C   UNL     1      -2.222  11.587  19.292  0.00  0.00    +0.000 A 
ATOM     13  C   UNL     1      -2.901  11.105  18.169  0.00  0.00    +0.000 A 
ATOM     14  C   UNL     1      -2.259  10.160  17.361  0.00  0.00    +0.000 A 
ATOM     15  C   UNL     1      -0.965   9.722  17.670  0.00  0.00    +0.000 A 
BRANCH  13  16
ATOM     16  C   UNL     1      -4.291  11.581  17.830  0.00  0.00    +0.000 C 
ATOM     17  F   UNL     1      -4.407  12.067  16.560  0.00  0.00    +0.000 F 
ATOM     18  F   UNL     1      -5.223  10.593  17.933  0.00  0.00    +0.000 F 
ATOM     19  F   UNL     1      -4.718  12.582  18.648  0.00  0.00    +0.000 F 
ENDBRANCH  13  16
ENDBRANCH   8  10
BRANCH   1  20
ATOM     20  C   UNL     1       3.247   5.001  17.912  0.00  0.00    +0.000 C 
BRANCH  20  26
ATOM     21  F   UNL     1       7.548   4.418  15.659  0.00  0.00    +0.000 F 
ATOM     22  C   UNL     1       6.873   4.736  16.771  0.00  0.00    +0.000 A 
ATOM     23  C   UNL     1       7.574   5.114  17.911  0.00  0.00    +0.000 A 
ATOM     24  C   UNL     1       6.870   5.456  19.062  0.00  0.00    +0.000 A 
ATOM     25  C   UNL     1       5.473   5.414  19.064  0.00  0.00    +0.000 A 
ATOM     26  C   UNL     1       4.758   5.018  17.919  0.00  0.00    +0.000 A 
ATOM     27  C   UNL     1       5.481   4.686  16.763  0.00  0.00    +0.000 A 
ENDBRANCH  20  26
ENDBRANCH   1  20
TORSDOF 4
ENDMDL
MODEL 9
REMARK VINA RESULT:      -7.9      1.136      1.173
REMARK  Name = 
REMARK  4 active torsions:
REMARK  status: ('A' for Active; 'I' for Inactive)
REMARK    1  A    between atoms: C_6  and  C_7
REMARK    2  A    between atoms: C_7  and  N_8
REMARK    3  A    between atoms: N_15  and  C_16
REMARK    4  A    between atoms: C_19  and  C_20
REMARK                            x       y       z     vdW  Elec       q    Type
REMARK                         _______ _______ _______ _____ _____    ______ ____
ROOT
ATOM      1  N   UNL     1       2.666   5.867  18.922  0.00  0.00    +0.000 N 
ATOM      2  N   UNL     1       2.567   5.513  20.227  0.00  0.00    +0.000 NA
ATOM      3  N   UNL     1       1.986   6.513  20.885  0.00  0.00    +0.000 NA
ATOM      4  C   UNL     1       1.764   7.514  19.992  0.00  0.00    +0.000 A 
ATOM      5  C   UNL     1       2.227   7.145  18.751  0.00  0.00    +0.000 A 
ATOM      6  C   UNL     1       2.176   8.006  17.545  0.00  0.00    +0.000 C 
ATOM      7  C   UNL     1       1.968   9.487  17.978  0.00  0.00    +0.000 C 
ATOM      8  N   UNL     1       0.944   9.664  19.039  0.00  0.00    +0.000 N 
ATOM      9  C   UNL     1       1.132   8.836  20.271  0.00  0.00    +0.000 C 
ENDROOT
BRANCH   8  10
ATOM     10  C   UNL     1      -0.335  10.116  18.751  0.00  0.00    +0.000 A 
ATOM     11  C   UNL     1      -1.041   9.722  17.608  0.00  0.00    +0.000 A 
ATOM     12  C   UNL     1      -2.328  10.203  17.334  0.00  0.00    +0.000 A 
ATOM     13  C   UNL     1      -2.949  11.113  18.194  0.00  0.00    +0.000 A 
ATOM     14  C   UNL     1      -2.254  11.529  19.334  0.00  0.00    +0.000 A 
ATOM     15  C   UNL     1      -0.972  11.032  19.605  0.00  0.00    +0.000 A 
BRANCH  13  16
ATOM     16  C   UNL     1      -4.332  11.644  17.908  0.00  0.00    +0.000 C 
ATOM     17  F   UNL     1      -5.317  10.714  18.065  0.00  0.00    +0.000 F 
ATOM     18  F   UNL     1      -4.672  12.683  18.720  0.00  0.00    +0.000 F 
ATOM     19  F   UNL     1      -4.463  12.108  16.635  0.00  0.00    +0.000 F 
ENDBRANCH  13  16
ENDBRANCH   8  10
BRANCH   1  20
ATOM     20  C   UNL     1       3.239   4.945  17.958  0.00  0.00    +0.000 C 
BRANCH  20  26
ATOM     21  F   UNL     1       7.507   4.514  15.610  0.00  0.00    +0.000 F 
ATOM     22  C   UNL     1       6.848   4.788  16.742  0.00  0.00    +0.000 A 
ATOM     23  C   UNL     1       7.562   5.154  17.878  0.00  0.00    +0.000 A 
ATOM     24  C   UNL     1       6.873   5.452  19.050  0.00  0.00    +0.000 A 
ATOM     25  C   UNL     1       5.478   5.379  19.077  0.00  0.00    +0.000 A 
ATOM     26  C   UNL     1       4.750   4.996  17.937  0.00  0.00    +0.000 A 
ATOM     27  C   UNL     1       5.457   4.708  16.759  0.00  0.00    +0.000 A 
ENDBRANCH  20  26
ENDBRANCH   1  20
TORSDOF 4
ENDMDL
