MODEL 1
REMARK VINA RESULT:      -7.0      0.000      0.000
REMARK  Name = 
REMARK  9 active torsions:
REMARK  status: ('A' for Active; 'I' for Inactive)
REMARK    1  A    between atoms: C_1  and  C_2
REMARK    2  A    between atoms: C_2  and  N_3
REMARK    3  A    between atoms: N_3  and  C_4
REMARK    4  A    between atoms: N_3  and  C_6
REMARK    5  A    between atoms: C_4  and  C_5
REMARK    6  A    between atoms: C_6  and  C_7
REMARK    7  A    between atoms: C_7  and  O_8
REMARK    8  A    between atoms: O_8  and  C_9
REMARK    9  A    between atoms: C_14  and  C_15
REMARK                            x       y       z     vdW  Elec       q    Type
REMARK                         _______ _______ _______ _____ _____    ______ ____
ROOT
ATOM      1  C   UNL     1       5.123   4.955  18.572  0.00  0.00    +0.000 A 
ATOM      2  C   UNL     1       6.337   4.443  18.077  0.00  0.00    +0.000 A 
ATOM      3  C   UNL     1       6.922   4.962  16.920  0.00  0.00    +0.000 A 
ATOM      4  C   UNL     1       6.292   5.990  16.229  0.00  0.00    +0.000 A 
ATOM      5  C   UNL     1       5.103   6.523  16.723  0.00  0.00    +0.000 A 
ATOM      6  C   UNL     1       4.530   6.057  17.920  0.00  0.00    +0.000 A 
ENDROOT
BRANCH   6   7
ATOM      7  C   UNL     1       3.395   6.826  18.435  0.00  0.00    +0.000 A 
ATOM      8  N   UNL     1       2.805   7.844  17.832  0.00  0.00    +0.000 NA
ATOM      9  C   UNL     1       1.948   8.384  18.755  0.00  0.00    +0.000 A 
ATOM     10  C   UNL     1       1.161   9.538  18.671  0.00  0.00    +0.000 A 
ATOM     11  C   UNL     1       0.438   9.916  19.805  0.00  0.00    +0.000 A 
ATOM     12 CL   UNL     1      -0.445  11.397  19.783  0.00  0.00    +0.000 Cl
ATOM     13  C   UNL     1       0.442   9.140  20.970  0.00  0.00    +0.000 A 
ATOM     14  C   UNL     1       1.192   7.962  21.051  0.00  0.00    +0.000 A 
ATOM     15  C   UNL     1       1.956   7.642  19.929  0.00  0.00    +0.000 A 
ATOM     16  N   UNL     1       2.873   6.655  19.694  0.00  0.00    +0.000 N 
ATOM     17  H   UNL     1       3.173   5.947  20.351  0.00  0.00    +0.000 HD
ENDBRANCH   6   7
BRANCH   1  18
ATOM     18  O   UNL     1       4.670   4.327  19.706  0.00  0.00    +0.000 OA
BRANCH  18  19
ATOM     19  C   UNL     1       4.631   2.895  19.637  0.00  0.00    +0.000 C 
BRANCH  19  20
ATOM     20  C   UNL     1       3.250   2.364  19.233  0.00  0.00    +0.000 C 
BRANCH  20  21
ATOM     21  N   UNL     1       2.168   3.364  19.416  0.00  0.00    +0.000 NA
BRANCH  21  23
ATOM     22  C   UNL     1       2.322   3.407  16.879  0.00  0.00    +0.000 C 
ATOM     23  C   UNL     1       1.529   3.739  18.138  0.00  0.00    +0.000 C 
ENDBRANCH  21  23
BRANCH  21  24
ATOM     24  C   UNL     1       1.220   2.944  20.459  0.00  0.00    +0.000 C 
ATOM     25  C   UNL     1       1.766   2.926  21.883  0.00  0.00    +0.000 C 
ENDBRANCH  21  24
ENDBRANCH  20  21
ENDBRANCH  19  20
ENDBRANCH  18  19
ENDBRANCH   1  18
TORSDOF 7
ENDMDL
MODEL 2
REMARK VINA RESULT:      -7.0      1.775      4.444
REMARK  Name = 
REMARK  9 active torsions:
REMARK  status: ('A' for Active; 'I' for Inactive)
REMARK    1  A    between atoms: C_1  and  C_2
REMARK    2  A    between atoms: C_2  and  N_3
REMARK    3  A    between atoms: N_3  and  C_4
REMARK    4  A    between atoms: N_3  and  C_6
REMARK    5  A    between atoms: C_4  and  C_5
REMARK    6  A    between atoms: C_6  and  C_7
REMARK    7  A    between atoms: C_7  and  O_8
REMARK    8  A    between atoms: O_8  and  C_9
REMARK    9  A    between atoms: C_14  and  C_15
REMARK                            x       y       z     vdW  Elec       q    Type
REMARK                         _______ _______ _______ _____ _____    ______ ____
ROOT
ATOM      1  C   UNL     1       3.481   4.767  19.596  0.00  0.00    +0.000 A 
ATOM      2  C   UNL     1       3.540   3.361  19.563  0.00  0.00    +0.000 A 
ATOM      3  C   UNL     1       2.506   2.582  20.087  0.00  0.00    +0.000 A 
ATOM      4  C   UNL     1       1.404   3.197  20.668  0.00  0.00    +0.000 A 
ATOM      5  C   UNL     1       1.322   4.588  20.684  0.00  0.00    +0.000 A 
ATOM      6  C   UNL     1       2.323   5.390  20.106  0.00  0.00    +0.000 A 
ENDROOT
BRANCH   6   7
ATOM      7  C   UNL     1       2.028   6.822  20.011  0.00  0.00    +0.000 A 
ATOM      8  N   UNL     1       1.386   7.547  20.910  0.00  0.00    +0.000 NA
ATOM      9  C   UNL     1       1.155   8.762  20.319  0.00  0.00    +0.000 A 
ATOM     10  C   UNL     1       0.422   9.857  20.791  0.00  0.00    +0.000 A 
ATOM     11  C   UNL     1       0.267  10.952  19.938  0.00  0.00    +0.000 A 
ATOM     12 CL   UNL     1      -0.731  12.267  20.434  0.00  0.00    +0.000 Cl
ATOM     13  C   UNL     1       0.873  10.991  18.677  0.00  0.00    +0.000 A 
ATOM     14  C   UNL     1       1.642   9.920  18.212  0.00  0.00    +0.000 A 
ATOM     15  C   UNL     1       1.727   8.812  19.054  0.00  0.00    +0.000 A 
ATOM     16  N   UNL     1       2.283   7.574  18.890  0.00  0.00    +0.000 N 
ATOM     17  H   UNL     1       2.753   7.233  18.062  0.00  0.00    +0.000 HD
ENDBRANCH   6   7
BRANCH   1  18
ATOM     18  O   UNL     1       4.582   5.387  19.059  0.00  0.00    +0.000 OA
BRANCH  18  19
ATOM     19  C   UNL     1       5.816   4.670  19.198  0.00  0.00    +0.000 C 
BRANCH  19  20
ATOM     20  C   UNL     1       7.040   5.591  19.129  0.00  0.00    +0.000 C 
BRANCH  20  21
ATOM     21  N   UNL     1       7.594   5.719  17.757  0.00  0.00    +0.000 NA
BRANCH  21  23
ATOM     22  C   UNL     1       7.036   4.828  15.444  0.00  0.00    +0.000 C 
ATOM     23  C   UNL     1       7.292   4.542  16.919  0.00  0.00    +0.000 C 
ENDBRANCH  21  23
BRANCH  21  24
ATOM     24  C   UNL     1       7.219   7.003  17.146  0.00  0.00    +0.000 C 
ATOM     25  C   UNL     1       7.893   8.239  17.731  0.00  0.00    +0.000 C 
ENDBRANCH  21  24
ENDBRANCH  20  21
ENDBRANCH  19  20
ENDBRANCH  18  19
ENDBRANCH   1  18
TORSDOF 7
ENDMDL
MODEL 3
REMARK VINA RESULT:      -6.9      0.690      1.631
REMARK  Name = 
REMARK  9 active torsions:
REMARK  status: ('A' for Active; 'I' for Inactive)
REMARK    1  A    between atoms: C_1  and  C_2
REMARK    2  A    between atoms: C_2  and  N_3
REMARK    3  A    between atoms: N_3  and  C_4
REMARK    4  A    between atoms: N_3  and  C_6
REMARK    5  A    between atoms: C_4  and  C_5
REMARK    6  A    between atoms: C_6  and  C_7
REMARK    7  A    between atoms: C_7  and  O_8
REMARK    8  A    between atoms: O_8  and  C_9
REMARK    9  A    between atoms: C_14  and  C_15
REMARK                            x       y       z     vdW  Elec       q    Type
REMARK                         _______ _______ _______ _____ _____    ______ ____
ROOT
ATOM      1  C   UNL     1       5.499   4.998  18.088  0.00  0.00    +0.000 A 
ATOM      2  C   UNL     1       6.659   4.491  17.473  0.00  0.00    +0.000 A 
ATOM      3  C   UNL     1       7.002   4.853  16.168  0.00  0.00    +0.000 A 
ATOM      4  C   UNL     1       6.180   5.714  15.452  0.00  0.00    +0.000 A 
ATOM      5  C   UNL     1       5.043   6.244  16.059  0.00  0.00    +0.000 A 
ATOM      6  C   UNL     1       4.713   5.941  17.393  0.00  0.00    +0.000 A 
ENDROOT
BRANCH   6   7
ATOM      7  C   UNL     1       3.611   6.710  17.975  0.00  0.00    +0.000 A 
ATOM      8  N   UNL     1       3.008   7.748  17.423  0.00  0.00    +0.000 NA
ATOM      9  C   UNL     1       2.198   8.275  18.397  0.00  0.00    +0.000 A 
ATOM     10  C   UNL     1       1.422   9.438  18.375  0.00  0.00    +0.000 A 
ATOM     11  C   UNL     1       0.754   9.797  19.549  0.00  0.00    +0.000 A 
ATOM     12 CL   UNL     1      -0.111  11.287  19.601  0.00  0.00    +0.000 Cl
ATOM     13  C   UNL     1       0.800   8.992  20.693  0.00  0.00    +0.000 A 
ATOM     14  C   UNL     1       1.539   7.805  20.713  0.00  0.00    +0.000 A 
ATOM     15  C   UNL     1       2.249   7.504  19.551  0.00  0.00    +0.000 A 
ATOM     16  N   UNL     1       3.144   6.513  19.252  0.00  0.00    +0.000 N 
ATOM     17  H   UNL     1       3.464   5.787  19.877  0.00  0.00    +0.000 HD
ENDBRANCH   6   7
BRANCH   1  18
ATOM     18  O   UNL     1       5.291   4.533  19.363  0.00  0.00    +0.000 OA
BRANCH  18  19
ATOM     19  C   UNL     1       4.836   3.176  19.452  0.00  0.00    +0.000 C 
BRANCH  19  20
ATOM     20  C   UNL     1       3.613   2.909  18.566  0.00  0.00    +0.000 C 
BRANCH  20  21
ATOM     21  N   UNL     1       2.398   2.558  19.344  0.00  0.00    +0.000 NA
BRANCH  21  23
ATOM     22  C   UNL     1       1.457   2.896  21.681  0.00  0.00    +0.000 C 
ATOM     23  C   UNL     1       2.650   2.543  20.799  0.00  0.00    +0.000 C 
ENDBRANCH  21  23
BRANCH  21  24
ATOM     24  C   UNL     1       1.248   3.382  18.942  0.00  0.00    +0.000 C 
ATOM     25  C   UNL     1       1.343   4.027  17.564  0.00  0.00    +0.000 C 
ENDBRANCH  21  24
ENDBRANCH  20  21
ENDBRANCH  19  20
ENDBRANCH  18  19
ENDBRANCH   1  18
TORSDOF 7
ENDMDL
MODEL 4
REMARK VINA RESULT:      -6.9      1.643      4.166
REMARK  Name = 
REMARK  9 active torsions:
REMARK  status: ('A' for Active; 'I' for Inactive)
REMARK    1  A    between atoms: C_1  and  C_2
REMARK    2  A    between atoms: C_2  and  N_3
REMARK    3  A    between atoms: N_3  and  C_4
REMARK    4  A    between atoms: N_3  and  C_6
REMARK    5  A    between atoms: C_4  and  C_5
REMARK    6  A    between atoms: C_6  and  C_7
REMARK    7  A    between atoms: C_7  and  O_8
REMARK    8  A    between atoms: O_8  and  C_9
REMARK    9  A    between atoms: C_14  and  C_15
REMARK                            x       y       z     vdW  Elec       q    Type
REMARK                         _______ _______ _______ _____ _____    ______ ____
ROOT
ATOM      1  C   UNL     1       2.332   4.039  18.919  0.00  0.00    +0.000 A 
ATOM      2  C   UNL     1       2.224   2.661  19.186  0.00  0.00    +0.000 A 
ATOM      3  C   UNL     1       2.077   2.187  20.491  0.00  0.00    +0.000 A 
ATOM      4  C   UNL     1       2.053   3.083  21.553  0.00  0.00    +0.000 A 
ATOM      5  C   UNL     1       2.132   4.451  21.300  0.00  0.00    +0.000 A 
ATOM      6  C   UNL     1       2.218   4.953  19.988  0.00  0.00    +0.000 A 
ENDROOT
BRANCH   6   7
ATOM      7  C   UNL     1       2.097   6.405  19.843  0.00  0.00    +0.000 A 
ATOM      8  N   UNL     1       1.593   7.238  20.737  0.00  0.00    +0.000 NA
ATOM      9  C   UNL     1       1.484   8.449  20.103  0.00  0.00    +0.000 A 
ATOM     10  C   UNL     1       0.915   9.644  20.558  0.00  0.00    +0.000 A 
ATOM     11  C   UNL     1       0.854  10.717  19.666  0.00  0.00    +0.000 A 
ATOM     12 CL   UNL     1       0.049  12.164  20.146  0.00  0.00    +0.000 Cl
ATOM     13  C   UNL     1       1.398  10.632  18.379  0.00  0.00    +0.000 A 
ATOM     14  C   UNL     1       2.006   9.456  17.928  0.00  0.00    +0.000 A 
ATOM     15  C   UNL     1       1.996   8.380  18.814  0.00  0.00    +0.000 A 
ATOM     16  N   UNL     1       2.388   7.076  18.680  0.00  0.00    +0.000 N 
ATOM     17  H   UNL     1       2.771   6.648  17.848  0.00  0.00    +0.000 HD
ENDBRANCH   6   7
BRANCH   1  18
ATOM     18  O   UNL     1       2.490   4.342  17.590  0.00  0.00    +0.000 OA
BRANCH  18  19
ATOM     19  C   UNL     1       3.728   3.912  17.008  0.00  0.00    +0.000 C 
BRANCH  19  20
ATOM     20  C   UNL     1       4.811   4.997  17.064  0.00  0.00    +0.000 C 
BRANCH  20  21
ATOM     21  N   UNL     1       6.040   4.555  17.771  0.00  0.00    +0.000 NA
BRANCH  21  23
ATOM     22  C   UNL     1       6.975   4.966  15.443  0.00  0.00    +0.000 C 
ATOM     23  C   UNL     1       7.209   4.488  16.872  0.00  0.00    +0.000 C 
ENDBRANCH  21  23
BRANCH  21  24
ATOM     24  C   UNL     1       6.267   5.341  18.993  0.00  0.00    +0.000 C 
ATOM     25  C   UNL     1       7.702   5.797  19.231  0.00  0.00    +0.000 C 
ENDBRANCH  21  24
ENDBRANCH  20  21
ENDBRANCH  19  20
ENDBRANCH  18  19
ENDBRANCH   1  18
TORSDOF 7
ENDMDL
MODEL 5
REMARK VINA RESULT:      -6.9      1.876      4.362
REMARK  Name = 
REMARK  9 active torsions:
REMARK  status: ('A' for Active; 'I' for Inactive)
REMARK    1  A    between atoms: C_1  and  C_2
REMARK    2  A    between atoms: C_2  and  N_3
REMARK    3  A    between atoms: N_3  and  C_4
REMARK    4  A    between atoms: N_3  and  C_6
REMARK    5  A    between atoms: C_4  and  C_5
REMARK    6  A    between atoms: C_6  and  C_7
REMARK    7  A    between atoms: C_7  and  O_8
REMARK    8  A    between atoms: O_8  and  C_9
REMARK    9  A    between atoms: C_14  and  C_15
REMARK                            x       y       z     vdW  Elec       q    Type
REMARK                         _______ _______ _______ _____ _____    ______ ____
ROOT
ATOM      1  C   UNL     1       3.103   4.198  19.201  0.00  0.00    +0.000 A 
ATOM      2  C   UNL     1       2.970   2.798  19.248  0.00  0.00    +0.000 A 
ATOM      3  C   UNL     1       2.008   2.190  20.058  0.00  0.00    +0.000 A 
ATOM      4  C   UNL     1       1.176   2.974  20.848  0.00  0.00    +0.000 A 
ATOM      5  C   UNL     1       1.281   4.362  20.791  0.00  0.00    +0.000 A 
ATOM      6  C   UNL     1       2.201   4.996  19.935  0.00  0.00    +0.000 A 
ENDROOT
BRANCH   6   7
ATOM      7  C   UNL     1       2.079   6.450  19.819  0.00  0.00    +0.000 A 
ATOM      8  N   UNL     1       1.564   7.264  20.725  0.00  0.00    +0.000 NA
ATOM      9  C   UNL     1       1.460   8.488  20.116  0.00  0.00    +0.000 A 
ATOM     10  C   UNL     1       0.885   9.672  20.590  0.00  0.00    +0.000 A 
ATOM     11  C   UNL     1       0.832  10.764  19.720  0.00  0.00    +0.000 A 
ATOM     12 CL   UNL     1       0.021  12.199  20.222  0.00  0.00    +0.000 Cl
ATOM     13  C   UNL     1       1.391  10.707  18.438  0.00  0.00    +0.000 A 
ATOM     14  C   UNL     1       2.005   9.541  17.968  0.00  0.00    +0.000 A 
ATOM     15  C   UNL     1       1.987   8.446  18.831  0.00  0.00    +0.000 A 
ATOM     16  N   UNL     1       2.381   7.146  18.674  0.00  0.00    +0.000 N 
ATOM     17  H   UNL     1       2.775   6.737  17.838  0.00  0.00    +0.000 HD
ENDBRANCH   6   7
BRANCH   1  18
ATOM     18  O   UNL     1       4.106   4.638  18.372  0.00  0.00    +0.000 OA
BRANCH  18  19
ATOM     19  C   UNL     1       4.494   3.720  17.341  0.00  0.00    +0.000 C 
BRANCH  19  20
ATOM     20  C   UNL     1       5.059   4.432  16.105  0.00  0.00    +0.000 C 
BRANCH  20  21
ATOM     21  N   UNL     1       6.514   4.203  15.918  0.00  0.00    +0.000 NA
BRANCH  21  23
ATOM     22  C   UNL     1       6.264   3.914  13.405  0.00  0.00    +0.000 C 
ATOM     23  C   UNL     1       6.974   4.594  14.571  0.00  0.00    +0.000 C 
ENDBRANCH  21  23
BRANCH  21  24
ATOM     24  C   UNL     1       7.295   4.796  17.014  0.00  0.00    +0.000 C 
ATOM     25  C   UNL     1       7.203   6.312  17.150  0.00  0.00    +0.000 C 
ENDBRANCH  21  24
ENDBRANCH  20  21
ENDBRANCH  19  20
ENDBRANCH  18  19
ENDBRANCH   1  18
TORSDOF 7
ENDMDL
MODEL 6
REMARK VINA RESULT:      -6.8      1.785      4.579
REMARK  Name = 
REMARK  9 active torsions:
REMARK  status: ('A' for Active; 'I' for Inactive)
REMARK    1  A    between atoms: C_1  and  C_2
REMARK    2  A    between atoms: C_2  and  N_3
REMARK    3  A    between atoms: N_3  and  C_4
REMARK    4  A    between atoms: N_3  and  C_6
REMARK    5  A    between atoms: C_4  and  C_5
REMARK    6  A    between atoms: C_6  and  C_7
REMARK    7  A    between atoms: C_7  and  O_8
REMARK    8  A    between atoms: O_8  and  C_9
REMARK    9  A    between atoms: C_14  and  C_15
REMARK                            x       y       z     vdW  Elec       q    Type
REMARK                         _______ _______ _______ _____ _____    ______ ____
ROOT
ATOM      1  C   UNL     1       2.898   4.485  18.804  0.00  0.00    +0.000 A 
ATOM      2  C   UNL     1       2.927   3.083  18.928  0.00  0.00    +0.000 A 
ATOM      3  C   UNL     1       2.578   2.456  20.126  0.00  0.00    +0.000 A 
ATOM      4  C   UNL     1       2.210   3.222  21.225  0.00  0.00    +0.000 A 
ATOM      5  C   UNL     1       2.151   4.610  21.107  0.00  0.00    +0.000 A 
ATOM      6  C   UNL     1       2.439   5.257  19.892  0.00  0.00    +0.000 A 
ENDROOT
BRANCH   6   7
ATOM      7  C   UNL     1       2.152   6.692  19.841  0.00  0.00    +0.000 A 
ATOM      8  N   UNL     1       1.613   7.414  20.808  0.00  0.00    +0.000 NA
ATOM      9  C   UNL     1       1.336   8.638  20.255  0.00  0.00    +0.000 A 
ATOM     10  C   UNL     1       0.667   9.734  20.810  0.00  0.00    +0.000 A 
ATOM     11  C   UNL     1       0.439  10.841  19.989  0.00  0.00    +0.000 A 
ATOM     12 CL   UNL     1      -0.490  12.160  20.596  0.00  0.00    +0.000 Cl
ATOM     13  C   UNL     1       0.915  10.888  18.673  0.00  0.00    +0.000 A 
ATOM     14  C   UNL     1       1.621   9.814  18.121  0.00  0.00    +0.000 A 
ATOM     15  C   UNL     1       1.779   8.697  18.940  0.00  0.00    +0.000 A 
ATOM     16  N   UNL     1       2.301   7.455  18.708  0.00  0.00    +0.000 N 
ATOM     17  H   UNL     1       2.681   7.118  17.833  0.00  0.00    +0.000 HD
ENDBRANCH   6   7
BRANCH   1  18
ATOM     18  O   UNL     1       3.286   4.947  17.571  0.00  0.00    +0.000 OA
BRANCH  18  19
ATOM     19  C   UNL     1       4.703   5.042  17.373  0.00  0.00    +0.000 C 
BRANCH  19  20
ATOM     20  C   UNL     1       5.066   5.617  15.997  0.00  0.00    +0.000 C 
BRANCH  20  21
ATOM     21  N   UNL     1       6.524   5.835  15.825  0.00  0.00    +0.000 NA
BRANCH  21  23
ATOM     22  C   UNL     1       7.575   7.319  17.601  0.00  0.00    +0.000 C 
ATOM     23  C   UNL     1       7.235   5.914  17.117  0.00  0.00    +0.000 C 
ENDBRANCH  21  23
BRANCH  21  24
ATOM     24  C   UNL     1       7.103   4.868  14.880  0.00  0.00    +0.000 C 
ATOM     25  C   UNL     1       6.104   3.986  14.139  0.00  0.00    +0.000 C 
ENDBRANCH  21  24
ENDBRANCH  20  21
ENDBRANCH  19  20
ENDBRANCH  18  19
ENDBRANCH   1  18
TORSDOF 7
ENDMDL
MODEL 7
REMARK VINA RESULT:      -6.7      1.777      4.453
REMARK  Name = 
REMARK  9 active torsions:
REMARK  status: ('A' for Active; 'I' for Inactive)
REMARK    1  A    between atoms: C_1  and  C_2
REMARK    2  A    between atoms: C_2  and  N_3
REMARK    3  A    between atoms: N_3  and  C_4
REMARK    4  A    between atoms: N_3  and  C_6
REMARK    5  A    between atoms: C_4  and  C_5
REMARK    6  A    between atoms: C_6  and  C_7
REMARK    7  A    between atoms: C_7  and  O_8
REMARK    8  A    between atoms: O_8  and  C_9
REMARK    9  A    between atoms: C_14  and  C_15
REMARK                            x       y       z     vdW  Elec       q    Type
REMARK                         _______ _______ _______ _____ _____    ______ ____
ROOT
ATOM      1  C   UNL     1       3.794   4.876  19.482  0.00  0.00    +0.000 A 
ATOM      2  C   UNL     1       4.113   3.507  19.545  0.00  0.00    +0.000 A 
ATOM      3  C   UNL     1       3.361   2.625  20.323  0.00  0.00    +0.000 A 
ATOM      4  C   UNL     1       2.287   3.102  21.064  0.00  0.00    +0.000 A 
ATOM      5  C   UNL     1       1.944   4.450  20.990  0.00  0.00    +0.000 A 
ATOM      6  C   UNL     1       2.651   5.344  20.165  0.00  0.00    +0.000 A 
ENDROOT
BRANCH   6   7
ATOM      7  C   UNL     1       2.076   6.683  20.022  0.00  0.00    +0.000 A 
ATOM      8  N   UNL     1       2.096   7.427  18.929  0.00  0.00    +0.000 NA
ATOM      9  C   UNL     1       1.640   8.664  19.308  0.00  0.00    +0.000 A 
ATOM     10  C   UNL     1       1.561   9.848  18.568  0.00  0.00    +0.000 A 
ATOM     11  C   UNL     1       1.136  11.002  19.230  0.00  0.00    +0.000 A 
ATOM     12 CL   UNL     1       1.144  12.506  18.387  0.00  0.00    +0.000 Cl
ATOM     13  C   UNL     1       0.737  10.973  20.571  0.00  0.00    +0.000 A 
ATOM     14  C   UNL     1       0.772   9.786  21.310  0.00  0.00    +0.000 A 
ATOM     15  C   UNL     1       1.263   8.662  20.645  0.00  0.00    +0.000 A 
ATOM     16  N   UNL     1       1.539   7.392  21.069  0.00  0.00    +0.000 N 
ATOM     17  H   UNL     1       1.430   7.037  22.009  0.00  0.00    +0.000 HD
ENDBRANCH   6   7
BRANCH   1  18
ATOM     18  O   UNL     1       4.639   5.614  18.691  0.00  0.00    +0.000 OA
BRANCH  18  19
ATOM     19  C   UNL     1       4.594   5.302  17.292  0.00  0.00    +0.000 C 
BRANCH  19  20
ATOM     20  C   UNL     1       5.239   6.392  16.427  0.00  0.00    +0.000 C 
BRANCH  20  21
ATOM     21  N   UNL     1       6.689   6.170  16.198  0.00  0.00    +0.000 NA
BRANCH  21  23
ATOM     22  C   UNL     1       7.707   8.042  17.582  0.00  0.00    +0.000 C 
ATOM     23  C   UNL     1       7.505   6.546  17.369  0.00  0.00    +0.000 C 
ENDBRANCH  21  23
BRANCH  21  24
ATOM     24  C   UNL     1       6.950   4.812  15.696  0.00  0.00    +0.000 C 
ATOM     25  C   UNL     1       6.522   4.542  14.258  0.00  0.00    +0.000 C 
ENDBRANCH  21  24
ENDBRANCH  20  21
ENDBRANCH  19  20
ENDBRANCH  18  19
ENDBRANCH   1  18
TORSDOF 7
ENDMDL
MODEL 8
REMARK VINA RESULT:      -6.5      1.592      4.407
REMARK  Name = 
REMARK  9 active torsions:
REMARK  status: ('A' for Active; 'I' for Inactive)
REMARK    1  A    between atoms: C_1  and  C_2
REMARK    2  A    between atoms: C_2  and  N_3
REMARK    3  A    between atoms: N_3  and  C_4
REMARK    4  A    between atoms: N_3  and  C_6
REMARK    5  A    between atoms: C_4  and  C_5
REMARK    6  A    between atoms: C_6  and  C_7
REMARK    7  A    between atoms: C_7  and  O_8
REMARK    8  A    between atoms: O_8  and  C_9
REMARK    9  A    between atoms: C_14  and  C_15
REMARK                            x       y       z     vdW  Elec       q    Type
REMARK                         _______ _______ _______ _____ _____    ______ ____
ROOT
ATOM      1  C   UNL     1       2.492   3.864  18.759  0.00  0.00    +0.000 A 
ATOM      2  C   UNL     1       2.286   2.482  18.925  0.00  0.00    +0.000 A 
ATOM      3  C   UNL     1       1.774   1.966  20.118  0.00  0.00    +0.000 A 
ATOM      4  C   UNL     1       1.477   2.824  21.170  0.00  0.00    +0.000 A 
ATOM      5  C   UNL     1       1.652   4.197  21.008  0.00  0.00    +0.000 A 
ATOM      6  C   UNL     1       2.107   4.742  19.794  0.00  0.00    +0.000 A 
ENDROOT
BRANCH   6   7
ATOM      7  C   UNL     1       2.061   6.202  19.684  0.00  0.00    +0.000 A 
ATOM      8  N   UNL     1       1.589   7.038  20.593  0.00  0.00    +0.000 NA
ATOM      9  C   UNL     1       1.549   8.268  19.989  0.00  0.00    +0.000 A 
ATOM     10  C   UNL     1       1.036   9.478  20.468  0.00  0.00    +0.000 A 
ATOM     11  C   UNL     1       1.039  10.574  19.603  0.00  0.00    +0.000 A 
ATOM     12 CL   UNL     1       0.303  12.048  20.111  0.00  0.00    +0.000 Cl
ATOM     13  C   UNL     1       1.593  10.493  18.320  0.00  0.00    +0.000 A 
ATOM     14  C   UNL     1       2.147   9.300  17.846  0.00  0.00    +0.000 A 
ATOM     15  C   UNL     1       2.072   8.204  18.704  0.00  0.00    +0.000 A 
ATOM     16  N   UNL     1       2.399   6.886  18.541  0.00  0.00    +0.000 N 
ATOM     17  H   UNL     1       2.770   6.460  17.703  0.00  0.00    +0.000 HD
ENDBRANCH   6   7
BRANCH   1  18
ATOM     18  O   UNL     1       3.018   4.210  17.538  0.00  0.00    +0.000 OA
BRANCH  18  19
ATOM     19  C   UNL     1       4.312   3.664  17.254  0.00  0.00    +0.000 C 
BRANCH  19  20
ATOM     20  C   UNL     1       5.413   4.278  18.129  0.00  0.00    +0.000 C 
BRANCH  20  21
ATOM     21  N   UNL     1       6.074   5.446  17.495  0.00  0.00    +0.000 NA
BRANCH  21  23
ATOM     22  C   UNL     1       7.779   5.762  19.355  0.00  0.00    +0.000 C 
ATOM     23  C   UNL     1       7.498   5.555  17.870  0.00  0.00    +0.000 C 
ENDBRANCH  21  23
BRANCH  21  24
ATOM     24  C   UNL     1       5.832   5.478  16.045  0.00  0.00    +0.000 C 
ATOM     25  C   UNL     1       5.087   6.701  15.524  0.00  0.00    +0.000 C 
ENDBRANCH  21  24
ENDBRANCH  20  21
ENDBRANCH  19  20
ENDBRANCH  18  19
ENDBRANCH   1  18
TORSDOF 7
ENDMDL
MODEL 9
REMARK VINA RESULT:      -6.5      1.175      1.850
REMARK  Name = 
REMARK  9 active torsions:
REMARK  status: ('A' for Active; 'I' for Inactive)
REMARK    1  A    between atoms: C_1  and  C_2
REMARK    2  A    between atoms: C_2  and  N_3
REMARK    3  A    between atoms: N_3  and  C_4
REMARK    4  A    between atoms: N_3  and  C_6
REMARK    5  A    between atoms: C_4  and  C_5
REMARK    6  A    between atoms: C_6  and  C_7
REMARK    7  A    between atoms: C_7  and  O_8
REMARK    8  A    between atoms: O_8  and  C_9
REMARK    9  A    between atoms: C_14  and  C_15
REMARK                            x       y       z     vdW  Elec       q    Type
REMARK                         _______ _______ _______ _____ _____    ______ ____
ROOT
ATOM      1  C   UNL     1       4.796   4.837  16.833  0.00  0.00    +0.000 A 
ATOM      2  C   UNL     1       6.014   4.282  16.399  0.00  0.00    +0.000 A 
ATOM      3  C   UNL     1       7.186   5.042  16.371  0.00  0.00    +0.000 A 
ATOM      4  C   UNL     1       7.153   6.375  16.760  0.00  0.00    +0.000 A 
ATOM      5  C   UNL     1       5.959   6.930  17.217  0.00  0.00    +0.000 A 
ATOM      6  C   UNL     1       4.782   6.164  17.311  0.00  0.00    +0.000 A 
ENDROOT
BRANCH   6   7
ATOM      7  C   UNL     1       3.651   6.802  17.988  0.00  0.00    +0.000 A 
ATOM      8  N   UNL     1       3.029   7.901  17.599  0.00  0.00    +0.000 NA
ATOM      9  C   UNL     1       2.189   8.243  18.628  0.00  0.00    +0.000 A 
ATOM     10  C   UNL     1       1.382   9.376  18.779  0.00  0.00    +0.000 A 
ATOM     11  C   UNL     1       0.685   9.522  19.981  0.00  0.00    +0.000 A 
ATOM     12 CL   UNL     1      -0.221  10.963  20.256  0.00  0.00    +0.000 Cl
ATOM     13  C   UNL     1       0.733   8.544  20.980  0.00  0.00    +0.000 A 
ATOM     14  C   UNL     1       1.504   7.387  20.822  0.00  0.00    +0.000 A 
ATOM     15  C   UNL     1       2.241   7.296  19.642  0.00  0.00    +0.000 A 
ATOM     16  N   UNL     1       3.167   6.389  19.206  0.00  0.00    +0.000 N 
ATOM     17  H   UNL     1       3.496   5.578  19.711  0.00  0.00    +0.000 HD
ENDBRANCH   6   7
BRANCH   1  18
ATOM     18  O   UNL     1       3.735   3.968  16.783  0.00  0.00    +0.000 OA
BRANCH  18  19
ATOM     19  C   UNL     1       3.927   2.728  17.476  0.00  0.00    +0.000 C 
BRANCH  19  20
ATOM     20  C   UNL     1       4.046   2.917  18.994  0.00  0.00    +0.000 C 
BRANCH  20  21
ATOM     21  N   UNL     1       2.848   2.446  19.734  0.00  0.00    +0.000 NA
BRANCH  21  23
ATOM     22  C   UNL     1       2.020   3.288  21.984  0.00  0.00    +0.000 C 
ATOM     23  C   UNL     1       3.044   2.479  21.197  0.00  0.00    +0.000 C 
ENDBRANCH  21  23
BRANCH  21  24
ATOM     24  C   UNL     1       1.631   3.134  19.276  0.00  0.00    +0.000 C 
ATOM     25  C   UNL     1       0.522   2.235  18.742  0.00  0.00    +0.000 C 
ENDBRANCH  21  24
ENDBRANCH  20  21
ENDBRANCH  19  20
ENDBRANCH  18  19
ENDBRANCH   1  18
TORSDOF 7
ENDMDL
