MODEL 1
REMARK VINA RESULT:      -6.8      0.000      0.000
REMARK  Name = 
REMARK  12 active torsions:
REMARK  status: ('A' for Active; 'I' for Inactive)
REMARK    1  A    between atoms: C_1  and  C_2
REMARK    2  A    between atoms: C_2  and  C_3
REMARK    3  A    between atoms: C_2  and  C_4
REMARK    4  A    between atoms: C_2  and  N_5
REMARK    5  A    between atoms: C_6  and  C_8
REMARK    6  A    between atoms: C_8  and  C_9
REMARK    7  A    between atoms: C_8  and  N_15
REMARK    8  A    between atoms: N_15  and  C_25
REMARK    9  A    between atoms: C_16  and  C_18
REMARK   10  A    between atoms: C_18  and  C_19
REMARK   11  A    between atoms: C_28  and  O_29
REMARK   12  A    between atoms: O_29  and  C_30
REMARK                            x       y       z     vdW  Elec       q    Type
REMARK                         _______ _______ _______ _____ _____    ______ ____
ROOT
ATOM      1  N   UNL     1       0.577  10.926  19.102  0.00  0.00    +0.000 N 
ATOM      2  C   UNL     1      -0.661  11.025  18.436  0.00  0.00    +0.000 C 
ATOM      3  O   UNL     1      -1.125  10.093  17.777  0.00  0.00    +0.000 OA
ENDROOT
BRANCH   1   4
ATOM      4  C   UNL     1       1.170   9.633  19.049  0.00  0.00    +0.000 A 
ATOM      5  C   UNL     1       1.148   8.795  20.161  0.00  0.00    +0.000 A 
ATOM      6  C   UNL     1       1.858   7.586  20.131  0.00  0.00    +0.000 A 
ATOM      7  C   UNL     1       2.539   7.183  18.978  0.00  0.00    +0.000 A 
ATOM      8  C   UNL     1       2.594   8.047  17.885  0.00  0.00    +0.000 A 
ATOM      9  C   UNL     1       1.956   9.286  17.944  0.00  0.00    +0.000 A 
BRANCH   7  10
ATOM     10  O   UNL     1       3.162   5.970  19.047  0.00  0.00    +0.000 OA
BRANCH  10  11
ATOM     11  C   UNL     1       2.934   5.101  17.941  0.00  0.00    +0.000 C 
ATOM     12  F   UNL     1       1.597   4.925  17.799  0.00  0.00    +0.000 F 
ENDBRANCH  10  11
ENDBRANCH   7  10
ENDBRANCH   1   4
BRANCH   1  13
ATOM     13  C   UNL     1       1.217  11.972  19.971  0.00  0.00    +0.000 C 
BRANCH  13  14
ATOM     14  C   UNL     1       0.405  12.391  21.218  0.00  0.00    +0.000 A 
ATOM     15  C   UNL     1       0.093  13.734  21.483  0.00  0.00    +0.000 A 
ATOM     16  C   UNL     1      -0.792  14.074  22.506  0.00  0.00    +0.000 A 
ATOM     17  C   UNL     1      -1.375  13.058  23.251  0.00  0.00    +0.000 A 
ATOM     18  N   UNL     1      -1.098  11.756  23.046  0.00  0.00    +0.000 NA
ATOM     19  C   UNL     1      -0.234  11.457  22.044  0.00  0.00    +0.000 A 
ENDBRANCH  13  14
BRANCH  13  21
ATOM     20  N   UNL     1       2.977  13.880  19.965  0.00  0.00    +0.000 N 
ATOM     21  C   UNL     1       1.962  13.199  19.305  0.00  0.00    +0.000 C 
ATOM     22  O   UNL     1       1.744  13.416  18.102  0.00  0.00    +0.000 OA
ATOM     23  H   UNL     1       3.140  13.693  20.947  0.00  0.00    +0.000 HD
BRANCH  20  25
ATOM     24  C   UNL     1       4.504  14.407  18.076  0.00  0.00    +0.000 C 
ATOM     25  C   UNL     1       3.794  14.947  19.328  0.00  0.00    +0.000 C 
ATOM     26  C   UNL     1       4.836  15.487  20.324  0.00  0.00    +0.000 C 
ATOM     27  C   UNL     1       2.923  16.143  18.866  0.00  0.00    +0.000 C 
ENDBRANCH  20  25
ENDBRANCH  13  21
ENDBRANCH   1  13
BRANCH   2  28
ATOM     28  C   UNL     1      -1.465  12.322  18.472  0.00  0.00    +0.000 C 
BRANCH  28  29
ATOM     29  C   UNL     1      -2.896  12.168  18.907  0.00  0.00    +0.000 A 
ATOM     30  C   UNL     1      -3.845  11.548  18.088  0.00  0.00    +0.000 A 
ATOM     31  C   UNL     1      -5.167  11.448  18.512  0.00  0.00    +0.000 A 
ATOM     32  C   UNL     1      -5.493  11.938  19.764  0.00  0.00    +0.000 A 
ATOM     33  N   UNL     1      -4.597  12.496  20.605  0.00  0.00    +0.000 NA
ATOM     34  C   UNL     1      -3.323  12.597  20.162  0.00  0.00    +0.000 A 
ENDBRANCH  28  29
ENDBRANCH   2  28
TORSDOF 9
ENDMDL
MODEL 2
REMARK VINA RESULT:      -6.8      0.832      1.252
REMARK  Name = 
REMARK  12 active torsions:
REMARK  status: ('A' for Active; 'I' for Inactive)
REMARK    1  A    between atoms: C_1  and  C_2
REMARK    2  A    between atoms: C_2  and  C_3
REMARK    3  A    between atoms: C_2  and  C_4
REMARK    4  A    between atoms: C_2  and  N_5
REMARK    5  A    between atoms: C_6  and  C_8
REMARK    6  A    between atoms: C_8  and  C_9
REMARK    7  A    between atoms: C_8  and  N_15
REMARK    8  A    between atoms: N_15  and  C_25
REMARK    9  A    between atoms: C_16  and  C_18
REMARK   10  A    between atoms: C_18  and  C_19
REMARK   11  A    between atoms: C_28  and  O_29
REMARK   12  A    between atoms: O_29  and  C_30
REMARK                            x       y       z     vdW  Elec       q    Type
REMARK                         _______ _______ _______ _____ _____    ______ ____
ROOT
ATOM      1  N   UNL     1       0.436  10.863  19.073  0.00  0.00    +0.000 N 
ATOM      2  C   UNL     1      -0.740  10.917  18.299  0.00  0.00    +0.000 C 
ATOM      3  O   UNL     1      -1.115   9.965  17.615  0.00  0.00    +0.000 OA
ENDROOT
BRANCH   1   4
ATOM      4  C   UNL     1       1.070   9.588  19.091  0.00  0.00    +0.000 A 
ATOM      5  C   UNL     1       1.100   8.825  20.256  0.00  0.00    +0.000 A 
ATOM      6  C   UNL     1       1.847   7.639  20.288  0.00  0.00    +0.000 A 
ATOM      7  C   UNL     1       2.515   7.181  19.147  0.00  0.00    +0.000 A 
ATOM      8  C   UNL     1       2.517   7.972  17.999  0.00  0.00    +0.000 A 
ATOM      9  C   UNL     1       1.841   9.193  17.992  0.00  0.00    +0.000 A 
BRANCH   7  10
ATOM     10  O   UNL     1       3.177   5.995  19.280  0.00  0.00    +0.000 OA
BRANCH  10  11
ATOM     11  C   UNL     1       3.870   5.547  18.119  0.00  0.00    +0.000 C 
ATOM     12  F   UNL     1       3.065   4.695  17.437  0.00  0.00    +0.000 F 
ENDBRANCH  10  11
ENDBRANCH   7  10
ENDBRANCH   1   4
BRANCH   1  13
ATOM     13  C   UNL     1       0.966  11.938  19.982  0.00  0.00    +0.000 C 
BRANCH  13  14
ATOM     14  C   UNL     1       0.001  12.403  21.097  0.00  0.00    +0.000 A 
ATOM     15  C   UNL     1      -0.635  11.491  21.954  0.00  0.00    +0.000 A 
ATOM     16  C   UNL     1      -1.352  11.934  23.066  0.00  0.00    +0.000 A 
ATOM     17  C   UNL     1      -1.413  13.297  23.320  0.00  0.00    +0.000 A 
ATOM     18  N   UNL     1      -0.833  14.214  22.521  0.00  0.00    +0.000 NA
ATOM     19  C   UNL     1      -0.142  13.750  21.450  0.00  0.00    +0.000 A 
ENDBRANCH  13  14
BRANCH  13  21
ATOM     20  N   UNL     1       2.868  13.701  20.065  0.00  0.00    +0.000 N 
ATOM     21  C   UNL     1       1.802  13.138  19.377  0.00  0.00    +0.000 C 
ATOM     22  O   UNL     1       1.596  13.435  18.189  0.00  0.00    +0.000 OA
ATOM     23  H   UNL     1       3.020  13.449  21.033  0.00  0.00    +0.000 HD
BRANCH  20  25
ATOM     24  C   UNL     1       4.302  14.273  18.115  0.00  0.00    +0.000 C 
ATOM     25  C   UNL     1       3.763  14.735  19.479  0.00  0.00    +0.000 C 
ATOM     26  C   UNL     1       4.938  15.024  20.431  0.00  0.00    +0.000 C 
ATOM     27  C   UNL     1       3.018  16.072  19.235  0.00  0.00    +0.000 C 
ENDBRANCH  20  25
ENDBRANCH  13  21
ENDBRANCH   1  13
BRANCH   2  28
ATOM     28  C   UNL     1      -1.581  12.190  18.246  0.00  0.00    +0.000 C 
BRANCH  28  29
ATOM     29  C   UNL     1      -3.019  12.016  18.651  0.00  0.00    +0.000 A 
ATOM     30  C   UNL     1      -3.493  12.493  19.877  0.00  0.00    +0.000 A 
ATOM     31  C   UNL     1      -4.824  12.290  20.231  0.00  0.00    +0.000 A 
ATOM     32  C   UNL     1      -5.653  11.648  19.327  0.00  0.00    +0.000 A 
ATOM     33  N   UNL     1      -5.246  11.219  18.114  0.00  0.00    +0.000 NA
ATOM     34  C   UNL     1      -3.944  11.414  17.802  0.00  0.00    +0.000 A 
ENDBRANCH  28  29
ENDBRANCH   2  28
TORSDOF 9
ENDMDL
MODEL 3
REMARK VINA RESULT:      -6.8      0.548      1.161
REMARK  Name = 
REMARK  12 active torsions:
REMARK  status: ('A' for Active; 'I' for Inactive)
REMARK    1  A    between atoms: C_1  and  C_2
REMARK    2  A    between atoms: C_2  and  C_3
REMARK    3  A    between atoms: C_2  and  C_4
REMARK    4  A    between atoms: C_2  and  N_5
REMARK    5  A    between atoms: C_6  and  C_8
REMARK    6  A    between atoms: C_8  and  C_9
REMARK    7  A    between atoms: C_8  and  N_15
REMARK    8  A    between atoms: N_15  and  C_25
REMARK    9  A    between atoms: C_16  and  C_18
REMARK   10  A    between atoms: C_18  and  C_19
REMARK   11  A    between atoms: C_28  and  O_29
REMARK   12  A    between atoms: O_29  and  C_30
REMARK                            x       y       z     vdW  Elec       q    Type
REMARK                         _______ _______ _______ _____ _____    ______ ____
ROOT
ATOM      1  N   UNL     1       0.524  10.951  19.154  0.00  0.00    +0.000 N 
ATOM      2  C   UNL     1      -0.719  11.043  18.496  0.00  0.00    +0.000 C 
ATOM      3  O   UNL     1      -1.192  10.102  17.858  0.00  0.00    +0.000 OA
ENDROOT
BRANCH   1   4
ATOM      4  C   UNL     1       1.111   9.654  19.120  0.00  0.00    +0.000 A 
ATOM      5  C   UNL     1       1.097   8.837  20.248  0.00  0.00    +0.000 A 
ATOM      6  C   UNL     1       1.801   7.625  20.234  0.00  0.00    +0.000 A 
ATOM      7  C   UNL     1       2.468   7.196  19.082  0.00  0.00    +0.000 A 
ATOM      8  C   UNL     1       2.516   8.039  17.972  0.00  0.00    +0.000 A 
ATOM      9  C   UNL     1       1.883   9.282  18.013  0.00  0.00    +0.000 A 
BRANCH   7  10
ATOM     10  O   UNL     1       3.085   5.982  19.168  0.00  0.00    +0.000 OA
BRANCH  10  11
ATOM     11  C   UNL     1       2.225   4.850  19.084  0.00  0.00    +0.000 C 
ATOM     12  F   UNL     1       2.067   4.523  17.776  0.00  0.00    +0.000 F 
ENDBRANCH  10  11
ENDBRANCH   7  10
ENDBRANCH   1   4
BRANCH   1  13
ATOM     13  C   UNL     1       1.177  12.009  19.999  0.00  0.00    +0.000 C 
BRANCH  13  14
ATOM     14  C   UNL     1       0.381  12.446  21.251  0.00  0.00    +0.000 A 
ATOM     15  C   UNL     1       0.117  13.797  21.526  0.00  0.00    +0.000 A 
ATOM     16  C   UNL     1      -0.754  14.161  22.553  0.00  0.00    +0.000 A 
ATOM     17  C   UNL     1      -1.372  13.161  23.291  0.00  0.00    +0.000 A 
ATOM     18  N   UNL     1      -1.141  11.851  23.076  0.00  0.00    +0.000 NA
ATOM     19  C   UNL     1      -0.290  11.530  22.069  0.00  0.00    +0.000 A 
ENDBRANCH  13  14
BRANCH  13  21
ATOM     20  N   UNL     1       2.955  13.898  19.930  0.00  0.00    +0.000 N 
ATOM     21  C   UNL     1       1.913  13.226  19.305  0.00  0.00    +0.000 C 
ATOM     22  O   UNL     1       1.660  13.440  18.109  0.00  0.00    +0.000 OA
ATOM     23  H   UNL     1       3.146  13.713  20.907  0.00  0.00    +0.000 HD
BRANCH  20  25
ATOM     24  C   UNL     1       2.875  16.147  18.873  0.00  0.00    +0.000 C 
ATOM     25  C   UNL     1       3.763  14.954  19.264  0.00  0.00    +0.000 C 
ATOM     26  C   UNL     1       4.452  14.386  18.009  0.00  0.00    +0.000 C 
ATOM     27  C   UNL     1       4.870  15.508  20.196  0.00  0.00    +0.000 C 
ENDBRANCH  20  25
ENDBRANCH  13  21
ENDBRANCH   1  13
BRANCH   2  28
ATOM     28  C   UNL     1      -1.516  12.345  18.515  0.00  0.00    +0.000 C 
BRANCH  28  29
ATOM     29  C   UNL     1      -2.931  12.213  19.008  0.00  0.00    +0.000 A 
ATOM     30  C   UNL     1      -3.323  12.736  20.244  0.00  0.00    +0.000 A 
ATOM     31  C   UNL     1      -4.635  12.571  20.681  0.00  0.00    +0.000 A 
ATOM     32  C   UNL     1      -5.528  11.922  19.847  0.00  0.00    +0.000 A 
ATOM     33  N   UNL     1      -5.201  11.450  18.625  0.00  0.00    +0.000 NA
ATOM     34  C   UNL     1      -3.916  11.607  18.232  0.00  0.00    +0.000 A 
ENDBRANCH  28  29
ENDBRANCH   2  28
TORSDOF 9
ENDMDL
MODEL 4
REMARK VINA RESULT:      -6.7      0.663      1.227
REMARK  Name = 
REMARK  12 active torsions:
REMARK  status: ('A' for Active; 'I' for Inactive)
REMARK    1  A    between atoms: C_1  and  C_2
REMARK    2  A    between atoms: C_2  and  C_3
REMARK    3  A    between atoms: C_2  and  C_4
REMARK    4  A    between atoms: C_2  and  N_5
REMARK    5  A    between atoms: C_6  and  C_8
REMARK    6  A    between atoms: C_8  and  C_9
REMARK    7  A    between atoms: C_8  and  N_15
REMARK    8  A    between atoms: N_15  and  C_25
REMARK    9  A    between atoms: C_16  and  C_18
REMARK   10  A    between atoms: C_18  and  C_19
REMARK   11  A    between atoms: C_28  and  O_29
REMARK   12  A    between atoms: O_29  and  C_30
REMARK                            x       y       z     vdW  Elec       q    Type
REMARK                         _______ _______ _______ _____ _____    ______ ____
ROOT
ATOM      1  N   UNL     1       0.425  10.868  19.048  0.00  0.00    +0.000 N 
ATOM      2  C   UNL     1      -0.753  10.919  18.277  0.00  0.00    +0.000 C 
ATOM      3  O   UNL     1      -1.121   9.970  17.583  0.00  0.00    +0.000 OA
ENDROOT
BRANCH   1   4
ATOM      4  C   UNL     1       1.072   9.600  19.049  0.00  0.00    +0.000 A 
ATOM      5  C   UNL     1       1.096   8.815  20.200  0.00  0.00    +0.000 A 
ATOM      6  C   UNL     1       1.855   7.637  20.219  0.00  0.00    +0.000 A 
ATOM      7  C   UNL     1       2.542   7.208  19.079  0.00  0.00    +0.000 A 
ATOM      8  C   UNL     1       2.551   8.021  17.946  0.00  0.00    +0.000 A 
ATOM      9  C   UNL     1       1.861   9.234  17.953  0.00  0.00    +0.000 A 
BRANCH   7  10
ATOM     10  O   UNL     1       3.215   6.027  19.198  0.00  0.00    +0.000 OA
BRANCH  10  11
ATOM     11  C   UNL     1       3.909   5.596  18.030  0.00  0.00    +0.000 C 
ATOM     12  F   UNL     1       3.117   4.726  17.355  0.00  0.00    +0.000 F 
ENDBRANCH  10  11
ENDBRANCH   7  10
ENDBRANCH   1   4
BRANCH   1  13
ATOM     13  C   UNL     1       0.946  11.938  19.967  0.00  0.00    +0.000 C 
BRANCH  13  14
ATOM     14  C   UNL     1      -0.025  12.388  21.083  0.00  0.00    +0.000 A 
ATOM     15  C   UNL     1      -0.619  11.469  21.963  0.00  0.00    +0.000 A 
ATOM     16  C   UNL     1      -1.342  11.905  23.073  0.00  0.00    +0.000 A 
ATOM     17  C   UNL     1      -1.450  13.270  23.305  0.00  0.00    +0.000 A 
ATOM     18  N   UNL     1      -0.911  14.192  22.484  0.00  0.00    +0.000 NA
ATOM     19  C   UNL     1      -0.213  13.735  21.414  0.00  0.00    +0.000 A 
ENDBRANCH  13  14
BRANCH  13  21
ATOM     20  N   UNL     1       2.847  13.702  20.063  0.00  0.00    +0.000 N 
ATOM     21  C   UNL     1       1.776  13.149  19.374  0.00  0.00    +0.000 C 
ATOM     22  O   UNL     1       1.561  13.465  18.193  0.00  0.00    +0.000 OA
ATOM     23  H   UNL     1       3.006  13.435  21.026  0.00  0.00    +0.000 HD
BRANCH  20  25
ATOM     24  C   UNL     1       2.966  16.062  19.287  0.00  0.00    +0.000 C 
ATOM     25  C   UNL     1       3.736  14.746  19.486  0.00  0.00    +0.000 C 
ATOM     26  C   UNL     1       4.312  14.272  18.140  0.00  0.00    +0.000 C 
ATOM     27  C   UNL     1       4.932  15.066  20.420  0.00  0.00    +0.000 C 
ENDBRANCH  20  25
ENDBRANCH  13  21
ENDBRANCH   1  13
BRANCH   2  28
ATOM     28  C   UNL     1      -1.608  12.183  18.240  0.00  0.00    +0.000 C 
BRANCH  28  29
ATOM     29  C   UNL     1      -3.051  11.982  18.612  0.00  0.00    +0.000 A 
ATOM     30  C   UNL     1      -3.938  11.316  17.760  0.00  0.00    +0.000 A 
ATOM     31  C   UNL     1      -5.274  11.173  18.124  0.00  0.00    +0.000 A 
ATOM     32  C   UNL     1      -5.675  11.668  19.353  0.00  0.00    +0.000 A 
ATOM     33  N   UNL     1      -4.840  12.270  20.225  0.00  0.00    +0.000 NA
ATOM     34  C   UNL     1      -3.551  12.412  19.839  0.00  0.00    +0.000 A 
ENDBRANCH  28  29
ENDBRANCH   2  28
TORSDOF 9
ENDMDL
MODEL 5
REMARK VINA RESULT:      -6.7      0.815      1.065
REMARK  Name = 
REMARK  12 active torsions:
REMARK  status: ('A' for Active; 'I' for Inactive)
REMARK    1  A    between atoms: C_1  and  C_2
REMARK    2  A    between atoms: C_2  and  C_3
REMARK    3  A    between atoms: C_2  and  C_4
REMARK    4  A    between atoms: C_2  and  N_5
REMARK    5  A    between atoms: C_6  and  C_8
REMARK    6  A    between atoms: C_8  and  C_9
REMARK    7  A    between atoms: C_8  and  N_15
REMARK    8  A    between atoms: N_15  and  C_25
REMARK    9  A    between atoms: C_16  and  C_18
REMARK   10  A    between atoms: C_18  and  C_19
REMARK   11  A    between atoms: C_28  and  O_29
REMARK   12  A    between atoms: O_29  and  C_30
REMARK                            x       y       z     vdW  Elec       q    Type
REMARK                         _______ _______ _______ _____ _____    ______ ____
ROOT
ATOM      1  N   UNL     1       0.349  10.868  19.156  0.00  0.00    +0.000 N 
ATOM      2  C   UNL     1      -0.789  10.898  18.326  0.00  0.00    +0.000 C 
ATOM      3  O   UNL     1      -1.121   9.932  17.637  0.00  0.00    +0.000 OA
ENDROOT
BRANCH   1   4
ATOM      4  C   UNL     1       0.996   9.601  19.220  0.00  0.00    +0.000 A 
ATOM      5  C   UNL     1       0.964   8.845  20.390  0.00  0.00    +0.000 A 
ATOM      6  C   UNL     1       1.722   7.669  20.474  0.00  0.00    +0.000 A 
ATOM      7  C   UNL     1       2.464   7.214  19.380  0.00  0.00    +0.000 A 
ATOM      8  C   UNL     1       2.528   7.998  18.229  0.00  0.00    +0.000 A 
ATOM      9  C   UNL     1       1.838   9.210  18.172  0.00  0.00    +0.000 A 
BRANCH   7  10
ATOM     10  O   UNL     1       3.132   6.036  19.560  0.00  0.00    +0.000 OA
BRANCH  10  11
ATOM     11  C   UNL     1       2.440   5.051  20.322  0.00  0.00    +0.000 C 
ATOM     12  F   UNL     1       1.590   4.388  19.498  0.00  0.00    +0.000 F 
ENDBRANCH  10  11
ENDBRANCH   7  10
ENDBRANCH   1   4
BRANCH   1  13
ATOM     13  C   UNL     1       0.823  11.960  20.074  0.00  0.00    +0.000 C 
BRANCH  13  14
ATOM     14  C   UNL     1      -0.186  12.403  21.159  0.00  0.00    +0.000 A 
ATOM     15  C   UNL     1      -0.793  11.481  22.027  0.00  0.00    +0.000 A 
ATOM     16  C   UNL     1      -1.554  11.914  23.113  0.00  0.00    +0.000 A 
ATOM     17  C   UNL     1      -1.689  13.278  23.332  0.00  0.00    +0.000 A 
ATOM     18  N   UNL     1      -1.139  14.203  22.521  0.00  0.00    +0.000 NA
ATOM     19  C   UNL     1      -0.404  13.749  21.474  0.00  0.00    +0.000 A 
ENDBRANCH  13  14
BRANCH  13  21
ATOM     20  N   UNL     1       2.794  13.648  20.106  0.00  0.00    +0.000 N 
ATOM     21  C   UNL     1       1.642  13.181  19.488  0.00  0.00    +0.000 C 
ATOM     22  O   UNL     1       1.331  13.587  18.356  0.00  0.00    +0.000 OA
ATOM     23  H   UNL     1       3.032  13.308  21.030  0.00  0.00    +0.000 HD
BRANCH  20  25
ATOM     24  C   UNL     1       4.136  14.289  18.114  0.00  0.00    +0.000 C 
ATOM     25  C   UNL     1       3.668  14.699  19.519  0.00  0.00    +0.000 C 
ATOM     26  C   UNL     1       4.889  14.944  20.424  0.00  0.00    +0.000 C 
ATOM     27  C   UNL     1       2.921  16.049  19.365  0.00  0.00    +0.000 C 
ENDBRANCH  20  25
ENDBRANCH  13  21
ENDBRANCH   1  13
BRANCH   2  28
ATOM     28  C   UNL     1      -1.642  12.160  18.216  0.00  0.00    +0.000 C 
BRANCH  28  29
ATOM     29  C   UNL     1      -3.089  11.980  18.585  0.00  0.00    +0.000 A 
ATOM     30  C   UNL     1      -3.982  11.323  17.731  0.00  0.00    +0.000 A 
ATOM     31  C   UNL     1      -5.320  11.200  18.092  0.00  0.00    +0.000 A 
ATOM     32  C   UNL     1      -5.718  11.703  19.318  0.00  0.00    +0.000 A 
ATOM     33  N   UNL     1      -4.878  12.296  20.191  0.00  0.00    +0.000 NA
ATOM     34  C   UNL     1      -3.586  12.419  19.809  0.00  0.00    +0.000 A 
ENDBRANCH  28  29
ENDBRANCH   2  28
TORSDOF 9
ENDMDL
MODEL 6
REMARK VINA RESULT:      -6.7      0.850      1.329
REMARK  Name = 
REMARK  12 active torsions:
REMARK  status: ('A' for Active; 'I' for Inactive)
REMARK    1  A    between atoms: C_1  and  C_2
REMARK    2  A    between atoms: C_2  and  C_3
REMARK    3  A    between atoms: C_2  and  C_4
REMARK    4  A    between atoms: C_2  and  N_5
REMARK    5  A    between atoms: C_6  and  C_8
REMARK    6  A    between atoms: C_8  and  C_9
REMARK    7  A    between atoms: C_8  and  N_15
REMARK    8  A    between atoms: N_15  and  C_25
REMARK    9  A    between atoms: C_16  and  C_18
REMARK   10  A    between atoms: C_18  and  C_19
REMARK   11  A    between atoms: C_28  and  O_29
REMARK   12  A    between atoms: O_29  and  C_30
REMARK                            x       y       z     vdW  Elec       q    Type
REMARK                         _______ _______ _______ _____ _____    ______ ____
ROOT
ATOM      1  N   UNL     1       0.542  10.909  19.140  0.00  0.00    +0.000 N 
ATOM      2  C   UNL     1      -0.699  11.003  18.478  0.00  0.00    +0.000 C 
ATOM      3  O   UNL     1      -1.170  10.062  17.839  0.00  0.00    +0.000 OA
ENDROOT
BRANCH   1   4
ATOM      4  C   UNL     1       1.129   9.612  19.107  0.00  0.00    +0.000 A 
ATOM      5  C   UNL     1       1.150   8.812  20.246  0.00  0.00    +0.000 A 
ATOM      6  C   UNL     1       1.854   7.600  20.228  0.00  0.00    +0.000 A 
ATOM      7  C   UNL     1       2.487   7.155  19.063  0.00  0.00    +0.000 A 
ATOM      8  C   UNL     1       2.500   7.982  17.940  0.00  0.00    +0.000 A 
ATOM      9  C   UNL     1       1.868   9.226  17.983  0.00  0.00    +0.000 A 
BRANCH   7  10
ATOM     10  O   UNL     1       3.107   5.943  19.148  0.00  0.00    +0.000 OA
BRANCH  10  11
ATOM     11  C   UNL     1       3.980   5.625  18.068  0.00  0.00    +0.000 C 
ATOM     12  F   UNL     1       5.203   6.148  18.333  0.00  0.00    +0.000 F 
ENDBRANCH  10  11
ENDBRANCH   7  10
ENDBRANCH   1   4
BRANCH   1  13
ATOM     13  C   UNL     1       1.192  11.968  19.987  0.00  0.00    +0.000 C 
BRANCH  13  14
ATOM     14  C   UNL     1       0.390  12.410  21.233  0.00  0.00    +0.000 A 
ATOM     15  C   UNL     1       0.082  13.758  21.475  0.00  0.00    +0.000 A 
ATOM     16  C   UNL     1      -0.795  14.119  22.498  0.00  0.00    +0.000 A 
ATOM     17  C   UNL     1      -1.374  13.117  23.265  0.00  0.00    +0.000 A 
ATOM     18  N   UNL     1      -1.101  11.811  23.082  0.00  0.00    +0.000 NA
ATOM     19  C   UNL     1      -0.245  11.493  22.079  0.00  0.00    +0.000 A 
ENDBRANCH  13  14
BRANCH  13  21
ATOM     20  N   UNL     1       2.914  13.909  19.962  0.00  0.00    +0.000 N 
ATOM     21  C   UNL     1       1.938  13.180  19.296  0.00  0.00    +0.000 C 
ATOM     22  O   UNL     1       1.760  13.341  18.078  0.00  0.00    +0.000 OA
ATOM     23  H   UNL     1       3.044  13.767  20.957  0.00  0.00    +0.000 HD
BRANCH  20  25
ATOM     24  C   UNL     1       4.781  15.518  20.289  0.00  0.00    +0.000 C 
ATOM     25  C   UNL     1       3.734  14.965  19.309  0.00  0.00    +0.000 C 
ATOM     26  C   UNL     1       2.831  16.109  18.813  0.00  0.00    +0.000 C 
ATOM     27  C   UNL     1       4.511  14.417  18.085  0.00  0.00    +0.000 C 
ENDBRANCH  20  25
ENDBRANCH  13  21
ENDBRANCH   1  13
BRANCH   2  28
ATOM     28  C   UNL     1      -1.496  12.304  18.496  0.00  0.00    +0.000 C 
BRANCH  28  29
ATOM     29  C   UNL     1      -2.915  12.172  18.976  0.00  0.00    +0.000 A 
ATOM     30  C   UNL     1      -3.321  12.704  20.204  0.00  0.00    +0.000 A 
ATOM     31  C   UNL     1      -4.636  12.538  20.630  0.00  0.00    +0.000 A 
ATOM     32  C   UNL     1      -5.518  11.876  19.794  0.00  0.00    +0.000 A 
ATOM     33  N   UNL     1      -5.178  11.394  18.580  0.00  0.00    +0.000 NA
ATOM     34  C   UNL     1      -3.890  11.553  18.198  0.00  0.00    +0.000 A 
ENDBRANCH  28  29
ENDBRANCH   2  28
TORSDOF 9
ENDMDL
MODEL 7
REMARK VINA RESULT:      -6.7      0.851      1.661
REMARK  Name = 
REMARK  12 active torsions:
REMARK  status: ('A' for Active; 'I' for Inactive)
REMARK    1  A    between atoms: C_1  and  C_2
REMARK    2  A    between atoms: C_2  and  C_3
REMARK    3  A    between atoms: C_2  and  C_4
REMARK    4  A    between atoms: C_2  and  N_5
REMARK    5  A    between atoms: C_6  and  C_8
REMARK    6  A    between atoms: C_8  and  C_9
REMARK    7  A    between atoms: C_8  and  N_15
REMARK    8  A    between atoms: N_15  and  C_25
REMARK    9  A    between atoms: C_16  and  C_18
REMARK   10  A    between atoms: C_18  and  C_19
REMARK   11  A    between atoms: C_28  and  O_29
REMARK   12  A    between atoms: O_29  and  C_30
REMARK                            x       y       z     vdW  Elec       q    Type
REMARK                         _______ _______ _______ _____ _____    ______ ____
ROOT
ATOM      1  N   UNL     1       0.574  10.998  19.182  0.00  0.00    +0.000 N 
ATOM      2  C   UNL     1      -0.581  11.009  18.374  0.00  0.00    +0.000 C 
ATOM      3  O   UNL     1      -0.909  10.038  17.691  0.00  0.00    +0.000 OA
ENDROOT
BRANCH   1   4
ATOM      4  C   UNL     1       1.243   9.743  19.233  0.00  0.00    +0.000 A 
ATOM      5  C   UNL     1       1.885   9.233  18.106  0.00  0.00    +0.000 A 
ATOM      6  C   UNL     1       2.416   7.936  18.140  0.00  0.00    +0.000 A 
ATOM      7  C   UNL     1       2.362   7.169  19.308  0.00  0.00    +0.000 A 
ATOM      8  C   UNL     1       1.678   7.667  20.416  0.00  0.00    +0.000 A 
ATOM      9  C   UNL     1       1.079   8.926  20.358  0.00  0.00    +0.000 A 
BRANCH   7  10
ATOM     10  O   UNL     1       2.946   5.937  19.239  0.00  0.00    +0.000 OA
BRANCH  10  11
ATOM     11  C   UNL     1       2.061   4.830  19.385  0.00  0.00    +0.000 C 
ATOM     12  F   UNL     1       1.485   4.578  18.182  0.00  0.00    +0.000 F 
ENDBRANCH  10  11
ENDBRANCH   7  10
ENDBRANCH   1   4
BRANCH   1  13
ATOM     13  C   UNL     1       1.045  12.098  20.092  0.00  0.00    +0.000 C 
BRANCH  13  14
ATOM     14  C   UNL     1       0.029  12.560  21.162  0.00  0.00    +0.000 A 
ATOM     15  C   UNL     1      -0.580  11.655  22.045  0.00  0.00    +0.000 A 
ATOM     16  C   UNL     1      -1.348  12.108  23.118  0.00  0.00    +0.000 A 
ATOM     17  C   UNL     1      -1.488  13.476  23.307  0.00  0.00    +0.000 A 
ATOM     18  N   UNL     1      -0.937  14.386  22.480  0.00  0.00    +0.000 NA
ATOM     19  C   UNL     1      -0.195  13.912  21.447  0.00  0.00    +0.000 A 
ENDBRANCH  13  14
BRANCH  13  21
ATOM     20  N   UNL     1       2.999  13.805  20.149  0.00  0.00    +0.000 N 
ATOM     21  C   UNL     1       1.878  13.306  19.499  0.00  0.00    +0.000 C 
ATOM     22  O   UNL     1       1.613  13.670  18.343  0.00  0.00    +0.000 OA
ATOM     23  H   UNL     1       3.200  13.499  21.093  0.00  0.00    +0.000 HD
BRANCH  20  25
ATOM     24  C   UNL     1       5.139  15.038  20.436  0.00  0.00    +0.000 C 
ATOM     25  C   UNL     1       3.888  14.845  19.564  0.00  0.00    +0.000 C 
ATOM     26  C   UNL     1       3.133  16.180  19.434  0.00  0.00    +0.000 C 
ATOM     27  C   UNL     1       4.386  14.448  18.150  0.00  0.00    +0.000 C 
ENDBRANCH  20  25
ENDBRANCH  13  21
ENDBRANCH   1  13
BRANCH   2  28
ATOM     28  C   UNL     1      -1.457  12.256  18.282  0.00  0.00    +0.000 C 
BRANCH  28  29
ATOM     29  C   UNL     1      -2.895  12.049  18.671  0.00  0.00    +0.000 A 
ATOM     30  C   UNL     1      -3.404  12.554  19.872  0.00  0.00    +0.000 A 
ATOM     31  C   UNL     1      -4.733  12.319  20.214  0.00  0.00    +0.000 A 
ATOM     32  C   UNL     1      -5.526  11.619  19.321  0.00  0.00    +0.000 A 
ATOM     33  N   UNL     1      -5.087  11.162  18.130  0.00  0.00    +0.000 NA
ATOM     34  C   UNL     1      -3.787  11.387  17.831  0.00  0.00    +0.000 A 
ENDBRANCH  28  29
ENDBRANCH   2  28
TORSDOF 9
ENDMDL
MODEL 8
REMARK VINA RESULT:      -6.6      1.098      1.483
REMARK  Name = 
REMARK  12 active torsions:
REMARK  status: ('A' for Active; 'I' for Inactive)
REMARK    1  A    between atoms: C_1  and  C_2
REMARK    2  A    between atoms: C_2  and  C_3
REMARK    3  A    between atoms: C_2  and  C_4
REMARK    4  A    between atoms: C_2  and  N_5
REMARK    5  A    between atoms: C_6  and  C_8
REMARK    6  A    between atoms: C_8  and  C_9
REMARK    7  A    between atoms: C_8  and  N_15
REMARK    8  A    between atoms: N_15  and  C_25
REMARK    9  A    between atoms: C_16  and  C_18
REMARK   10  A    between atoms: C_18  and  C_19
REMARK   11  A    between atoms: C_28  and  O_29
REMARK   12  A    between atoms: O_29  and  C_30
REMARK                            x       y       z     vdW  Elec       q    Type
REMARK                         _______ _______ _______ _____ _____    ______ ____
ROOT
ATOM      1  N   UNL     1       0.353  10.856  19.574  0.00  0.00    +0.000 N 
ATOM      2  C   UNL     1      -0.789  11.048  18.770  0.00  0.00    +0.000 C 
ATOM      3  O   UNL     1      -1.140  10.223  17.927  0.00  0.00    +0.000 OA
ENDROOT
BRANCH   1   4
ATOM      4  C   UNL     1       0.978   9.587  19.412  0.00  0.00    +0.000 A 
ATOM      5  C   UNL     1       1.060   8.693  20.477  0.00  0.00    +0.000 A 
ATOM      6  C   UNL     1       1.800   7.511  20.334  0.00  0.00    +0.000 A 
ATOM      7  C   UNL     1       2.409   7.189  19.117  0.00  0.00    +0.000 A 
ATOM      8  C   UNL     1       2.361   8.109  18.070  0.00  0.00    +0.000 A 
ATOM      9  C   UNL     1       1.692   9.323  18.238  0.00  0.00    +0.000 A 
BRANCH   7  10
ATOM     10  O   UNL     1       3.069   5.995  19.078  0.00  0.00    +0.000 OA
BRANCH  10  11
ATOM     11  C   UNL     1       3.257   5.441  17.779  0.00  0.00    +0.000 C 
ATOM     12  F   UNL     1       2.151   4.726  17.451  0.00  0.00    +0.000 F 
ENDBRANCH  10  11
ENDBRANCH   7  10
ENDBRANCH   1   4
BRANCH   1  13
ATOM     13  C   UNL     1       0.849  11.763  20.666  0.00  0.00    +0.000 C 
BRANCH  13  14
ATOM     14  C   UNL     1      -0.179  12.102  21.770  0.00  0.00    +0.000 A 
ATOM     15  C   UNL     1      -0.482  13.427  22.120  0.00  0.00    +0.000 A 
ATOM     16  C   UNL     1      -1.540  13.716  22.982  0.00  0.00    +0.000 A 
ATOM     17  C   UNL     1      -2.302  12.667  23.478  0.00  0.00    +0.000 A 
ATOM     18  N   UNL     1      -2.044  11.378  23.184  0.00  0.00    +0.000 NA
ATOM     19  C   UNL     1      -1.010  11.131  22.342  0.00  0.00    +0.000 A 
ENDBRANCH  13  14
BRANCH  13  21
ATOM     20  N   UNL     1       1.393  13.919  19.327  0.00  0.00    +0.000 N 
ATOM     21  C   UNL     1       1.764  13.002  20.302  0.00  0.00    +0.000 C 
ATOM     22  O   UNL     1       2.731  13.236  21.045  0.00  0.00    +0.000 OA
ATOM     23  H   UNL     1       0.603  13.712  18.728  0.00  0.00    +0.000 HD
BRANCH  20  25
ATOM     24  C   UNL     1       1.224  16.244  18.463  0.00  0.00    +0.000 C 
ATOM     25  C   UNL     1       2.152  15.168  19.049  0.00  0.00    +0.000 C 
ATOM     26  C   UNL     1       3.304  14.883  18.067  0.00  0.00    +0.000 C 
ATOM     27  C   UNL     1       2.773  15.765  20.337  0.00  0.00    +0.000 C 
ENDBRANCH  20  25
ENDBRANCH  13  21
ENDBRANCH   1  13
BRANCH   2  28
ATOM     28  C   UNL     1      -1.620  12.323  18.889  0.00  0.00    +0.000 C 
BRANCH  28  29
ATOM     29  C   UNL     1      -3.100  12.102  19.045  0.00  0.00    +0.000 A 
ATOM     30  C   UNL     1      -3.810  12.658  20.114  0.00  0.00    +0.000 A 
ATOM     31  C   UNL     1      -5.174  12.409  20.242  0.00  0.00    +0.000 A 
ATOM     32  C   UNL     1      -5.795  11.641  19.273  0.00  0.00    +0.000 A 
ATOM     33  N   UNL     1      -5.155  11.131  18.200  0.00  0.00    +0.000 NA
ATOM     34  C   UNL     1      -3.828  11.373  18.108  0.00  0.00    +0.000 A 
ENDBRANCH  28  29
ENDBRANCH   2  28
TORSDOF 9
ENDMDL
MODEL 9
REMARK VINA RESULT:      -6.6      1.010      1.495
REMARK  Name = 
REMARK  12 active torsions:
REMARK  status: ('A' for Active; 'I' for Inactive)
REMARK    1  A    between atoms: C_1  and  C_2
REMARK    2  A    between atoms: C_2  and  C_3
REMARK    3  A    between atoms: C_2  and  C_4
REMARK    4  A    between atoms: C_2  and  N_5
REMARK    5  A    between atoms: C_6  and  C_8
REMARK    6  A    between atoms: C_8  and  C_9
REMARK    7  A    between atoms: C_8  and  N_15
REMARK    8  A    between atoms: N_15  and  C_25
REMARK    9  A    between atoms: C_16  and  C_18
REMARK   10  A    between atoms: C_18  and  C_19
REMARK   11  A    between atoms: C_28  and  O_29
REMARK   12  A    between atoms: O_29  and  C_30
REMARK                            x       y       z     vdW  Elec       q    Type
REMARK                         _______ _______ _______ _____ _____    ______ ____
ROOT
ATOM      1  N   UNL     1       0.406  10.861  19.434  0.00  0.00    +0.000 N 
ATOM      2  C   UNL     1      -0.682  11.057  18.560  0.00  0.00    +0.000 C 
ATOM      3  O   UNL     1      -0.976  10.237  17.689  0.00  0.00    +0.000 OA
ENDROOT
BRANCH   1   4
ATOM      4  C   UNL     1       1.044   9.595  19.303  0.00  0.00    +0.000 A 
ATOM      5  C   UNL     1       1.098   8.712  20.379  0.00  0.00    +0.000 A 
ATOM      6  C   UNL     1       1.849   7.533  20.270  0.00  0.00    +0.000 A 
ATOM      7  C   UNL     1       2.497   7.203  19.075  0.00  0.00    +0.000 A 
ATOM      8  C   UNL     1       2.476   8.113  18.018  0.00  0.00    +0.000 A 
ATOM      9  C   UNL     1       1.795   9.324  18.154  0.00  0.00    +0.000 A 
BRANCH   7  10
ATOM     10  O   UNL     1       3.165   6.013  19.068  0.00  0.00    +0.000 OA
BRANCH  10  11
ATOM     11  C   UNL     1       2.355   4.857  18.881  0.00  0.00    +0.000 C 
ATOM     12  F   UNL     1       1.707   4.971  17.695  0.00  0.00    +0.000 F 
ENDBRANCH  10  11
ENDBRANCH   7  10
ENDBRANCH   1   4
BRANCH   1  13
ATOM     13  C   UNL     1       0.829  11.762  20.561  0.00  0.00    +0.000 C 
BRANCH  13  14
ATOM     14  C   UNL     1      -0.288  12.151  21.557  0.00  0.00    +0.000 A 
ATOM     15  C   UNL     1      -1.055  11.184  22.226  0.00  0.00    +0.000 A 
ATOM     16  C   UNL     1      -1.927  11.547  23.253  0.00  0.00    +0.000 A 
ATOM     17  C   UNL     1      -2.012  12.884  23.615  0.00  0.00    +0.000 A 
ATOM     18  N   UNL     1      -1.309  13.852  22.996  0.00  0.00    +0.000 NA
ATOM     19  C   UNL     1      -0.469  13.466  22.002  0.00  0.00    +0.000 A 
ENDBRANCH  13  14
BRANCH  13  21
ATOM     20  N   UNL     1       1.511  13.965  19.372  0.00  0.00    +0.000 N 
ATOM     21  C   UNL     1       1.822  12.961  20.279  0.00  0.00    +0.000 C 
ATOM     22  O   UNL     1       2.803  13.079  21.031  0.00  0.00    +0.000 OA
ATOM     23  H   UNL     1       0.708  13.852  18.765  0.00  0.00    +0.000 HD
BRANCH  20  25
ATOM     24  C   UNL     1       2.750  15.782  20.532  0.00  0.00    +0.000 C 
ATOM     25  C   UNL     1       2.350  15.178  19.177  0.00  0.00    +0.000 C 
ATOM     26  C   UNL     1       1.586  16.226  18.346  0.00  0.00    +0.000 C 
ATOM     27  C   UNL     1       3.667  14.854  18.426  0.00  0.00    +0.000 C 
ENDBRANCH  20  25
ENDBRANCH  13  21
ENDBRANCH   1  13
BRANCH   2  28
ATOM     28  C   UNL     1      -1.522  12.329  18.633  0.00  0.00    +0.000 C 
BRANCH  28  29
ATOM     29  C   UNL     1      -2.995  12.104  18.835  0.00  0.00    +0.000 A 
ATOM     30  C   UNL     1      -3.762  11.411  17.892  0.00  0.00    +0.000 A 
ATOM     31  C   UNL     1      -5.129  11.246  18.098  0.00  0.00    +0.000 A 
ATOM     32  C   UNL     1      -5.682  11.745  19.264  0.00  0.00    +0.000 A 
ATOM     33  N   UNL     1      -4.967  12.373  20.221  0.00  0.00    +0.000 NA
ATOM     34  C   UNL     1      -3.645  12.536  19.989  0.00  0.00    +0.000 A 
ENDBRANCH  28  29
ENDBRANCH   2  28
TORSDOF 9
ENDMDL
