MODEL 1
REMARK VINA RESULT:      -6.7      0.000      0.000
REMARK  Name = 
REMARK  22 active torsions:
REMARK  status: ('A' for Active; 'I' for Inactive)
REMARK    1  A    between atoms: C_1  and  C_2
REMARK    2  A    between atoms: N_6  and  C_7
REMARK    3  A    between atoms: C_7  and  C_8
REMARK    4  A    between atoms: C_8  and  C_9
REMARK    5  A    between atoms: C_9  and  N_10
REMARK    6  A    between atoms: N_10  and  C_11
REMARK    7  A    between atoms: N_10  and  C_12
REMARK    8  A    between atoms: N_10  and  C_13
REMARK    9  A    between atoms: C_13  and  C_14
REMARK   10  A    between atoms: C_14  and  C_15
REMARK   11  A    between atoms: C_15  and  C_16
REMARK   12  A    between atoms: C_16  and  C_17
REMARK   13  A    between atoms: C_17  and  C_18
REMARK   14  A    between atoms: C_18  and  C_19
REMARK   15  A    between atoms: C_19  and  N_20
REMARK   16  A    between atoms: N_20  and  C_21
REMARK   17  A    between atoms: N_20  and  C_22
REMARK   18  A    between atoms: N_20  and  C_23
REMARK   19  A    between atoms: C_23  and  C_24
REMARK   20  A    between atoms: C_24  and  C_25
REMARK   21  A    between atoms: C_25  and  N_26
REMARK   22  A    between atoms: C_30  and  C_31
REMARK                            x       y       z     vdW  Elec       q    Type
REMARK                         _______ _______ _______ _____ _____    ______ ____
ROOT
ATOM      1  C   UNL     1       8.870   9.356  18.541  0.00  0.00    +0.000 C 
ENDROOT
BRANCH   1   2
ATOM      2  C   UNL     1       7.737   8.760  17.697  0.00  0.00    +0.000 C 
BRANCH   2   3
ATOM      3  C   UNL     1       7.649   7.231  17.762  0.00  0.00    +0.000 C 
BRANCH   3   4
ATOM      4  C   UNL     1       6.197   6.751  17.666  0.00  0.00    +0.000 C 
BRANCH   4   5
ATOM      5  N   UNL     1       6.024   5.362  17.018  0.00  0.00    +0.000 N 
ATOM      6  C   UNL     1       5.488   5.517  15.594  0.00  0.00    +0.000 C 
ATOM      7  C   UNL     1       7.352   4.609  17.005  0.00  0.00    +0.000 C 
BRANCH   5   8
ATOM      8  C   UNL     1       5.004   4.596  17.913  0.00  0.00    +0.000 C 
BRANCH   8   9
ATOM      9  C   UNL     1       4.227   3.528  17.153  0.00  0.00    +0.000 C 
BRANCH   9  10
ATOM     10  C   UNL     1       2.727   3.781  17.235  0.00  0.00    +0.000 C 
BRANCH  10  11
ATOM     11  N   UNL     1       2.313   3.994  18.606  0.00  0.00    +0.000 N 
ATOM     12  C   UNL     1       2.122   5.234  19.136  0.00  0.00    +0.000 C 
ATOM     13  O   UNL     1       2.192   6.289  18.522  0.00  0.00    +0.000 OA
ATOM     14  C   UNL     1       1.774   5.082  20.585  0.00  0.00    +0.000 C 
ATOM     15  C   UNL     1       1.317   3.627  20.690  0.00  0.00    +0.000 C 
ATOM     16  C   UNL     1       1.971   2.875  21.834  0.00  0.00    +0.000 C 
ATOM     17  C   UNL     1       1.728   3.026  19.369  0.00  0.00    +0.000 C 
ATOM     18  O   UNL     1       1.494   1.881  19.008  0.00  0.00    +0.000 OA
ENDBRANCH  10  11
ENDBRANCH   9  10
ENDBRANCH   8   9
ENDBRANCH   5   8
ENDBRANCH   4   5
ENDBRANCH   3   4
ENDBRANCH   2   3
ENDBRANCH   1   2
BRANCH   1  19
ATOM     19  C   UNL     1       8.908  10.889  18.555  0.00  0.00    +0.000 C 
BRANCH  19  20
ATOM     20  C   UNL     1       9.534  11.489  19.820  0.00  0.00    +0.000 C 
BRANCH  20  21
ATOM     21  C   UNL     1       9.310  13.004  19.890  0.00  0.00    +0.000 C 
BRANCH  21  22
ATOM     22  N   UNL     1       9.079  13.549  21.305  0.00  0.00    +0.000 N 
ATOM     23  C   UNL     1      10.169  14.556  21.684  0.00  0.00    +0.000 C 
ATOM     24  C   UNL     1       9.031  12.413  22.319  0.00  0.00    +0.000 C 
BRANCH  22  25
ATOM     25  C   UNL     1       7.683  14.266  21.257  0.00  0.00    +0.000 C 
BRANCH  25  26
ATOM     26  C   UNL     1       6.723  13.800  22.340  0.00  0.00    +0.000 C 
BRANCH  26  27
ATOM     27  C   UNL     1       6.604  14.829  23.466  0.00  0.00    +0.000 C 
BRANCH  27  33
ATOM     28  C   UNL     1       6.815  12.161  27.565  0.00  0.00    +0.000 C 
ATOM     29  C   UNL     1       7.028  13.521  26.930  0.00  0.00    +0.000 C 
ATOM     30  C   UNL     1       8.471  13.777  26.507  0.00  0.00    +0.000 C 
ATOM     31  C   UNL     1       8.306  14.574  25.248  0.00  0.00    +0.000 C 
ATOM     32  O   UNL     1       9.107  15.375  24.791  0.00  0.00    +0.000 OA
ATOM     33  N   UNL     1       7.085  14.274  24.717  0.00  0.00    +0.000 N 
ATOM     34  C   UNL     1       6.253  13.720  25.648  0.00  0.00    +0.000 C 
ATOM     35  O   UNL     1       5.047  13.590  25.501  0.00  0.00    +0.000 OA
ENDBRANCH  27  33
ENDBRANCH  26  27
ENDBRANCH  25  26
ENDBRANCH  22  25
ENDBRANCH  21  22
ENDBRANCH  20  21
ENDBRANCH  19  20
ENDBRANCH   1  19
TORSDOF 16
ENDMDL
MODEL 2
REMARK VINA RESULT:      -6.6      3.668      4.394
REMARK  Name = 
REMARK  22 active torsions:
REMARK  status: ('A' for Active; 'I' for Inactive)
REMARK    1  A    between atoms: C_1  and  C_2
REMARK    2  A    between atoms: N_6  and  C_7
REMARK    3  A    between atoms: C_7  and  C_8
REMARK    4  A    between atoms: C_8  and  C_9
REMARK    5  A    between atoms: C_9  and  N_10
REMARK    6  A    between atoms: N_10  and  C_11
REMARK    7  A    between atoms: N_10  and  C_12
REMARK    8  A    between atoms: N_10  and  C_13
REMARK    9  A    between atoms: C_13  and  C_14
REMARK   10  A    between atoms: C_14  and  C_15
REMARK   11  A    between atoms: C_15  and  C_16
REMARK   12  A    between atoms: C_16  and  C_17
REMARK   13  A    between atoms: C_17  and  C_18
REMARK   14  A    between atoms: C_18  and  C_19
REMARK   15  A    between atoms: C_19  and  N_20
REMARK   16  A    between atoms: N_20  and  C_21
REMARK   17  A    between atoms: N_20  and  C_22
REMARK   18  A    between atoms: N_20  and  C_23
REMARK   19  A    between atoms: C_23  and  C_24
REMARK   20  A    between atoms: C_24  and  C_25
REMARK   21  A    between atoms: C_25  and  N_26
REMARK   22  A    between atoms: C_30  and  C_31
REMARK                            x       y       z     vdW  Elec       q    Type
REMARK                         _______ _______ _______ _____ _____    ______ ____
ROOT
ATOM      1  C   UNL     1       7.932   9.873  18.260  0.00  0.00    +0.000 C 
ENDROOT
BRANCH   1   2
ATOM      2  C   UNL     1       8.576   8.525  17.912  0.00  0.00    +0.000 C 
BRANCH   2   3
ATOM      3  C   UNL     1       7.673   7.315  18.177  0.00  0.00    +0.000 C 
BRANCH   3   4
ATOM      4  C   UNL     1       6.756   7.031  16.983  0.00  0.00    +0.000 C 
BRANCH   4   5
ATOM      5  N   UNL     1       6.351   5.552  16.824  0.00  0.00    +0.000 N 
ATOM      6  C   UNL     1       6.839   5.023  15.475  0.00  0.00    +0.000 C 
ATOM      7  C   UNL     1       6.929   4.715  17.962  0.00  0.00    +0.000 C 
BRANCH   5   8
ATOM      8  C   UNL     1       4.794   5.524  16.900  0.00  0.00    +0.000 C 
BRANCH   8   9
ATOM      9  C   UNL     1       4.249   6.148  18.179  0.00  0.00    +0.000 C 
BRANCH   9  10
ATOM     10  C   UNL     1       2.728   6.220  18.145  0.00  0.00    +0.000 C 
BRANCH  10  11
ATOM     11  N   UNL     1       2.142   5.132  18.899  0.00  0.00    +0.000 N 
ATOM     12  C   UNL     1       1.696   5.277  20.178  0.00  0.00    +0.000 C 
ATOM     13  O   UNL     1       1.657   6.326  20.805  0.00  0.00    +0.000 OA
ATOM     14  C   UNL     1       1.226   3.942  20.670  0.00  0.00    +0.000 C 
ATOM     15  C   UNL     1       1.005   3.147  19.384  0.00  0.00    +0.000 C 
ATOM     16  C   UNL     1       1.648   1.774  19.410  0.00  0.00    +0.000 C 
ATOM     17  C   UNL     1       1.646   4.002  18.319  0.00  0.00    +0.000 C 
ATOM     18  O   UNL     1       1.642   3.762  17.119  0.00  0.00    +0.000 OA
ENDBRANCH  10  11
ENDBRANCH   9  10
ENDBRANCH   8   9
ENDBRANCH   5   8
ENDBRANCH   4   5
ENDBRANCH   3   4
ENDBRANCH   2   3
ENDBRANCH   1   2
BRANCH   1  19
ATOM     19  C   UNL     1       8.698  11.093  17.734  0.00  0.00    +0.000 C 
BRANCH  19  20
ATOM     20  C   UNL     1       9.922  11.474  18.574  0.00  0.00    +0.000 C 
BRANCH  20  21
ATOM     21  C   UNL     1       9.680  12.767  19.363  0.00  0.00    +0.000 C 
BRANCH  21  22
ATOM     22  N   UNL     1      10.947  13.575  19.668  0.00  0.00    +0.000 N 
ATOM     23  C   UNL     1      12.161  12.651  19.803  0.00  0.00    +0.000 C 
ATOM     24  C   UNL     1      10.766  14.402  20.934  0.00  0.00    +0.000 C 
BRANCH  22  25
ATOM     25  C   UNL     1      11.139  14.534  18.440  0.00  0.00    +0.000 C 
BRANCH  25  26
ATOM     26  C   UNL     1      10.398  15.855  18.579  0.00  0.00    +0.000 C 
BRANCH  26  27
ATOM     27  C   UNL     1       9.282  15.984  17.540  0.00  0.00    +0.000 C 
BRANCH  27  33
ATOM     28  C   UNL     1       4.912  15.054  19.540  0.00  0.00    +0.000 C 
ATOM     29  C   UNL     1       5.715  15.950  18.619  0.00  0.00    +0.000 C 
ATOM     30  C   UNL     1       6.243  17.209  19.300  0.00  0.00    +0.000 C 
ATOM     31  C   UNL     1       7.577  17.402  18.644  0.00  0.00    +0.000 C 
ATOM     32  O   UNL     1       8.167  18.462  18.509  0.00  0.00    +0.000 OA
ATOM     33  N   UNL     1       8.001  16.186  18.191  0.00  0.00    +0.000 N 
ATOM     34  C   UNL     1       6.968  15.300  18.080  0.00  0.00    +0.000 C 
ATOM     35  O   UNL     1       7.033  14.240  17.475  0.00  0.00    +0.000 OA
ENDBRANCH  27  33
ENDBRANCH  26  27
ENDBRANCH  25  26
ENDBRANCH  22  25
ENDBRANCH  21  22
ENDBRANCH  20  21
ENDBRANCH  19  20
ENDBRANCH   1  19
TORSDOF 16
ENDMDL
MODEL 3
REMARK VINA RESULT:      -6.6      5.950     10.868
REMARK  Name = 
REMARK  22 active torsions:
REMARK  status: ('A' for Active; 'I' for Inactive)
REMARK    1  A    between atoms: C_1  and  C_2
REMARK    2  A    between atoms: N_6  and  C_7
REMARK    3  A    between atoms: C_7  and  C_8
REMARK    4  A    between atoms: C_8  and  C_9
REMARK    5  A    between atoms: C_9  and  N_10
REMARK    6  A    between atoms: N_10  and  C_11
REMARK    7  A    between atoms: N_10  and  C_12
REMARK    8  A    between atoms: N_10  and  C_13
REMARK    9  A    between atoms: C_13  and  C_14
REMARK   10  A    between atoms: C_14  and  C_15
REMARK   11  A    between atoms: C_15  and  C_16
REMARK   12  A    between atoms: C_16  and  C_17
REMARK   13  A    between atoms: C_17  and  C_18
REMARK   14  A    between atoms: C_18  and  C_19
REMARK   15  A    between atoms: C_19  and  N_20
REMARK   16  A    between atoms: N_20  and  C_21
REMARK   17  A    between atoms: N_20  and  C_22
REMARK   18  A    between atoms: N_20  and  C_23
REMARK   19  A    between atoms: C_23  and  C_24
REMARK   20  A    between atoms: C_24  and  C_25
REMARK   21  A    between atoms: C_25  and  N_26
REMARK   22  A    between atoms: C_30  and  C_31
REMARK                            x       y       z     vdW  Elec       q    Type
REMARK                         _______ _______ _______ _____ _____    ______ ____
ROOT
ATOM      1  C   UNL     1       1.849   7.759  18.037  0.00  0.00    +0.000 C 
ENDROOT
BRANCH   1   2
ATOM      2  C   UNL     1       2.163   9.245  17.823  0.00  0.00    +0.000 C 
BRANCH   2   3
ATOM      3  C   UNL     1       1.514  10.174  18.854  0.00  0.00    +0.000 C 
BRANCH   3   4
ATOM      4  C   UNL     1       0.315   9.505  19.532  0.00  0.00    +0.000 C 
BRANCH   4   5
ATOM      5  N   UNL     1       0.314   9.600  21.072  0.00  0.00    +0.000 N 
ATOM      6  C   UNL     1      -0.615   8.536  21.657  0.00  0.00    +0.000 C 
ATOM      7  C   UNL     1       1.729   9.427  21.618  0.00  0.00    +0.000 C 
BRANCH   5   8
ATOM      8  C   UNL     1      -0.200  11.032  21.411  0.00  0.00    +0.000 C 
BRANCH   8   9
ATOM      9  C   UNL     1      -0.924  11.103  22.750  0.00  0.00    +0.000 C 
BRANCH   9  10
ATOM     10  C   UNL     1      -1.410  12.520  23.033  0.00  0.00    +0.000 C 
BRANCH  10  11
ATOM     11  N   UNL     1      -2.737  12.729  22.493  0.00  0.00    +0.000 N 
ATOM     12  C   UNL     1      -3.864  12.646  23.253  0.00  0.00    +0.000 C 
ATOM     13  O   UNL     1      -3.896  12.472  24.463  0.00  0.00    +0.000 OA
ATOM     14  C   UNL     1      -5.052  12.842  22.362  0.00  0.00    +0.000 C 
ATOM     15  C   UNL     1      -4.461  13.522  21.127  0.00  0.00    +0.000 C 
ATOM     16  C   UNL     1      -4.891  12.874  19.824  0.00  0.00    +0.000 C 
ATOM     17  C   UNL     1      -2.971  13.375  21.314  0.00  0.00    +0.000 C 
ATOM     18  O   UNL     1      -2.115  13.838  20.574  0.00  0.00    +0.000 OA
ENDBRANCH  10  11
ENDBRANCH   9  10
ENDBRANCH   8   9
ENDBRANCH   5   8
ENDBRANCH   4   5
ENDBRANCH   3   4
ENDBRANCH   2   3
ENDBRANCH   1   2
BRANCH   1  19
ATOM     19  C   UNL     1       3.076   6.890  18.339  0.00  0.00    +0.000 C 
BRANCH  19  20
ATOM     20  C   UNL     1       4.391   7.448  17.783  0.00  0.00    +0.000 C 
BRANCH  20  21
ATOM     21  C   UNL     1       4.855   6.663  16.550  0.00  0.00    +0.000 C 
BRANCH  21  22
ATOM     22  N   UNL     1       6.072   5.762  16.789  0.00  0.00    +0.000 N 
ATOM     23  C   UNL     1       7.064   6.429  17.746  0.00  0.00    +0.000 C 
ATOM     24  C   UNL     1       6.756   5.419  15.471  0.00  0.00    +0.000 C 
BRANCH  22  25
ATOM     25  C   UNL     1       5.503   4.450  17.438  0.00  0.00    +0.000 C 
BRANCH  25  26
ATOM     26  C   UNL     1       4.310   3.872  16.694  0.00  0.00    +0.000 C 
BRANCH  26  27
ATOM     27  C   UNL     1       3.754   2.634  17.402  0.00  0.00    +0.000 C 
BRANCH  27  33
ATOM     28  C   UNL     1       2.242   3.462  21.983  0.00  0.00    +0.000 C 
ATOM     29  C   UNL     1       1.892   2.902  20.619  0.00  0.00    +0.000 C 
ATOM     30  C   UNL     1       1.138   3.887  19.731  0.00  0.00    +0.000 C 
ATOM     31  C   UNL     1       1.675   3.574  18.366  0.00  0.00    +0.000 C 
ATOM     32  O   UNL     1       1.097   3.754  17.306  0.00  0.00    +0.000 OA
ATOM     33  N   UNL     1       2.913   3.021  18.519  0.00  0.00    +0.000 N 
ATOM     34  C   UNL     1       3.099   2.540  19.784  0.00  0.00    +0.000 C 
ATOM     35  O   UNL     1       4.007   1.790  20.108  0.00  0.00    +0.000 OA
ENDBRANCH  27  33
ENDBRANCH  26  27
ENDBRANCH  25  26
ENDBRANCH  22  25
ENDBRANCH  21  22
ENDBRANCH  20  21
ENDBRANCH  19  20
ENDBRANCH   1  19
TORSDOF 16
ENDMDL
MODEL 4
REMARK VINA RESULT:      -6.6      6.327      8.172
REMARK  Name = 
REMARK  22 active torsions:
REMARK  status: ('A' for Active; 'I' for Inactive)
REMARK    1  A    between atoms: C_1  and  C_2
REMARK    2  A    between atoms: N_6  and  C_7
REMARK    3  A    between atoms: C_7  and  C_8
REMARK    4  A    between atoms: C_8  and  C_9
REMARK    5  A    between atoms: C_9  and  N_10
REMARK    6  A    between atoms: N_10  and  C_11
REMARK    7  A    between atoms: N_10  and  C_12
REMARK    8  A    between atoms: N_10  and  C_13
REMARK    9  A    between atoms: C_13  and  C_14
REMARK   10  A    between atoms: C_14  and  C_15
REMARK   11  A    between atoms: C_15  and  C_16
REMARK   12  A    between atoms: C_16  and  C_17
REMARK   13  A    between atoms: C_17  and  C_18
REMARK   14  A    between atoms: C_18  and  C_19
REMARK   15  A    between atoms: C_19  and  N_20
REMARK   16  A    between atoms: N_20  and  C_21
REMARK   17  A    between atoms: N_20  and  C_22
REMARK   18  A    between atoms: N_20  and  C_23
REMARK   19  A    between atoms: C_23  and  C_24
REMARK   20  A    between atoms: C_24  and  C_25
REMARK   21  A    between atoms: C_25  and  N_26
REMARK   22  A    between atoms: C_30  and  C_31
REMARK                            x       y       z     vdW  Elec       q    Type
REMARK                         _______ _______ _______ _____ _____    ______ ____
ROOT
ATOM      1  C   UNL     1       2.208   7.069  19.801  0.00  0.00    +0.000 C 
ENDROOT
BRANCH   1   2
ATOM      2  C   UNL     1       2.123   6.514  18.374  0.00  0.00    +0.000 C 
BRANCH   2   3
ATOM      3  C   UNL     1       1.734   5.034  18.302  0.00  0.00    +0.000 C 
BRANCH   3   4
ATOM      4  C   UNL     1       2.901   4.173  17.808  0.00  0.00    +0.000 C 
BRANCH   4   5
ATOM      5  N   UNL     1       3.433   3.160  18.843  0.00  0.00    +0.000 N 
ATOM      6  C   UNL     1       2.685   3.328  20.165  0.00  0.00    +0.000 C 
ATOM      7  C   UNL     1       3.276   1.733  18.322  0.00  0.00    +0.000 C 
BRANCH   5   8
ATOM      8  C   UNL     1       4.948   3.483  19.017  0.00  0.00    +0.000 C 
BRANCH   8   9
ATOM      9  C   UNL     1       5.202   4.902  19.513  0.00  0.00    +0.000 C 
BRANCH   9  10
ATOM     10  C   UNL     1       6.395   5.524  18.798  0.00  0.00    +0.000 C 
BRANCH  10  11
ATOM     11  N   UNL     1       6.208   5.501  17.363  0.00  0.00    +0.000 N 
ATOM     12  C   UNL     1       5.445   6.418  16.704  0.00  0.00    +0.000 C 
ATOM     13  O   UNL     1       4.907   7.392  17.209  0.00  0.00    +0.000 OA
ATOM     14  C   UNL     1       5.412   6.051  15.252  0.00  0.00    +0.000 C 
ATOM     15  C   UNL     1       6.619   5.126  15.092  0.00  0.00    +0.000 C 
ATOM     16  C   UNL     1       6.292   3.838  14.361  0.00  0.00    +0.000 C 
ATOM     17  C   UNL     1       7.035   4.830  16.511  0.00  0.00    +0.000 C 
ATOM     18  O   UNL     1       8.009   4.168  16.840  0.00  0.00    +0.000 OA
ENDBRANCH  10  11
ENDBRANCH   9  10
ENDBRANCH   8   9
ENDBRANCH   5   8
ENDBRANCH   4   5
ENDBRANCH   3   4
ENDBRANCH   2   3
ENDBRANCH   1   2
BRANCH   1  19
ATOM     19  C   UNL     1       1.771   8.532  19.938  0.00  0.00    +0.000 C 
BRANCH  19  20
ATOM     20  C   UNL     1       1.207   9.141  18.649  0.00  0.00    +0.000 C 
BRANCH  20  21
ATOM     21  C   UNL     1       1.320  10.670  18.657  0.00  0.00    +0.000 C 
BRANCH  21  22
ATOM     22  N   UNL     1       0.053  11.401  19.116  0.00  0.00    +0.000 N 
ATOM     23  C   UNL     1      -1.202  10.685  18.609  0.00  0.00    +0.000 C 
ATOM     24  C   UNL     1       0.065  12.850  18.643  0.00  0.00    +0.000 C 
BRANCH  22  25
ATOM     25  C   UNL     1       0.092  11.365  20.685  0.00  0.00    +0.000 C 
BRANCH  25  26
ATOM     26  C   UNL     1      -1.272  11.549  21.332  0.00  0.00    +0.000 C 
BRANCH  26  27
ATOM     27  C   UNL     1      -1.177  12.369  22.620  0.00  0.00    +0.000 C 
BRANCH  27  33
ATOM     28  C   UNL     1      -4.078  16.278  22.106  0.00  0.00    +0.000 C 
ATOM     29  C   UNL     1      -3.508  15.244  23.056  0.00  0.00    +0.000 C 
ATOM     30  C   UNL     1      -4.429  14.049  23.281  0.00  0.00    +0.000 C 
ATOM     31  C   UNL     1      -3.462  12.910  23.407  0.00  0.00    +0.000 C 
ATOM     32  O   UNL     1      -3.650  11.869  24.016  0.00  0.00    +0.000 OA
ATOM     33  N   UNL     1      -2.319  13.255  22.747  0.00  0.00    +0.000 N 
ATOM     34  C   UNL     1      -2.230  14.606  22.562  0.00  0.00    +0.000 C 
ATOM     35  O   UNL     1      -1.211  15.188  22.226  0.00  0.00    +0.000 OA
ENDBRANCH  27  33
ENDBRANCH  26  27
ENDBRANCH  25  26
ENDBRANCH  22  25
ENDBRANCH  21  22
ENDBRANCH  20  21
ENDBRANCH  19  20
ENDBRANCH   1  19
TORSDOF 16
ENDMDL
MODEL 5
REMARK VINA RESULT:      -6.6      1.975      2.833
REMARK  Name = 
REMARK  22 active torsions:
REMARK  status: ('A' for Active; 'I' for Inactive)
REMARK    1  A    between atoms: C_1  and  C_2
REMARK    2  A    between atoms: N_6  and  C_7
REMARK    3  A    between atoms: C_7  and  C_8
REMARK    4  A    between atoms: C_8  and  C_9
REMARK    5  A    between atoms: C_9  and  N_10
REMARK    6  A    between atoms: N_10  and  C_11
REMARK    7  A    between atoms: N_10  and  C_12
REMARK    8  A    between atoms: N_10  and  C_13
REMARK    9  A    between atoms: C_13  and  C_14
REMARK   10  A    between atoms: C_14  and  C_15
REMARK   11  A    between atoms: C_15  and  C_16
REMARK   12  A    between atoms: C_16  and  C_17
REMARK   13  A    between atoms: C_17  and  C_18
REMARK   14  A    between atoms: C_18  and  C_19
REMARK   15  A    between atoms: C_19  and  N_20
REMARK   16  A    between atoms: N_20  and  C_21
REMARK   17  A    between atoms: N_20  and  C_22
REMARK   18  A    between atoms: N_20  and  C_23
REMARK   19  A    between atoms: C_23  and  C_24
REMARK   20  A    between atoms: C_24  and  C_25
REMARK   21  A    between atoms: C_25  and  N_26
REMARK   22  A    between atoms: C_30  and  C_31
REMARK                            x       y       z     vdW  Elec       q    Type
REMARK                         _______ _______ _______ _____ _____    ______ ____
ROOT
ATOM      1  C   UNL     1       8.336   9.861  17.770  0.00  0.00    +0.000 C 
ENDROOT
BRANCH   1   2
ATOM      2  C   UNL     1       7.341   8.694  17.769  0.00  0.00    +0.000 C 
BRANCH   2   3
ATOM      3  C   UNL     1       8.001   7.312  17.814  0.00  0.00    +0.000 C 
BRANCH   3   4
ATOM      4  C   UNL     1       7.042   6.254  18.370  0.00  0.00    +0.000 C 
BRANCH   4   5
ATOM      5  N   UNL     1       6.179   5.547  17.304  0.00  0.00    +0.000 N 
ATOM      6  C   UNL     1       5.902   6.503  16.144  0.00  0.00    +0.000 C 
ATOM      7  C   UNL     1       6.881   4.289  16.798  0.00  0.00    +0.000 C 
BRANCH   5   8
ATOM      8  C   UNL     1       4.855   5.148  18.022  0.00  0.00    +0.000 C 
BRANCH   8   9
ATOM      9  C   UNL     1       4.048   6.351  18.496  0.00  0.00    +0.000 C 
BRANCH   9  10
ATOM     10  C   UNL     1       2.565   6.165  18.197  0.00  0.00    +0.000 C 
BRANCH  10  11
ATOM     11  N   UNL     1       2.024   5.049  18.943  0.00  0.00    +0.000 N 
ATOM     12  C   UNL     1       1.662   5.144  20.253  0.00  0.00    +0.000 C 
ATOM     13  O   UNL     1       1.669   6.167  20.922  0.00  0.00    +0.000 OA
ATOM     14  C   UNL     1       1.217   3.792  20.721  0.00  0.00    +0.000 C 
ATOM     15  C   UNL     1       0.909   3.050  19.421  0.00  0.00    +0.000 C 
ATOM     16  C   UNL     1       1.544   1.675  19.351  0.00  0.00    +0.000 C 
ATOM     17  C   UNL     1       1.484   3.945  18.351  0.00  0.00    +0.000 C 
ATOM     18  O   UNL     1       1.402   3.753  17.146  0.00  0.00    +0.000 OA
ENDBRANCH  10  11
ENDBRANCH   9  10
ENDBRANCH   8   9
ENDBRANCH   5   8
ENDBRANCH   4   5
ENDBRANCH   3   4
ENDBRANCH   2   3
ENDBRANCH   1   2
BRANCH   1  19
ATOM     19  C   UNL     1       9.086  10.051  19.094  0.00  0.00    +0.000 C 
BRANCH  19  20
ATOM     20  C   UNL     1      10.285  11.002  19.005  0.00  0.00    +0.000 C 
BRANCH  20  21
ATOM     21  C   UNL     1      10.031  12.129  17.997  0.00  0.00    +0.000 C 
BRANCH  21  22
ATOM     22  N   UNL     1      10.728  13.453  18.332  0.00  0.00    +0.000 N 
ATOM     23  C   UNL     1      11.635  13.897  17.181  0.00  0.00    +0.000 C 
ATOM     24  C   UNL     1      11.530  13.328  19.622  0.00  0.00    +0.000 C 
BRANCH  22  25
ATOM     25  C   UNL     1       9.574  14.497  18.535  0.00  0.00    +0.000 C 
BRANCH  25  26
ATOM     26  C   UNL     1       8.456  14.000  19.438  0.00  0.00    +0.000 C 
BRANCH  26  27
ATOM     27  C   UNL     1       8.443  14.743  20.776  0.00  0.00    +0.000 C 
BRANCH  27  33
ATOM     28  C   UNL     1       7.699  11.608  24.462  0.00  0.00    +0.000 C 
ATOM     29  C   UNL     1       7.234  12.097  23.105  0.00  0.00    +0.000 C 
ATOM     30  C   UNL     1       6.109  13.125  23.179  0.00  0.00    +0.000 C 
ATOM     31  C   UNL     1       6.429  14.042  22.037  0.00  0.00    +0.000 C 
ATOM     32  O   UNL     1       5.631  14.725  21.416  0.00  0.00    +0.000 OA
ATOM     33  N   UNL     1       7.769  13.954  21.790  0.00  0.00    +0.000 N 
ATOM     34  C   UNL     1       8.305  12.814  22.317  0.00  0.00    +0.000 C 
ATOM     35  O   UNL     1       9.410  12.378  22.032  0.00  0.00    +0.000 OA
ENDBRANCH  27  33
ENDBRANCH  26  27
ENDBRANCH  25  26
ENDBRANCH  22  25
ENDBRANCH  21  22
ENDBRANCH  20  21
ENDBRANCH  19  20
ENDBRANCH   1  19
TORSDOF 16
ENDMDL
MODEL 6
REMARK VINA RESULT:      -6.6      2.556      3.696
REMARK  Name = 
REMARK  22 active torsions:
REMARK  status: ('A' for Active; 'I' for Inactive)
REMARK    1  A    between atoms: C_1  and  C_2
REMARK    2  A    between atoms: N_6  and  C_7
REMARK    3  A    between atoms: C_7  and  C_8
REMARK    4  A    between atoms: C_8  and  C_9
REMARK    5  A    between atoms: C_9  and  N_10
REMARK    6  A    between atoms: N_10  and  C_11
REMARK    7  A    between atoms: N_10  and  C_12
REMARK    8  A    between atoms: N_10  and  C_13
REMARK    9  A    between atoms: C_13  and  C_14
REMARK   10  A    between atoms: C_14  and  C_15
REMARK   11  A    between atoms: C_15  and  C_16
REMARK   12  A    between atoms: C_16  and  C_17
REMARK   13  A    between atoms: C_17  and  C_18
REMARK   14  A    between atoms: C_18  and  C_19
REMARK   15  A    between atoms: C_19  and  N_20
REMARK   16  A    between atoms: N_20  and  C_21
REMARK   17  A    between atoms: N_20  and  C_22
REMARK   18  A    between atoms: N_20  and  C_23
REMARK   19  A    between atoms: C_23  and  C_24
REMARK   20  A    between atoms: C_24  and  C_25
REMARK   21  A    between atoms: C_25  and  N_26
REMARK   22  A    between atoms: C_30  and  C_31
REMARK                            x       y       z     vdW  Elec       q    Type
REMARK                         _______ _______ _______ _____ _____    ______ ____
ROOT
ATOM      1  C   UNL     1       7.841   8.106  17.464  0.00  0.00    +0.000 C 
ENDROOT
BRANCH   1   2
ATOM      2  C   UNL     1       7.279   6.722  17.807  0.00  0.00    +0.000 C 
BRANCH   2   3
ATOM      3  C   UNL     1       6.130   6.272  16.898  0.00  0.00    +0.000 C 
BRANCH   3   4
ATOM      4  C   UNL     1       5.686   4.843  17.224  0.00  0.00    +0.000 C 
BRANCH   4   5
ATOM      5  N   UNL     1       4.263   4.731  17.809  0.00  0.00    +0.000 N 
ATOM      6  C   UNL     1       3.472   3.668  17.048  0.00  0.00    +0.000 C 
ATOM      7  C   UNL     1       4.323   4.385  19.295  0.00  0.00    +0.000 C 
BRANCH   5   8
ATOM      8  C   UNL     1       3.616   6.138  17.631  0.00  0.00    +0.000 C 
BRANCH   8   9
ATOM      9  C   UNL     1       2.398   6.350  18.522  0.00  0.00    +0.000 C 
BRANCH   9  10
ATOM     10  C   UNL     1       2.654   7.453  19.542  0.00  0.00    +0.000 C 
BRANCH  10  11
ATOM     11  N   UNL     1       1.585   8.428  19.528  0.00  0.00    +0.000 N 
ATOM     12  C   UNL     1       0.964   8.860  20.661  0.00  0.00    +0.000 C 
ATOM     13  O   UNL     1       1.274   8.554  21.804  0.00  0.00    +0.000 OA
ATOM     14  C   UNL     1      -0.133   9.803  20.271  0.00  0.00    +0.000 C 
ATOM     15  C   UNL     1       0.249  10.226  18.853  0.00  0.00    +0.000 C 
ATOM     16  C   UNL     1      -0.899  10.120  17.867  0.00  0.00    +0.000 C 
ATOM     17  C   UNL     1       1.350   9.265  18.476  0.00  0.00    +0.000 C 
ATOM     18  O   UNL     1       1.987   9.291  17.433  0.00  0.00    +0.000 OA
ENDBRANCH  10  11
ENDBRANCH   9  10
ENDBRANCH   8   9
ENDBRANCH   5   8
ENDBRANCH   4   5
ENDBRANCH   3   4
ENDBRANCH   2   3
ENDBRANCH   1   2
BRANCH   1  19
ATOM     19  C   UNL     1       8.577   8.794  18.619  0.00  0.00    +0.000 C 
BRANCH  19  20
ATOM     20  C   UNL     1       8.972  10.248  18.334  0.00  0.00    +0.000 C 
BRANCH  20  21
ATOM     21  C   UNL     1       9.400  10.973  19.615  0.00  0.00    +0.000 C 
BRANCH  21  22
ATOM     22  N   UNL     1       9.915  12.401  19.398  0.00  0.00    +0.000 N 
ATOM     23  C   UNL     1       8.886  13.240  18.635  0.00  0.00    +0.000 C 
ATOM     24  C   UNL     1      11.245  12.387  18.655  0.00  0.00    +0.000 C 
BRANCH  22  25
ATOM     25  C   UNL     1      10.128  12.995  20.836  0.00  0.00    +0.000 C 
BRANCH  25  26
ATOM     26  C   UNL     1       9.314  12.292  21.911  0.00  0.00    +0.000 C 
BRANCH  26  27
ATOM     27  C   UNL     1       8.105  13.128  22.337  0.00  0.00    +0.000 C 
BRANCH  27  33
ATOM     28  C   UNL     1       6.534  11.352  26.620  0.00  0.00    +0.000 C 
ATOM     29  C   UNL     1       6.707  12.579  25.747  0.00  0.00    +0.000 C 
ATOM     30  C   UNL     1       7.980  13.366  26.047  0.00  0.00    +0.000 C 
ATOM     31  C   UNL     1       8.392  13.849  24.689  0.00  0.00    +0.000 C 
ATOM     32  O   UNL     1       9.053  14.847  24.449  0.00  0.00    +0.000 OA
ATOM     33  N   UNL     1       7.869  12.995  23.762  0.00  0.00    +0.000 N 
ATOM     34  C   UNL     1       6.835  12.265  24.275  0.00  0.00    +0.000 C 
ATOM     35  O   UNL     1       6.047  11.619  23.600  0.00  0.00    +0.000 OA
ENDBRANCH  27  33
ENDBRANCH  26  27
ENDBRANCH  25  26
ENDBRANCH  22  25
ENDBRANCH  21  22
ENDBRANCH  20  21
ENDBRANCH  19  20
ENDBRANCH   1  19
TORSDOF 16
ENDMDL
MODEL 7
REMARK VINA RESULT:      -6.6      5.706     11.234
REMARK  Name = 
REMARK  22 active torsions:
REMARK  status: ('A' for Active; 'I' for Inactive)
REMARK    1  A    between atoms: C_1  and  C_2
REMARK    2  A    between atoms: N_6  and  C_7
REMARK    3  A    between atoms: C_7  and  C_8
REMARK    4  A    between atoms: C_8  and  C_9
REMARK    5  A    between atoms: C_9  and  N_10
REMARK    6  A    between atoms: N_10  and  C_11
REMARK    7  A    between atoms: N_10  and  C_12
REMARK    8  A    between atoms: N_10  and  C_13
REMARK    9  A    between atoms: C_13  and  C_14
REMARK   10  A    between atoms: C_14  and  C_15
REMARK   11  A    between atoms: C_15  and  C_16
REMARK   12  A    between atoms: C_16  and  C_17
REMARK   13  A    between atoms: C_17  and  C_18
REMARK   14  A    between atoms: C_18  and  C_19
REMARK   15  A    between atoms: C_19  and  N_20
REMARK   16  A    between atoms: N_20  and  C_21
REMARK   17  A    between atoms: N_20  and  C_22
REMARK   18  A    between atoms: N_20  and  C_23
REMARK   19  A    between atoms: C_23  and  C_24
REMARK   20  A    between atoms: C_24  and  C_25
REMARK   21  A    between atoms: C_25  and  N_26
REMARK   22  A    between atoms: C_30  and  C_31
REMARK                            x       y       z     vdW  Elec       q    Type
REMARK                         _______ _______ _______ _____ _____    ______ ____
ROOT
ATOM      1  C   UNL     1       2.180   8.087  18.893  0.00  0.00    +0.000 C 
ENDROOT
BRANCH   1   2
ATOM      2  C   UNL     1       1.417   8.857  17.807  0.00  0.00    +0.000 C 
BRANCH   2   3
ATOM      3  C   UNL     1       1.339  10.367  18.051  0.00  0.00    +0.000 C 
BRANCH   3   4
ATOM      4  C   UNL     1       1.617  10.711  19.518  0.00  0.00    +0.000 C 
BRANCH   4   5
ATOM      5  N   UNL     1       0.716  11.820  20.099  0.00  0.00    +0.000 N 
ATOM      6  C   UNL     1       1.551  13.066  20.391  0.00  0.00    +0.000 C 
ATOM      7  C   UNL     1      -0.413  12.153  19.127  0.00  0.00    +0.000 C 
BRANCH   5   8
ATOM      8  C   UNL     1       0.113  11.236  21.412  0.00  0.00    +0.000 C 
BRANCH   8   9
ATOM      9  C   UNL     1      -1.340  11.641  21.631  0.00  0.00    +0.000 C 
BRANCH   9  10
ATOM     10  C   UNL     1      -1.677  11.678  23.117  0.00  0.00    +0.000 C 
BRANCH  10  11
ATOM     11  N   UNL     1      -2.392  12.891  23.454  0.00  0.00    +0.000 N 
ATOM     12  C   UNL     1      -3.659  12.885  23.956  0.00  0.00    +0.000 C 
ATOM     13  O   UNL     1      -4.303  11.890  24.254  0.00  0.00    +0.000 OA
ATOM     14  C   UNL     1      -4.111  14.305  24.116  0.00  0.00    +0.000 C 
ATOM     15  C   UNL     1      -2.804  15.096  24.113  0.00  0.00    +0.000 C 
ATOM     16  C   UNL     1      -2.826  16.284  23.169  0.00  0.00    +0.000 C 
ATOM     17  C   UNL     1      -1.776  14.090  23.659  0.00  0.00    +0.000 C 
ATOM     18  O   UNL     1      -0.573  14.295  23.575  0.00  0.00    +0.000 OA
ENDBRANCH  10  11
ENDBRANCH   9  10
ENDBRANCH   8   9
ENDBRANCH   5   8
ENDBRANCH   4   5
ENDBRANCH   3   4
ENDBRANCH   2   3
ENDBRANCH   1   2
BRANCH   1  19
ATOM     19  C   UNL     1       3.003   6.905  18.370  0.00  0.00    +0.000 C 
BRANCH  19  20
ATOM     20  C   UNL     1       2.166   5.678  17.989  0.00  0.00    +0.000 C 
BRANCH  20  21
ATOM     21  C   UNL     1       1.979   4.735  19.184  0.00  0.00    +0.000 C 
BRANCH  21  22
ATOM     22  N   UNL     1       2.039   3.244  18.834  0.00  0.00    +0.000 N 
ATOM     23  C   UNL     1       0.632   2.641  18.781  0.00  0.00    +0.000 C 
ATOM     24  C   UNL     1       2.902   2.489  19.838  0.00  0.00    +0.000 C 
BRANCH  22  25
ATOM     25  C   UNL     1       2.705   3.170  17.415  0.00  0.00    +0.000 C 
BRANCH  25  26
ATOM     26  C   UNL     1       4.207   2.936  17.459  0.00  0.00    +0.000 C 
BRANCH  26  27
ATOM     27  C   UNL     1       4.950   3.868  16.500  0.00  0.00    +0.000 C 
BRANCH  27  33
ATOM     28  C   UNL     1       7.620   7.832  17.559  0.00  0.00    +0.000 C 
ATOM     29  C   UNL     1       7.497   6.325  17.666  0.00  0.00    +0.000 C 
ATOM     30  C   UNL     1       6.881   5.855  18.981  0.00  0.00    +0.000 C 
ATOM     31  C   UNL     1       6.076   4.663  18.557  0.00  0.00    +0.000 C 
ATOM     32  O   UNL     1       5.776   3.710  19.258  0.00  0.00    +0.000 OA
ATOM     33  N   UNL     1       5.765   4.815  17.237  0.00  0.00    +0.000 N 
ATOM     34  C   UNL     1       6.590   5.714  16.623  0.00  0.00    +0.000 C 
ATOM     35  O   UNL     1       6.685   5.846  15.412  0.00  0.00    +0.000 OA
ENDBRANCH  27  33
ENDBRANCH  26  27
ENDBRANCH  25  26
ENDBRANCH  22  25
ENDBRANCH  21  22
ENDBRANCH  20  21
ENDBRANCH  19  20
ENDBRANCH   1  19
TORSDOF 16
ENDMDL
MODEL 8
REMARK VINA RESULT:      -6.5      5.711     10.848
REMARK  Name = 
REMARK  22 active torsions:
REMARK  status: ('A' for Active; 'I' for Inactive)
REMARK    1  A    between atoms: C_1  and  C_2
REMARK    2  A    between atoms: N_6  and  C_7
REMARK    3  A    between atoms: C_7  and  C_8
REMARK    4  A    between atoms: C_8  and  C_9
REMARK    5  A    between atoms: C_9  and  N_10
REMARK    6  A    between atoms: N_10  and  C_11
REMARK    7  A    between atoms: N_10  and  C_12
REMARK    8  A    between atoms: N_10  and  C_13
REMARK    9  A    between atoms: C_13  and  C_14
REMARK   10  A    between atoms: C_14  and  C_15
REMARK   11  A    between atoms: C_15  and  C_16
REMARK   12  A    between atoms: C_16  and  C_17
REMARK   13  A    between atoms: C_17  and  C_18
REMARK   14  A    between atoms: C_18  and  C_19
REMARK   15  A    between atoms: C_19  and  N_20
REMARK   16  A    between atoms: N_20  and  C_21
REMARK   17  A    between atoms: N_20  and  C_22
REMARK   18  A    between atoms: N_20  and  C_23
REMARK   19  A    between atoms: C_23  and  C_24
REMARK   20  A    between atoms: C_24  and  C_25
REMARK   21  A    between atoms: C_25  and  N_26
REMARK   22  A    between atoms: C_30  and  C_31
REMARK                            x       y       z     vdW  Elec       q    Type
REMARK                         _______ _______ _______ _____ _____    ______ ____
ROOT
ATOM      1  C   UNL     1       0.487   8.343  21.464  0.00  0.00    +0.000 C 
ENDROOT
BRANCH   1   2
ATOM      2  C   UNL     1       0.695   9.646  22.247  0.00  0.00    +0.000 C 
BRANCH   2   3
ATOM      3  C   UNL     1      -0.579  10.479  22.420  0.00  0.00    +0.000 C 
BRANCH   3   4
ATOM      4  C   UNL     1      -0.332  11.953  22.080  0.00  0.00    +0.000 C 
BRANCH   4   5
ATOM      5  N   UNL     1      -1.543  12.877  22.321  0.00  0.00    +0.000 N 
ATOM      6  C   UNL     1      -2.720  12.062  22.856  0.00  0.00    +0.000 C 
ATOM      7  C   UNL     1      -1.178  13.989  23.303  0.00  0.00    +0.000 C 
BRANCH   5   8
ATOM      8  C   UNL     1      -1.886  13.504  20.936  0.00  0.00    +0.000 C 
BRANCH   8   9
ATOM      9  C   UNL     1      -2.259  12.462  19.887  0.00  0.00    +0.000 C 
BRANCH   9  10
ATOM     10  C   UNL     1      -1.546  12.738  18.568  0.00  0.00    +0.000 C 
BRANCH  10  11
ATOM     11  N   UNL     1      -0.254  12.086  18.533  0.00  0.00    +0.000 N 
ATOM     12  C   UNL     1       0.917  12.761  18.704  0.00  0.00    +0.000 C 
ATOM     13  O   UNL     1       1.023  13.947  18.981  0.00  0.00    +0.000 OA
ATOM     14  C   UNL     1       2.049  11.795  18.533  0.00  0.00    +0.000 C 
ATOM     15  C   UNL     1       1.387  10.432  18.731  0.00  0.00    +0.000 C 
ATOM     16  C   UNL     1       1.735   9.433  17.643  0.00  0.00    +0.000 C 
ATOM     17  C   UNL     1      -0.089  10.742  18.700  0.00  0.00    +0.000 C 
ATOM     18  O   UNL     1      -0.988   9.933  18.884  0.00  0.00    +0.000 OA
ENDBRANCH  10  11
ENDBRANCH   9  10
ENDBRANCH   8   9
ENDBRANCH   5   8
ENDBRANCH   4   5
ENDBRANCH   3   4
ENDBRANCH   2   3
ENDBRANCH   1   2
BRANCH   1  19
ATOM     19  C   UNL     1       1.737   7.460  21.362  0.00  0.00    +0.000 C 
BRANCH  19  20
ATOM     20  C   UNL     1       1.777   6.573  20.113  0.00  0.00    +0.000 C 
BRANCH  20  21
ATOM     21  C   UNL     1       1.019   5.259  20.335  0.00  0.00    +0.000 C 
BRANCH  21  22
ATOM     22  N   UNL     1       1.905   4.007  20.350  0.00  0.00    +0.000 N 
ATOM     23  C   UNL     1       1.228   2.853  19.604  0.00  0.00    +0.000 C 
ATOM     24  C   UNL     1       2.232   3.595  21.780  0.00  0.00    +0.000 C 
BRANCH  22  25
ATOM     25  C   UNL     1       3.227   4.418  19.610  0.00  0.00    +0.000 C 
BRANCH  25  26
ATOM     26  C   UNL     1       3.460   3.659  18.313  0.00  0.00    +0.000 C 
BRANCH  26  27
ATOM     27  C   UNL     1       3.639   4.611  17.129  0.00  0.00    +0.000 C 
BRANCH  27  33
ATOM     28  C   UNL     1       7.657   7.331  17.776  0.00  0.00    +0.000 C 
ATOM     29  C   UNL     1       6.804   6.550  16.797  0.00  0.00    +0.000 C 
ATOM     30  C   UNL     1       7.282   5.118  16.577  0.00  0.00    +0.000 C 
ATOM     31  C   UNL     1       5.996   4.366  16.410  0.00  0.00    +0.000 C 
ATOM     32  O   UNL     1       5.846   3.325  15.790  0.00  0.00    +0.000 OA
ATOM     33  N   UNL     1       5.013   5.068  17.045  0.00  0.00    +0.000 N 
ATOM     34  C   UNL     1       5.373   6.370  17.247  0.00  0.00    +0.000 C 
ATOM     35  O   UNL     1       4.595   7.257  17.565  0.00  0.00    +0.000 OA
ENDBRANCH  27  33
ENDBRANCH  26  27
ENDBRANCH  25  26
ENDBRANCH  22  25
ENDBRANCH  21  22
ENDBRANCH  20  21
ENDBRANCH  19  20
ENDBRANCH   1  19
TORSDOF 16
ENDMDL
MODEL 9
REMARK VINA RESULT:      -6.5      1.495      2.193
REMARK  Name = 
REMARK  22 active torsions:
REMARK  status: ('A' for Active; 'I' for Inactive)
REMARK    1  A    between atoms: C_1  and  C_2
REMARK    2  A    between atoms: N_6  and  C_7
REMARK    3  A    between atoms: C_7  and  C_8
REMARK    4  A    between atoms: C_8  and  C_9
REMARK    5  A    between atoms: C_9  and  N_10
REMARK    6  A    between atoms: N_10  and  C_11
REMARK    7  A    between atoms: N_10  and  C_12
REMARK    8  A    between atoms: N_10  and  C_13
REMARK    9  A    between atoms: C_13  and  C_14
REMARK   10  A    between atoms: C_14  and  C_15
REMARK   11  A    between atoms: C_15  and  C_16
REMARK   12  A    between atoms: C_16  and  C_17
REMARK   13  A    between atoms: C_17  and  C_18
REMARK   14  A    between atoms: C_18  and  C_19
REMARK   15  A    between atoms: C_19  and  N_20
REMARK   16  A    between atoms: N_20  and  C_21
REMARK   17  A    between atoms: N_20  and  C_22
REMARK   18  A    between atoms: N_20  and  C_23
REMARK   19  A    between atoms: C_23  and  C_24
REMARK   20  A    between atoms: C_24  and  C_25
REMARK   21  A    between atoms: C_25  and  N_26
REMARK   22  A    between atoms: C_30  and  C_31
REMARK                            x       y       z     vdW  Elec       q    Type
REMARK                         _______ _______ _______ _____ _____    ______ ____
ROOT
ATOM      1  C   UNL     1       9.013   9.746  18.986  0.00  0.00    +0.000 C 
ENDROOT
BRANCH   1   2
ATOM      2  C   UNL     1       8.371   9.042  17.785  0.00  0.00    +0.000 C 
BRANCH   2   3
ATOM      3  C   UNL     1       7.870   7.625  18.088  0.00  0.00    +0.000 C 
BRANCH   3   4
ATOM      4  C   UNL     1       6.795   7.188  17.087  0.00  0.00    +0.000 C 
BRANCH   4   5
ATOM      5  N   UNL     1       6.244   5.766  17.320  0.00  0.00    +0.000 N 
ATOM      6  C   UNL     1       7.194   4.735  16.712  0.00  0.00    +0.000 C 
ATOM      7  C   UNL     1       6.061   5.503  18.813  0.00  0.00    +0.000 C 
BRANCH   5   8
ATOM      8  C   UNL     1       4.855   5.725  16.614  0.00  0.00    +0.000 C 
BRANCH   8   9
ATOM      9  C   UNL     1       4.072   4.452  16.912  0.00  0.00    +0.000 C 
BRANCH   9  10
ATOM     10  C   UNL     1       2.756   4.772  17.611  0.00  0.00    +0.000 C 
BRANCH  10  11
ATOM     11  N   UNL     1       2.452   3.778  18.618  0.00  0.00    +0.000 N 
ATOM     12  C   UNL     1       2.299   2.455  18.327  0.00  0.00    +0.000 C 
ATOM     13  O   UNL     1       2.474   1.942  17.231  0.00  0.00    +0.000 OA
ATOM     14  C   UNL     1       1.918   1.735  19.584  0.00  0.00    +0.000 C 
ATOM     15  C   UNL     1       2.347   2.699  20.690  0.00  0.00    +0.000 C 
ATOM     16  C   UNL     1       1.267   2.937  21.728  0.00  0.00    +0.000 C 
ATOM     17  C   UNL     1       2.651   3.979  19.952  0.00  0.00    +0.000 C 
ATOM     18  O   UNL     1       3.091   5.002  20.459  0.00  0.00    +0.000 OA
ENDBRANCH  10  11
ENDBRANCH   9  10
ENDBRANCH   8   9
ENDBRANCH   5   8
ENDBRANCH   4   5
ENDBRANCH   3   4
ENDBRANCH   2   3
ENDBRANCH   1   2
BRANCH   1  19
ATOM     19  C   UNL     1       9.781  11.025  18.633  0.00  0.00    +0.000 C 
BRANCH  19  20
ATOM     20  C   UNL     1      10.482  11.686  19.825  0.00  0.00    +0.000 C 
BRANCH  20  21
ATOM     21  C   UNL     1      10.360  13.213  19.770  0.00  0.00    +0.000 C 
BRANCH  21  22
ATOM     22  N   UNL     1       9.579  13.833  20.935  0.00  0.00    +0.000 N 
ATOM     23  C   UNL     1       8.148  14.172  20.511  0.00  0.00    +0.000 C 
ATOM     24  C   UNL     1      10.287  15.077  21.458  0.00  0.00    +0.000 C 
BRANCH  22  25
ATOM     25  C   UNL     1       9.557  12.735  22.058  0.00  0.00    +0.000 C 
BRANCH  25  26
ATOM     26  C   UNL     1       8.413  12.898  23.046  0.00  0.00    +0.000 C 
BRANCH  26  27
ATOM     27  C   UNL     1       7.925  11.546  23.569  0.00  0.00    +0.000 C 
BRANCH  27  33
ATOM     28  C   UNL     1       4.628  11.035  27.151  0.00  0.00    +0.000 C 
ATOM     29  C   UNL     1       5.485  11.994  26.350  0.00  0.00    +0.000 C 
ATOM     30  C   UNL     1       6.808  12.342  27.026  0.00  0.00    +0.000 C 
ATOM     31  C   UNL     1       7.748  12.459  25.864  0.00  0.00    +0.000 C 
ATOM     32  O   UNL     1       8.766  13.132  25.826  0.00  0.00    +0.000 OA
ATOM     33  N   UNL     1       7.249  11.705  24.842  0.00  0.00    +0.000 N 
ATOM     34  C   UNL     1       5.918  11.447  25.009  0.00  0.00    +0.000 C 
ATOM     35  O   UNL     1       5.186  11.013  24.132  0.00  0.00    +0.000 OA
ENDBRANCH  27  33
ENDBRANCH  26  27
ENDBRANCH  25  26
ENDBRANCH  22  25
ENDBRANCH  21  22
ENDBRANCH  20  21
ENDBRANCH  19  20
ENDBRANCH   1  19
TORSDOF 16
ENDMDL
