MODEL 1
REMARK VINA RESULT:      -8.5      0.000      0.000
REMARK  Name = 
REMARK  9 active torsions:
REMARK  status: ('A' for Active; 'I' for Inactive)
REMARK    1  A    between atoms: C_1  and  O_2
REMARK    2  A    between atoms: O_2  and  C_3
REMARK    3  A    between atoms: C_7  and  C_8
REMARK    4  A    between atoms: C_8  and  N_9
REMARK    5  A    between atoms: N_21  and  C_22
REMARK    6  A    between atoms: C_22  and  C_23
REMARK    7  A    between atoms: C_23  and  C_24
REMARK    8  A    between atoms: C_24  and  C_25
REMARK    9  A    between atoms: C_25  and  C_26
REMARK                            x       y       z     vdW  Elec       q    Type
REMARK                         _______ _______ _______ _____ _____    ______ ____
ROOT
ATOM      1  C   UNL     1       2.838   3.932  19.601  0.00  0.00    +0.000 A 
ATOM      2  C   UNL     1       2.183   4.583  20.643  0.00  0.00    +0.000 A 
ATOM      3  C   UNL     1       1.888   5.964  20.559  0.00  0.00    +0.000 A 
ATOM      4  C   UNL     1       2.280   6.715  19.426  0.00  0.00    +0.000 A 
ATOM      5  C   UNL     1       2.083   8.070  18.956  0.00  0.00    +0.000 A 
ATOM      6  C   UNL     1       2.861   8.200  17.820  0.00  0.00    +0.000 A 
ATOM      7  N   UNL     1       3.518   7.017  17.606  0.00  0.00    +0.000 N 
ATOM      8  C   UNL     1       3.057   6.058  18.470  0.00  0.00    +0.000 A 
ATOM      9  C   UNL     1       3.289   4.670  18.504  0.00  0.00    +0.000 A 
ENDROOT
BRANCH   1  11
ATOM     10  C   UNL     1       4.366   2.119  19.917  0.00  0.00    +0.000 C 
ATOM     11  O   UNL     1       3.096   2.592  19.500  0.00  0.00    +0.000 OA
ENDBRANCH   1  11
BRANCH   5  12
ATOM     12  C   UNL     1       1.269   9.165  19.607  0.00  0.00    +0.000 C 
BRANCH  12  13
ATOM     13  N   UNL     1       0.744  10.167  18.641  0.00  0.00    +0.000 NA
ATOM     14  C   UNL     1      -0.669  10.516  18.806  0.00  0.00    +0.000 C 
ATOM     15  C   UNL     1      -0.991  11.138  20.158  0.00  0.00    +0.000 C 
ATOM     16  C   UNL     1      -0.057  12.288  20.586  0.00  0.00    +0.000 C 
ATOM     17  C   UNL     1       1.376  12.172  20.018  0.00  0.00    +0.000 C 
ATOM     18  C   UNL     1       1.502  11.425  18.694  0.00  0.00    +0.000 C 
ATOM     19  O   UNL     1      -0.538  13.579  20.174  0.00  0.00    +0.000 OA
ATOM     20  C   UNL     1      -1.637  14.098  20.922  0.00  0.00    +0.000 C 
ATOM     21  C   UNL     1      -1.445  13.968  22.423  0.00  0.00    +0.000 C 
ATOM     22  C   UNL     1      -1.065  12.543  22.737  0.00  0.00    +0.000 C 
ATOM     23  O   UNL     1       0.118  12.235  22.015  0.00  0.00    +0.000 OA
ENDBRANCH  12  13
ENDBRANCH   5  12
BRANCH   7  24
ATOM     24  C   UNL     1       4.651   6.867  16.711  0.00  0.00    +0.000 C 
BRANCH  24  25
ATOM     25  C   UNL     1       5.942   6.565  17.480  0.00  0.00    +0.000 C 
BRANCH  25  26
ATOM     26  C   UNL     1       6.904   5.781  16.600  0.00  0.00    +0.000 C 
BRANCH  26  27
ATOM     27  C   UNL     1       6.285   4.497  16.045  0.00  0.00    +0.000 C 
BRANCH  27  28
ATOM     28  C   UNL     1       6.492   4.468  14.550  0.00  0.00    +0.000 A 
ATOM     29  C   UNL     1       5.768   3.571  13.756  0.00  0.00    +0.000 A 
ATOM     30  C   UNL     1       6.064   3.436  12.399  0.00  0.00    +0.000 A 
ATOM     31  C   UNL     1       7.082   4.198  11.828  0.00  0.00    +0.000 A 
ATOM     32  C   UNL     1       7.793   5.110  12.607  0.00  0.00    +0.000 A 
ATOM     33  C   UNL     1       7.499   5.248  13.962  0.00  0.00    +0.000 A 
ENDBRANCH  27  28
ENDBRANCH  26  27
ENDBRANCH  25  26
ENDBRANCH  24  25
ENDBRANCH   7  24
TORSDOF 8
ENDMDL
MODEL 2
REMARK VINA RESULT:      -8.4      3.046     10.135
REMARK  Name = 
REMARK  9 active torsions:
REMARK  status: ('A' for Active; 'I' for Inactive)
REMARK    1  A    between atoms: C_1  and  O_2
REMARK    2  A    between atoms: O_2  and  C_3
REMARK    3  A    between atoms: C_7  and  C_8
REMARK    4  A    between atoms: C_8  and  N_9
REMARK    5  A    between atoms: N_21  and  C_22
REMARK    6  A    between atoms: C_22  and  C_23
REMARK    7  A    between atoms: C_23  and  C_24
REMARK    8  A    between atoms: C_24  and  C_25
REMARK    9  A    between atoms: C_25  and  C_26
REMARK                            x       y       z     vdW  Elec       q    Type
REMARK                         _______ _______ _______ _____ _____    ______ ____
ROOT
ATOM      1  C   UNL     1      -0.626  10.523  22.676  0.00  0.00    +0.000 A 
ATOM      2  C   UNL     1       0.137   9.411  23.023  0.00  0.00    +0.000 A 
ATOM      3  C   UNL     1       0.868   8.703  22.041  0.00  0.00    +0.000 A 
ATOM      4  C   UNL     1       0.814   9.096  20.683  0.00  0.00    +0.000 A 
ATOM      5  C   UNL     1       1.469   8.693  19.455  0.00  0.00    +0.000 A 
ATOM      6  C   UNL     1       0.849   9.398  18.440  0.00  0.00    +0.000 A 
ATOM      7  N   UNL     1      -0.141  10.170  18.988  0.00  0.00    +0.000 N 
ATOM      8  C   UNL     1      -0.072  10.124  20.356  0.00  0.00    +0.000 A 
ATOM      9  C   UNL     1      -0.743  10.885  21.332  0.00  0.00    +0.000 A 
ENDROOT
BRANCH   1  11
ATOM     10  C   UNL     1      -1.898  12.525  22.987  0.00  0.00    +0.000 C 
ATOM     11  O   UNL     1      -1.298  11.358  23.526  0.00  0.00    +0.000 OA
ENDBRANCH   1  11
BRANCH   5  12
ATOM     12  C   UNL     1       2.551   7.652  19.284  0.00  0.00    +0.000 C 
BRANCH  12  13
ATOM     13  N   UNL     1       2.506   6.962  17.967  0.00  0.00    +0.000 NA
ATOM     14  C   UNL     1       3.609   7.277  17.056  0.00  0.00    +0.000 C 
ATOM     15  C   UNL     1       4.979   6.893  17.600  0.00  0.00    +0.000 C 
ATOM     16  C   UNL     1       5.081   5.460  18.159  0.00  0.00    +0.000 C 
ATOM     17  C   UNL     1       3.751   4.917  18.732  0.00  0.00    +0.000 C 
ATOM     18  C   UNL     1       2.483   5.500  18.117  0.00  0.00    +0.000 C 
ATOM     19  O   UNL     1       5.500   4.504  17.169  0.00  0.00    +0.000 OA
ATOM     20  C   UNL     1       6.882   4.541  16.817  0.00  0.00    +0.000 C 
ATOM     21  C   UNL     1       7.798   4.609  18.027  0.00  0.00    +0.000 C 
ATOM     22  C   UNL     1       7.328   5.727  18.924  0.00  0.00    +0.000 C 
ATOM     23  O   UNL     1       5.981   5.464  19.284  0.00  0.00    +0.000 OA
ENDBRANCH  12  13
ENDBRANCH   5  12
BRANCH   7  24
ATOM     24  C   UNL     1      -1.203  10.795  18.221  0.00  0.00    +0.000 C 
BRANCH  24  25
ATOM     25  C   UNL     1      -1.628   9.927  17.032  0.00  0.00    +0.000 C 
BRANCH  25  26
ATOM     26  C   UNL     1      -3.122  10.074  16.786  0.00  0.00    +0.000 C 
BRANCH  26  27
ATOM     27  C   UNL     1      -3.951   9.901  18.060  0.00  0.00    +0.000 C 
BRANCH  27  28
ATOM     28  C   UNL     1      -5.062  10.923  18.055  0.00  0.00    +0.000 A 
ATOM     29  C   UNL     1      -6.128  10.809  18.956  0.00  0.00    +0.000 A 
ATOM     30  C   UNL     1      -7.228  11.661  18.855  0.00  0.00    +0.000 A 
ATOM     31  C   UNL     1      -7.268  12.632  17.857  0.00  0.00    +0.000 A 
ATOM     32  C   UNL     1      -6.201  12.767  16.969  0.00  0.00    +0.000 A 
ATOM     33  C   UNL     1      -5.101  11.918  17.068  0.00  0.00    +0.000 A 
ENDBRANCH  27  28
ENDBRANCH  26  27
ENDBRANCH  25  26
ENDBRANCH  24  25
ENDBRANCH   7  24
TORSDOF 8
ENDMDL
MODEL 3
REMARK VINA RESULT:      -8.0      4.455      7.277
REMARK  Name = 
REMARK  9 active torsions:
REMARK  status: ('A' for Active; 'I' for Inactive)
REMARK    1  A    between atoms: C_1  and  O_2
REMARK    2  A    between atoms: O_2  and  C_3
REMARK    3  A    between atoms: C_7  and  C_8
REMARK    4  A    between atoms: C_8  and  N_9
REMARK    5  A    between atoms: N_21  and  C_22
REMARK    6  A    between atoms: C_22  and  C_23
REMARK    7  A    between atoms: C_23  and  C_24
REMARK    8  A    between atoms: C_24  and  C_25
REMARK    9  A    between atoms: C_25  and  C_26
REMARK                            x       y       z     vdW  Elec       q    Type
REMARK                         _______ _______ _______ _____ _____    ______ ____
ROOT
ATOM      1  C   UNL     1      -3.253  11.240  16.449  0.00  0.00    +0.000 A 
ATOM      2  C   UNL     1      -4.195  11.475  17.447  0.00  0.00    +0.000 A 
ATOM      3  C   UNL     1      -3.793  11.647  18.792  0.00  0.00    +0.000 A 
ATOM      4  C   UNL     1      -2.427  11.554  19.151  0.00  0.00    +0.000 A 
ATOM      5  C   UNL     1      -1.652  11.754  20.358  0.00  0.00    +0.000 A 
ATOM      6  C   UNL     1      -0.363  11.355  20.057  0.00  0.00    +0.000 A 
ATOM      7  N   UNL     1      -0.336  10.913  18.760  0.00  0.00    +0.000 N 
ATOM      8  C   UNL     1      -1.534  11.176  18.148  0.00  0.00    +0.000 A 
ATOM      9  C   UNL     1      -1.910  11.079  16.795  0.00  0.00    +0.000 A 
ENDROOT
BRANCH   1  11
ATOM     10  C   UNL     1      -3.063   9.985  14.421  0.00  0.00    +0.000 C 
ATOM     11  O   UNL     1      -3.484  11.155  15.102  0.00  0.00    +0.000 OA
ENDBRANCH   1  11
BRANCH   5  12
ATOM     12  C   UNL     1      -2.147  12.218  21.709  0.00  0.00    +0.000 C 
BRANCH  12  13
ATOM     13  N   UNL     1      -2.341  13.690  21.795  0.00  0.00    +0.000 NA
ATOM     14  C   UNL     1      -3.582  14.195  21.201  0.00  0.00    +0.000 C 
ATOM     15  C   UNL     1      -4.841  13.641  21.856  0.00  0.00    +0.000 C 
ATOM     16  C   UNL     1      -4.863  13.716  23.395  0.00  0.00    +0.000 C 
ATOM     17  C   UNL     1      -3.461  13.646  24.045  0.00  0.00    +0.000 C 
ATOM     18  C   UNL     1      -2.312  14.163  23.186  0.00  0.00    +0.000 C 
ATOM     19  O   UNL     1      -5.461  14.929  23.886  0.00  0.00    +0.000 OA
ATOM     20  C   UNL     1      -6.883  15.002  23.790  0.00  0.00    +0.000 C 
ATOM     21  C   UNL     1      -7.573  13.740  24.278  0.00  0.00    +0.000 C 
ATOM     22  C   UNL     1      -6.939  12.552  23.599  0.00  0.00    +0.000 C 
ATOM     23  O   UNL     1      -5.553  12.559  23.906  0.00  0.00    +0.000 OA
ENDBRANCH  12  13
ENDBRANCH   5  12
BRANCH   7  24
ATOM     24  C   UNL     1       0.746  10.131  18.190  0.00  0.00    +0.000 C 
BRANCH  24  25
ATOM     25  C   UNL     1       1.316   9.133  19.203  0.00  0.00    +0.000 C 
BRANCH  25  26
ATOM     26  C   UNL     1       1.901   7.930  18.479  0.00  0.00    +0.000 C 
BRANCH  26  27
ATOM     27  C   UNL     1       2.653   6.983  19.416  0.00  0.00    +0.000 C 
BRANCH  27  28
ATOM     28  C   UNL     1       2.017   5.617  19.333  0.00  0.00    +0.000 A 
ATOM     29  C   UNL     1       1.507   5.006  20.486  0.00  0.00    +0.000 A 
ATOM     30  C   UNL     1       1.057   3.686  20.442  0.00  0.00    +0.000 A 
ATOM     31  C   UNL     1       1.111   2.970  19.247  0.00  0.00    +0.000 A 
ATOM     32  C   UNL     1       1.596   3.578  18.089  0.00  0.00    +0.000 A 
ATOM     33  C   UNL     1       2.045   4.896  18.130  0.00  0.00    +0.000 A 
ENDBRANCH  27  28
ENDBRANCH  26  27
ENDBRANCH  25  26
ENDBRANCH  24  25
ENDBRANCH   7  24
TORSDOF 8
ENDMDL
MODEL 4
REMARK VINA RESULT:      -8.0      2.870      9.037
REMARK  Name = 
REMARK  9 active torsions:
REMARK  status: ('A' for Active; 'I' for Inactive)
REMARK    1  A    between atoms: C_1  and  O_2
REMARK    2  A    between atoms: O_2  and  C_3
REMARK    3  A    between atoms: C_7  and  C_8
REMARK    4  A    between atoms: C_8  and  N_9
REMARK    5  A    between atoms: N_21  and  C_22
REMARK    6  A    between atoms: C_22  and  C_23
REMARK    7  A    between atoms: C_23  and  C_24
REMARK    8  A    between atoms: C_24  and  C_25
REMARK    9  A    between atoms: C_25  and  C_26
REMARK                            x       y       z     vdW  Elec       q    Type
REMARK                         _______ _______ _______ _____ _____    ______ ____
ROOT
ATOM      1  C   UNL     1      -0.298  10.177  22.289  0.00  0.00    +0.000 A 
ATOM      2  C   UNL     1      -0.336   8.823  21.967  0.00  0.00    +0.000 A 
ATOM      3  C   UNL     1       0.281   8.344  20.788  0.00  0.00    +0.000 A 
ATOM      4  C   UNL     1       0.924   9.238  19.900  0.00  0.00    +0.000 A 
ATOM      5  C   UNL     1       1.714   9.118  18.692  0.00  0.00    +0.000 A 
ATOM      6  C   UNL     1       1.923  10.408  18.240  0.00  0.00    +0.000 A 
ATOM      7  N   UNL     1       1.288  11.275  19.089  0.00  0.00    +0.000 N 
ATOM      8  C   UNL     1       0.817  10.600  20.186  0.00  0.00    +0.000 A 
ATOM      9  C   UNL     1       0.275  11.081  21.392  0.00  0.00    +0.000 A 
ENDROOT
BRANCH   1  11
ATOM     10  C   UNL     1      -1.828  11.690  23.334  0.00  0.00    +0.000 C 
ATOM     11  O   UNL     1      -0.759  10.764  23.436  0.00  0.00    +0.000 OA
ENDBRANCH   1  11
BRANCH   5  12
ATOM     12  C   UNL     1       2.157   7.849  17.999  0.00  0.00    +0.000 C 
BRANCH  12  13
ATOM     13  N   UNL     1       3.398   7.264  18.571  0.00  0.00    +0.000 NA
ATOM     14  C   UNL     1       3.215   6.478  19.794  0.00  0.00    +0.000 C 
ATOM     15  C   UNL     1       2.313   5.264  19.610  0.00  0.00    +0.000 C 
ATOM     16  C   UNL     1       2.653   4.376  18.397  0.00  0.00    +0.000 C 
ATOM     17  C   UNL     1       3.300   5.145  17.222  0.00  0.00    +0.000 C 
ATOM     18  C   UNL     1       4.086   6.394  17.606  0.00  0.00    +0.000 C 
ATOM     19  O   UNL     1       3.569   3.315  18.722  0.00  0.00    +0.000 OA
ATOM     20  C   UNL     1       3.017   2.224  19.457  0.00  0.00    +0.000 C 
ATOM     21  C   UNL     1       1.695   1.737  18.889  0.00  0.00    +0.000 C 
ATOM     22  C   UNL     1       0.781   2.924  18.711  0.00  0.00    +0.000 C 
ATOM     23  O   UNL     1       1.428   3.850  17.850  0.00  0.00    +0.000 OA
ENDBRANCH  12  13
ENDBRANCH   5  12
BRANCH   7  24
ATOM     24  C   UNL     1       1.014  12.665  18.777  0.00  0.00    +0.000 C 
BRANCH  24  25
ATOM     25  C   UNL     1      -0.331  12.829  18.060  0.00  0.00    +0.000 C 
BRANCH  25  26
ATOM     26  C   UNL     1      -1.425  13.143  19.069  0.00  0.00    +0.000 C 
BRANCH  26  27
ATOM     27  C   UNL     1      -2.341  11.949  19.340  0.00  0.00    +0.000 C 
BRANCH  27  28
ATOM     28  C   UNL     1      -2.663  11.280  18.026  0.00  0.00    +0.000 A 
ATOM     29  C   UNL     1      -3.786  11.677  17.290  0.00  0.00    +0.000 A 
ATOM     30  C   UNL     1      -4.171  10.963  16.155  0.00  0.00    +0.000 A 
ATOM     31  C   UNL     1      -3.436   9.851  15.748  0.00  0.00    +0.000 A 
ATOM     32  C   UNL     1      -2.303   9.462  16.462  0.00  0.00    +0.000 A 
ATOM     33  C   UNL     1      -1.916  10.174  17.596  0.00  0.00    +0.000 A 
ENDBRANCH  27  28
ENDBRANCH  26  27
ENDBRANCH  25  26
ENDBRANCH  24  25
ENDBRANCH   7  24
TORSDOF 8
ENDMDL
MODEL 5
REMARK VINA RESULT:      -7.9      2.623      4.083
REMARK  Name = 
REMARK  9 active torsions:
REMARK  status: ('A' for Active; 'I' for Inactive)
REMARK    1  A    between atoms: C_1  and  O_2
REMARK    2  A    between atoms: O_2  and  C_3
REMARK    3  A    between atoms: C_7  and  C_8
REMARK    4  A    between atoms: C_8  and  N_9
REMARK    5  A    between atoms: N_21  and  C_22
REMARK    6  A    between atoms: C_22  and  C_23
REMARK    7  A    between atoms: C_23  and  C_24
REMARK    8  A    between atoms: C_24  and  C_25
REMARK    9  A    between atoms: C_25  and  C_26
REMARK                            x       y       z     vdW  Elec       q    Type
REMARK                         _______ _______ _______ _____ _____    ______ ____
ROOT
ATOM      1  C   UNL     1       2.548   3.485  18.261  0.00  0.00    +0.000 A 
ATOM      2  C   UNL     1       1.716   3.996  19.253  0.00  0.00    +0.000 A 
ATOM      3  C   UNL     1       1.607   5.392  19.455  0.00  0.00    +0.000 A 
ATOM      4  C   UNL     1       2.365   6.292  18.670  0.00  0.00    +0.000 A 
ATOM      5  C   UNL     1       2.450   7.731  18.525  0.00  0.00    +0.000 A 
ATOM      6  C   UNL     1       3.510   7.969  17.671  0.00  0.00    +0.000 A 
ATOM      7  N   UNL     1       4.067   6.767  17.323  0.00  0.00    +0.000 N 
ATOM      8  C   UNL     1       3.291   5.736  17.786  0.00  0.00    +0.000 A 
ATOM      9  C   UNL     1       3.352   4.355  17.522  0.00  0.00    +0.000 A 
ENDROOT
BRANCH   1  11
ATOM     10  C   UNL     1       3.712   1.406  18.476  0.00  0.00    +0.000 C 
ATOM     11  O   UNL     1       2.676   2.174  17.887  0.00  0.00    +0.000 OA
ENDBRANCH   1  11
BRANCH   5  12
ATOM     12  C   UNL     1       1.618   8.781  19.226  0.00  0.00    +0.000 C 
BRANCH  12  13
ATOM     13  N   UNL     1       1.040   9.793  18.301  0.00  0.00    +0.000 NA
ATOM     14  C   UNL     1      -0.385  10.075  18.491  0.00  0.00    +0.000 C 
ATOM     15  C   UNL     1      -0.717  10.636  19.868  0.00  0.00    +0.000 C 
ATOM     16  C   UNL     1       0.172  11.808  20.328  0.00  0.00    +0.000 C 
ATOM     17  C   UNL     1       1.603  11.773  19.742  0.00  0.00    +0.000 C 
ATOM     18  C   UNL     1       1.745  11.080  18.392  0.00  0.00    +0.000 C 
ATOM     19  O   UNL     1      -0.367  13.092  19.967  0.00  0.00    +0.000 OA
ATOM     20  C   UNL     1      -1.479  13.537  20.743  0.00  0.00    +0.000 C 
ATOM     21  C   UNL     1      -1.265  13.362  22.236  0.00  0.00    +0.000 C 
ATOM     22  C   UNL     1      -0.822  11.944  22.496  0.00  0.00    +0.000 C 
ATOM     23  O   UNL     1       0.365  11.713  21.752  0.00  0.00    +0.000 OA
ENDBRANCH  12  13
ENDBRANCH   5  12
BRANCH   7  24
ATOM     24  C   UNL     1       5.373   6.624  16.706  0.00  0.00    +0.000 C 
BRANCH  24  25
ATOM     25  C   UNL     1       6.501   6.730  17.739  0.00  0.00    +0.000 C 
BRANCH  25  26
ATOM     26  C   UNL     1       7.424   7.886  17.387  0.00  0.00    +0.000 C 
BRANCH  26  27
ATOM     27  C   UNL     1       8.491   8.138  18.455  0.00  0.00    +0.000 C 
BRANCH  27  28
ATOM     28  C   UNL     1       8.663   9.627  18.623  0.00  0.00    +0.000 A 
ATOM     29  C   UNL     1       8.292  10.501  17.593  0.00  0.00    +0.000 A 
ATOM     30  C   UNL     1       8.587  11.861  17.684  0.00  0.00    +0.000 A 
ATOM     31  C   UNL     1       9.253  12.357  18.803  0.00  0.00    +0.000 A 
ATOM     32  C   UNL     1       9.607  11.498  19.844  0.00  0.00    +0.000 A 
ATOM     33  C   UNL     1       9.311  10.139  19.756  0.00  0.00    +0.000 A 
ENDBRANCH  27  28
ENDBRANCH  26  27
ENDBRANCH  25  26
ENDBRANCH  24  25
ENDBRANCH   7  24
TORSDOF 8
ENDMDL
MODEL 6
REMARK VINA RESULT:      -7.7      2.553      4.582
REMARK  Name = 
REMARK  9 active torsions:
REMARK  status: ('A' for Active; 'I' for Inactive)
REMARK    1  A    between atoms: C_1  and  O_2
REMARK    2  A    between atoms: O_2  and  C_3
REMARK    3  A    between atoms: C_7  and  C_8
REMARK    4  A    between atoms: C_8  and  N_9
REMARK    5  A    between atoms: N_21  and  C_22
REMARK    6  A    between atoms: C_22  and  C_23
REMARK    7  A    between atoms: C_23  and  C_24
REMARK    8  A    between atoms: C_24  and  C_25
REMARK    9  A    between atoms: C_25  and  C_26
REMARK                            x       y       z     vdW  Elec       q    Type
REMARK                         _______ _______ _______ _____ _____    ______ ____
ROOT
ATOM      1  C   UNL     1       5.754   5.689  16.988  0.00  0.00    +0.000 A 
ATOM      2  C   UNL     1       5.167   6.593  16.107  0.00  0.00    +0.000 A 
ATOM      3  C   UNL     1       4.050   7.365  16.503  0.00  0.00    +0.000 A 
ATOM      4  C   UNL     1       3.492   7.212  17.793  0.00  0.00    +0.000 A 
ATOM      5  C   UNL     1       2.451   7.862  18.562  0.00  0.00    +0.000 A 
ATOM      6  C   UNL     1       2.311   7.123  19.722  0.00  0.00    +0.000 A 
ATOM      7  N   UNL     1       3.185   6.070  19.674  0.00  0.00    +0.000 N 
ATOM      8  C   UNL     1       4.019   6.197  18.594  0.00  0.00    +0.000 A 
ATOM      9  C   UNL     1       5.176   5.477  18.242  0.00  0.00    +0.000 A 
ENDROOT
BRANCH   1  11
ATOM     10  C   UNL     1       7.693   4.628  17.902  0.00  0.00    +0.000 C 
ATOM     11  O   UNL     1       6.890   4.955  16.780  0.00  0.00    +0.000 OA
ENDBRANCH   1  11
BRANCH   5  12
ATOM     12  C   UNL     1       1.612   9.054  18.159  0.00  0.00    +0.000 C 
BRANCH  12  13
ATOM     13  N   UNL     1       1.651  10.166  19.146  0.00  0.00    +0.000 NA
ATOM     14  C   UNL     1       1.164  11.458  18.655  0.00  0.00    +0.000 C 
ATOM     15  C   UNL     1      -0.295  11.433  18.218  0.00  0.00    +0.000 C 
ATOM     16  C   UNL     1      -1.268  10.794  19.228  0.00  0.00    +0.000 C 
ATOM     17  C   UNL     1      -0.622   9.701  20.111  0.00  0.00    +0.000 C 
ATOM     18  C   UNL     1       0.876   9.851  20.354  0.00  0.00    +0.000 C 
ATOM     19  O   UNL     1      -1.832  11.751  20.142  0.00  0.00    +0.000 OA
ATOM     20  C   UNL     1      -2.841  12.604  19.601  0.00  0.00    +0.000 C 
ATOM     21  C   UNL     1      -3.879  11.849  18.789  0.00  0.00    +0.000 C 
ATOM     22  C   UNL     1      -3.165  10.976  17.787  0.00  0.00    +0.000 C 
ATOM     23  O   UNL     1      -2.303  10.103  18.502  0.00  0.00    +0.000 OA
ENDBRANCH  12  13
ENDBRANCH   5  12
BRANCH   7  24
ATOM     24  C   UNL     1       3.110   4.912  20.546  0.00  0.00    +0.000 C 
BRANCH  24  25
ATOM     25  C   UNL     1       1.708   4.740  21.140  0.00  0.00    +0.000 C 
BRANCH  25  26
ATOM     26  C   UNL     1       1.339   3.265  21.190  0.00  0.00    +0.000 C 
BRANCH  26  27
ATOM     27  C   UNL     1       0.605   2.795  19.933  0.00  0.00    +0.000 C 
BRANCH  27  28
ATOM     28  C   UNL     1       1.604   2.673  18.808  0.00  0.00    +0.000 A 
ATOM     29  C   UNL     1       2.661   1.759  18.900  0.00  0.00    +0.000 A 
ATOM     30  C   UNL     1       3.668   1.749  17.936  0.00  0.00    +0.000 A 
ATOM     31  C   UNL     1       3.625   2.650  16.873  0.00  0.00    +0.000 A 
ATOM     32  C   UNL     1       2.564   3.548  16.761  0.00  0.00    +0.000 A 
ATOM     33  C   UNL     1       1.556   3.560  17.723  0.00  0.00    +0.000 A 
ENDBRANCH  27  28
ENDBRANCH  26  27
ENDBRANCH  25  26
ENDBRANCH  24  25
ENDBRANCH   7  24
TORSDOF 8
ENDMDL
MODEL 7
REMARK VINA RESULT:      -7.7      1.296      1.554
REMARK  Name = 
REMARK  9 active torsions:
REMARK  status: ('A' for Active; 'I' for Inactive)
REMARK    1  A    between atoms: C_1  and  O_2
REMARK    2  A    between atoms: O_2  and  C_3
REMARK    3  A    between atoms: C_7  and  C_8
REMARK    4  A    between atoms: C_8  and  N_9
REMARK    5  A    between atoms: N_21  and  C_22
REMARK    6  A    between atoms: C_22  and  C_23
REMARK    7  A    between atoms: C_23  and  C_24
REMARK    8  A    between atoms: C_24  and  C_25
REMARK    9  A    between atoms: C_25  and  C_26
REMARK                            x       y       z     vdW  Elec       q    Type
REMARK                         _______ _______ _______ _____ _____    ______ ____
ROOT
ATOM      1  C   UNL     1       2.012   3.328  19.350  0.00  0.00    +0.000 A 
ATOM      2  C   UNL     1       1.440   3.940  20.461  0.00  0.00    +0.000 A 
ATOM      3  C   UNL     1       1.461   5.347  20.601  0.00  0.00    +0.000 A 
ATOM      4  C   UNL     1       2.092   6.156  19.626  0.00  0.00    +0.000 A 
ATOM      5  C   UNL     1       2.232   7.577  19.385  0.00  0.00    +0.000 A 
ATOM      6  C   UNL     1       3.103   7.701  18.318  0.00  0.00    +0.000 A 
ATOM      7  N   UNL     1       3.499   6.448  17.932  0.00  0.00    +0.000 N 
ATOM      8  C   UNL     1       2.775   5.497  18.603  0.00  0.00    +0.000 A 
ATOM      9  C   UNL     1       2.695   4.105  18.412  0.00  0.00    +0.000 A 
ENDROOT
BRANCH   1  11
ATOM     10  C   UNL     1       3.164   1.390  18.548  0.00  0.00    +0.000 C 
ATOM     11  O   UNL     1       1.978   1.996  19.034  0.00  0.00    +0.000 OA
ENDBRANCH   1  11
BRANCH   5  12
ATOM     12  C   UNL     1       1.632   8.714  20.180  0.00  0.00    +0.000 C 
BRANCH  12  13
ATOM     13  N   UNL     1       0.354   9.223  19.614  0.00  0.00    +0.000 NA
ATOM     14  C   UNL     1      -0.397  10.135  20.481  0.00  0.00    +0.000 C 
ATOM     15  C   UNL     1       0.361  11.410  20.825  0.00  0.00    +0.000 C 
ATOM     16  C   UNL     1       0.991  12.141  19.623  0.00  0.00    +0.000 C 
ATOM     17  C   UNL     1       1.384  11.203  18.458  0.00  0.00    +0.000 C 
ATOM     18  C   UNL     1       0.563   9.923  18.339  0.00  0.00    +0.000 C 
ATOM     19  O   UNL     1       0.116  13.130  19.051  0.00  0.00    +0.000 OA
ATOM     20  C   UNL     1      -0.028  14.337  19.800  0.00  0.00    +0.000 C 
ATOM     21  C   UNL     1       1.300  14.898  20.278  0.00  0.00    +0.000 C 
ATOM     22  C   UNL     1       2.067  13.798  20.967  0.00  0.00    +0.000 C 
ATOM     23  O   UNL     1       2.236  12.734  20.041  0.00  0.00    +0.000 OA
ENDBRANCH  12  13
ENDBRANCH   5  12
BRANCH   7  24
ATOM     24  C   UNL     1       4.636   6.185  17.068  0.00  0.00    +0.000 C 
BRANCH  24  25
ATOM     25  C   UNL     1       5.694   5.328  17.772  0.00  0.00    +0.000 C 
BRANCH  25  26
ATOM     26  C   UNL     1       6.572   4.633  16.744  0.00  0.00    +0.000 C 
BRANCH  26  27
ATOM     27  C   UNL     1       7.034   5.572  15.628  0.00  0.00    +0.000 C 
BRANCH  27  28
ATOM     28  C   UNL     1       6.734   4.926  14.298  0.00  0.00    +0.000 A 
ATOM     29  C   UNL     1       5.638   4.063  14.165  0.00  0.00    +0.000 A 
ATOM     30  C   UNL     1       5.446   3.348  12.983  0.00  0.00    +0.000 A 
ATOM     31  C   UNL     1       6.344   3.492  11.926  0.00  0.00    +0.000 A 
ATOM     32  C   UNL     1       7.425   4.366  12.042  0.00  0.00    +0.000 A 
ATOM     33  C   UNL     1       7.619   5.082  13.221  0.00  0.00    +0.000 A 
ENDBRANCH  27  28
ENDBRANCH  26  27
ENDBRANCH  25  26
ENDBRANCH  24  25
ENDBRANCH   7  24
TORSDOF 8
ENDMDL
MODEL 8
REMARK VINA RESULT:      -7.7      2.921     10.284
REMARK  Name = 
REMARK  9 active torsions:
REMARK  status: ('A' for Active; 'I' for Inactive)
REMARK    1  A    between atoms: C_1  and  O_2
REMARK    2  A    between atoms: O_2  and  C_3
REMARK    3  A    between atoms: C_7  and  C_8
REMARK    4  A    between atoms: C_8  and  N_9
REMARK    5  A    between atoms: N_21  and  C_22
REMARK    6  A    between atoms: C_22  and  C_23
REMARK    7  A    between atoms: C_23  and  C_24
REMARK    8  A    between atoms: C_24  and  C_25
REMARK    9  A    between atoms: C_25  and  C_26
REMARK                            x       y       z     vdW  Elec       q    Type
REMARK                         _______ _______ _______ _____ _____    ______ ____
ROOT
ATOM      1  C   UNL     1      -0.424  10.453  22.511  0.00  0.00    +0.000 A 
ATOM      2  C   UNL     1       0.169   9.250  22.884  0.00  0.00    +0.000 A 
ATOM      3  C   UNL     1       0.886   8.476  21.942  0.00  0.00    +0.000 A 
ATOM      4  C   UNL     1       0.987   8.897  20.595  0.00  0.00    +0.000 A 
ATOM      5  C   UNL     1       1.684   8.440  19.411  0.00  0.00    +0.000 A 
ATOM      6  C   UNL     1       1.237   9.233  18.371  0.00  0.00    +0.000 A 
ATOM      7  N   UNL     1       0.307  10.111  18.863  0.00  0.00    +0.000 N 
ATOM      8  C   UNL     1       0.261  10.032  20.231  0.00  0.00    +0.000 A 
ATOM      9  C   UNL     1      -0.389  10.851  21.173  0.00  0.00    +0.000 A 
ENDROOT
BRANCH   1  11
ATOM     10  C   UNL     1      -1.125  12.704  22.917  0.00  0.00    +0.000 C 
ATOM     11  O   UNL     1      -1.056  11.349  23.330  0.00  0.00    +0.000 OA
ENDBRANCH   1  11
BRANCH   5  12
ATOM     12  C   UNL     1       2.643   7.276  19.294  0.00  0.00    +0.000 C 
BRANCH  12  13
ATOM     13  N   UNL     1       2.704   6.695  17.926  0.00  0.00    +0.000 NA
ATOM     14  C   UNL     1       3.939   5.975  17.606  0.00  0.00    +0.000 C 
ATOM     15  C   UNL     1       4.196   4.773  18.504  0.00  0.00    +0.000 C 
ATOM     16  C   UNL     1       2.998   3.818  18.676  0.00  0.00    +0.000 C 
ATOM     17  C   UNL     1       1.622   4.514  18.552  0.00  0.00    +0.000 C 
ATOM     18  C   UNL     1       1.593   5.764  17.679  0.00  0.00    +0.000 C 
ATOM     19  O   UNL     1       2.988   2.756  17.705  0.00  0.00    +0.000 OA
ATOM     20  C   UNL     1       3.940   1.714  17.917  0.00  0.00    +0.000 C 
ATOM     21  C   UNL     1       3.972   1.227  19.355  0.00  0.00    +0.000 C 
ATOM     22  C   UNL     1       4.109   2.422  20.265  0.00  0.00    +0.000 C 
ATOM     23  O   UNL     1       3.013   3.290  20.016  0.00  0.00    +0.000 OA
ENDBRANCH  12  13
ENDBRANCH   5  12
BRANCH   7  24
ATOM     24  C   UNL     1      -0.607  10.876  18.035  0.00  0.00    +0.000 C 
BRANCH  24  25
ATOM     25  C   UNL     1      -1.573   9.965  17.268  0.00  0.00    +0.000 C 
BRANCH  25  26
ATOM     26  C   UNL     1      -2.990  10.150  17.789  0.00  0.00    +0.000 C 
BRANCH  26  27
ATOM     27  C   UNL     1      -3.293  11.598  18.178  0.00  0.00    +0.000 C 
BRANCH  27  28
ATOM     28  C   UNL     1      -4.690  11.664  18.744  0.00  0.00    +0.000 A 
ATOM     29  C   UNL     1      -4.953  12.431  19.886  0.00  0.00    +0.000 A 
ATOM     30  C   UNL     1      -6.205  12.375  20.498  0.00  0.00    +0.000 A 
ATOM     31  C   UNL     1      -7.202  11.554  19.974  0.00  0.00    +0.000 A 
ATOM     32  C   UNL     1      -6.956  10.803  18.824  0.00  0.00    +0.000 A 
ATOM     33  C   UNL     1      -5.707  10.859  18.210  0.00  0.00    +0.000 A 
ENDBRANCH  27  28
ENDBRANCH  26  27
ENDBRANCH  25  26
ENDBRANCH  24  25
ENDBRANCH   7  24
TORSDOF 8
ENDMDL
MODEL 9
REMARK VINA RESULT:      -7.7      3.322      6.525
REMARK  Name = 
REMARK  9 active torsions:
REMARK  status: ('A' for Active; 'I' for Inactive)
REMARK    1  A    between atoms: C_1  and  O_2
REMARK    2  A    between atoms: O_2  and  C_3
REMARK    3  A    between atoms: C_7  and  C_8
REMARK    4  A    between atoms: C_8  and  N_9
REMARK    5  A    between atoms: N_21  and  C_22
REMARK    6  A    between atoms: C_22  and  C_23
REMARK    7  A    between atoms: C_23  and  C_24
REMARK    8  A    between atoms: C_24  and  C_25
REMARK    9  A    between atoms: C_25  and  C_26
REMARK                            x       y       z     vdW  Elec       q    Type
REMARK                         _______ _______ _______ _____ _____    ______ ____
ROOT
ATOM      1  C   UNL     1      -3.729  10.571  15.867  0.00  0.00    +0.000 A 
ATOM      2  C   UNL     1      -4.588  11.198  16.765  0.00  0.00    +0.000 A 
ATOM      3  C   UNL     1      -4.115  11.656  18.017  0.00  0.00    +0.000 A 
ATOM      4  C   UNL     1      -2.765  11.458  18.390  0.00  0.00    +0.000 A 
ATOM      5  C   UNL     1      -1.923  11.851  19.501  0.00  0.00    +0.000 A 
ATOM      6  C   UNL     1      -0.717  11.200  19.319  0.00  0.00    +0.000 A 
ATOM      7  N   UNL     1      -0.803  10.434  18.186  0.00  0.00    +0.000 N 
ATOM      8  C   UNL     1      -1.973  10.701  17.524  0.00  0.00    +0.000 A 
ATOM      9  C   UNL     1      -2.411  10.309  16.245  0.00  0.00    +0.000 A 
ENDROOT
BRANCH   1  11
ATOM     10  C   UNL     1      -2.943   9.875  13.717  0.00  0.00    +0.000 C 
ATOM     11  O   UNL     1      -4.021  10.171  14.591  0.00  0.00    +0.000 OA
ENDBRANCH   1  11
BRANCH   5  12
ATOM     12  C   UNL     1      -2.295  12.722  20.680  0.00  0.00    +0.000 C 
BRANCH  12  13
ATOM     13  N   UNL     1      -1.442  12.495  21.876  0.00  0.00    +0.000 NA
ATOM     14  C   UNL     1      -0.647  13.648  22.308  0.00  0.00    +0.000 C 
ATOM     15  C   UNL     1      -1.488  14.854  22.707  0.00  0.00    +0.000 C 
ATOM     16  C   UNL     1      -2.645  14.551  23.680  0.00  0.00    +0.000 C 
ATOM     17  C   UNL     1      -3.213  13.119  23.547  0.00  0.00    +0.000 C 
ATOM     18  C   UNL     1      -2.234  12.066  23.038  0.00  0.00    +0.000 C 
ATOM     19  O   UNL     1      -2.264  14.693  25.060  0.00  0.00    +0.000 OA
ATOM     20  C   UNL     1      -2.126  16.034  25.529  0.00  0.00    +0.000 C 
ATOM     21  C   UNL     1      -3.285  16.925  25.120  0.00  0.00    +0.000 C 
ATOM     22  C   UNL     1      -3.504  16.779  23.634  0.00  0.00    +0.000 C 
ATOM     23  O   UNL     1      -3.757  15.409  23.361  0.00  0.00    +0.000 OA
ENDBRANCH  12  13
ENDBRANCH   5  12
BRANCH   7  24
ATOM     24  C   UNL     1       0.132   9.377  17.846  0.00  0.00    +0.000 C 
BRANCH  24  25
ATOM     25  C   UNL     1       1.560   9.723  18.284  0.00  0.00    +0.000 C 
BRANCH  25  26
ATOM     26  C   UNL     1       2.533   8.675  17.768  0.00  0.00    +0.000 C 
BRANCH  26  27
ATOM     27  C   UNL     1       2.440   7.353  18.532  0.00  0.00    +0.000 C 
BRANCH  27  28
ATOM     28  C   UNL     1       3.349   6.348  17.869  0.00  0.00    +0.000 A 
ATOM     29  C   UNL     1       4.420   6.780  17.077  0.00  0.00    +0.000 A 
ATOM     30  C   UNL     1       5.169   5.861  16.343  0.00  0.00    +0.000 A 
ATOM     31  C   UNL     1       4.855   4.504  16.398  0.00  0.00    +0.000 A 
ATOM     32  C   UNL     1       3.804   4.061  17.201  0.00  0.00    +0.000 A 
ATOM     33  C   UNL     1       3.055   4.978  17.936  0.00  0.00    +0.000 A 
ENDBRANCH  27  28
ENDBRANCH  26  27
ENDBRANCH  25  26
ENDBRANCH  24  25
ENDBRANCH   7  24
TORSDOF 8
ENDMDL
