MODEL 1
REMARK VINA RESULT:      -6.3      0.000      0.000
REMARK  Name = 
REMARK  5 active torsions:
REMARK  status: ('A' for Active; 'I' for Inactive)
REMARK    1  A    between atoms: C_2  and  N_3
REMARK    2  A    between atoms: N_5  and  C_6
REMARK    3  A    between atoms: C_9  and  C_10
REMARK    4  A    between atoms: C_17  and  O_18
REMARK    5  A    between atoms: N_19  and  C_20
REMARK                            x       y       z     vdW  Elec       q    Type
REMARK                         _______ _______ _______ _____ _____    ______ ____
ROOT
ATOM      1  N   UNL     1      -1.526  12.373  17.249  0.00  0.00    +0.000 N 
ATOM      2  C   UNL     1      -0.580  12.778  18.156  0.00  0.00    +0.000 C 
ATOM      3  N   UNL     1       0.105  12.061  18.963  0.00  0.00    +0.000 NA
ATOM      4  N   UNL     1      -0.399  14.152  18.100  0.00  0.00    +0.000 N 
ATOM      5  H   UNL     1      -1.803  13.040  16.548  0.00  0.00    +0.000 HD
ATOM      6  H   UNL     1      -1.073  14.681  17.569  0.00  0.00    +0.000 HD
ENDROOT
BRANCH   3   7
ATOM      7  C   UNL     1       0.109  10.616  19.144  0.00  0.00    +0.000 C 
ATOM      8  C   UNL     1      -0.185  10.338  20.608  0.00  0.00    +0.000 A 
ATOM      9  C   UNL     1      -1.194  11.068  21.265  0.00  0.00    +0.000 A 
ATOM     10  C   UNL     1      -1.379  10.958  22.645  0.00  0.00    +0.000 A 
ATOM     11  C   UNL     1      -0.596  10.062  23.374  0.00  0.00    +0.000 A 
ATOM     12  C   UNL     1       0.370   9.291  22.723  0.00  0.00    +0.000 A 
ATOM     13  C   UNL     1       0.577   9.430  21.348  0.00  0.00    +0.000 A 
ATOM     14  O   UNL     1       1.591   8.679  20.824  0.00  0.00    +0.000 OA
ATOM     15  C   UNL     1       1.632   8.649  19.399  0.00  0.00    +0.000 C 
ATOM     16  C   UNL     1       1.484  10.030  18.762  0.00  0.00    +0.000 C 
BRANCH  10  17
ATOM     17  C   UNL     1      -2.321  11.810  23.310  0.00  0.00    +0.000 C 
ATOM     18  N   UNL     1      -3.084  12.484  23.868  0.00  0.00    +0.000 NA
ENDBRANCH  10  17
BRANCH  16  19
ATOM     19  O   UNL     1       1.642   9.917  17.340  0.00  0.00    +0.000 OA
ATOM     20  H   UNL     1       0.796  10.166  16.925  0.00  0.00    +0.000 HD
ENDBRANCH  16  19
ENDBRANCH   3   7
BRANCH   4  21
ATOM     21  C   UNL     1       0.282  14.977  19.034  0.00  0.00    +0.000 A 
ATOM     22  C   UNL     1      -0.271  15.433  20.238  0.00  0.00    +0.000 A 
ATOM     23  C   UNL     1       0.414  16.333  21.063  0.00  0.00    +0.000 A 
ATOM     24  C   UNL     1       1.689  16.766  20.716  0.00  0.00    +0.000 A 
ATOM     25  C   UNL     1       2.288  16.276  19.561  0.00  0.00    +0.000 A 
ATOM     26  C   UNL     1       1.593  15.385  18.734  0.00  0.00    +0.000 A 
ENDBRANCH   4  21
BRANCH   1  28
ATOM     27  N   UNL     1      -3.389  10.759  18.069  0.00  0.00    +0.000 NA
ATOM     28  C   UNL     1      -2.576  11.492  17.689  0.00  0.00    +0.000 C 
ENDBRANCH   1  28
TORSDOF 5
ENDMDL
MODEL 2
REMARK VINA RESULT:      -6.1      0.350      1.020
REMARK  Name = 
REMARK  5 active torsions:
REMARK  status: ('A' for Active; 'I' for Inactive)
REMARK    1  A    between atoms: C_2  and  N_3
REMARK    2  A    between atoms: N_5  and  C_6
REMARK    3  A    between atoms: C_9  and  C_10
REMARK    4  A    between atoms: C_17  and  O_18
REMARK    5  A    between atoms: N_19  and  C_20
REMARK                            x       y       z     vdW  Elec       q    Type
REMARK                         _______ _______ _______ _____ _____    ______ ____
ROOT
ATOM      1  N   UNL     1      -1.331  12.546  17.363  0.00  0.00    +0.000 N 
ATOM      2  C   UNL     1      -0.316  12.857  18.231  0.00  0.00    +0.000 C 
ATOM      3  N   UNL     1       0.357  12.070  18.980  0.00  0.00    +0.000 NA
ATOM      4  N   UNL     1      -0.046  14.217  18.206  0.00  0.00    +0.000 N 
ATOM      5  H   UNL     1      -1.597  13.252  16.697  0.00  0.00    +0.000 HD
ATOM      6  H   UNL     1      -0.708  14.807  17.727  0.00  0.00    +0.000 HD
ENDROOT
BRANCH   3   7
ATOM      7  C   UNL     1       0.273  10.623  19.119  0.00  0.00    +0.000 C 
ATOM      8  C   UNL     1      -0.076  10.321  20.566  0.00  0.00    +0.000 A 
ATOM      9  C   UNL     1      -1.058  11.091  21.219  0.00  0.00    +0.000 A 
ATOM     10  C   UNL     1      -1.285  10.953  22.590  0.00  0.00    +0.000 A 
ATOM     11  C   UNL     1      -0.576   9.992  23.311  0.00  0.00    +0.000 A 
ATOM     12  C   UNL     1       0.361   9.185  22.661  0.00  0.00    +0.000 A 
ATOM     13  C   UNL     1       0.612   9.350  21.297  0.00  0.00    +0.000 A 
ATOM     14  O   UNL     1       1.594   8.556  20.777  0.00  0.00    +0.000 OA
ATOM     15  C   UNL     1       1.671   8.563  19.353  0.00  0.00    +0.000 C 
ATOM     16  C   UNL     1       1.621   9.968  18.753  0.00  0.00    +0.000 C 
BRANCH  10  17
ATOM     17  C   UNL     1      -2.194  11.840  23.257  0.00  0.00    +0.000 C 
ATOM     18  N   UNL     1      -2.937  12.566  23.773  0.00  0.00    +0.000 NA
ENDBRANCH  10  17
BRANCH  16  19
ATOM     19  O   UNL     1       1.810   9.886  17.333  0.00  0.00    +0.000 OA
ATOM     20  H   UNL     1       1.894   8.944  17.097  0.00  0.00    +0.000 HD
ENDBRANCH  16  19
ENDBRANCH   3   7
BRANCH   4  21
ATOM     21  C   UNL     1       0.734  14.964  19.128  0.00  0.00    +0.000 A 
ATOM     22  C   UNL     1       2.085  15.287  18.944  0.00  0.00    +0.000 A 
ATOM     23  C   UNL     1       2.825  15.932  19.942  0.00  0.00    +0.000 A 
ATOM     24  C   UNL     1       2.214  16.304  21.134  0.00  0.00    +0.000 A 
ATOM     25  C   UNL     1       0.858  16.055  21.315  0.00  0.00    +0.000 A 
ATOM     26  C   UNL     1       0.126  15.400  20.318  0.00  0.00    +0.000 A 
ENDBRANCH   4  21
BRANCH   1  28
ATOM     27  N   UNL     1      -3.317  11.080  18.175  0.00  0.00    +0.000 NA
ATOM     28  C   UNL     1      -2.415  11.722  17.830  0.00  0.00    +0.000 C 
ENDBRANCH   1  28
TORSDOF 5
ENDMDL
MODEL 3
REMARK VINA RESULT:      -6.1      4.121      6.662
REMARK  Name = 
REMARK  5 active torsions:
REMARK  status: ('A' for Active; 'I' for Inactive)
REMARK    1  A    between atoms: C_2  and  N_3
REMARK    2  A    between atoms: N_5  and  C_6
REMARK    3  A    between atoms: C_9  and  C_10
REMARK    4  A    between atoms: C_17  and  O_18
REMARK    5  A    between atoms: N_19  and  C_20
REMARK                            x       y       z     vdW  Elec       q    Type
REMARK                         _______ _______ _______ _____ _____    ______ ____
ROOT
ATOM      1  N   UNL     1      -6.983  13.624  17.937  0.00  0.00    +0.000 N 
ATOM      2  C   UNL     1      -5.958  12.749  18.191  0.00  0.00    +0.000 C 
ATOM      3  N   UNL     1      -5.307  12.582  19.279  0.00  0.00    +0.000 NA
ATOM      4  N   UNL     1      -5.679  11.978  17.072  0.00  0.00    +0.000 N 
ATOM      5  H   UNL     1      -7.520  13.470  17.100  0.00  0.00    +0.000 HD
ATOM      6  H   UNL     1      -6.104  12.262  16.203  0.00  0.00    +0.000 HD
ENDROOT
BRANCH   3   7
ATOM      7  C   UNL     1      -5.472  13.239  20.568  0.00  0.00    +0.000 C 
ATOM      8  C   UNL     1      -4.177  13.061  21.341  0.00  0.00    +0.000 A 
ATOM      9  C   UNL     1      -2.945  13.233  20.681  0.00  0.00    +0.000 A 
ATOM     10  C   UNL     1      -1.741  12.915  21.314  0.00  0.00    +0.000 A 
ATOM     11  C   UNL     1      -1.753  12.485  22.641  0.00  0.00    +0.000 A 
ATOM     12  C   UNL     1      -2.967  12.365  23.322  0.00  0.00    +0.000 A 
ATOM     13  C   UNL     1      -4.173  12.649  22.676  0.00  0.00    +0.000 A 
ATOM     14  O   UNL     1      -5.303  12.434  23.412  0.00  0.00    +0.000 OA
ATOM     15  C   UNL     1      -6.498  12.950  22.830  0.00  0.00    +0.000 C 
ATOM     16  C   UNL     1      -6.644  12.607  21.348  0.00  0.00    +0.000 C 
BRANCH  10  17
ATOM     17  C   UNL     1      -0.511  12.970  20.578  0.00  0.00    +0.000 C 
ATOM     18  N   UNL     1       0.480  13.039  19.978  0.00  0.00    +0.000 NA
ENDBRANCH  10  17
BRANCH  16  19
ATOM     19  O   UNL     1      -7.916  13.074  20.875  0.00  0.00    +0.000 OA
ATOM     20  H   UNL     1      -8.582  12.865  21.555  0.00  0.00    +0.000 HD
ENDBRANCH  16  19
ENDBRANCH   3   7
BRANCH   4  21
ATOM     21  C   UNL     1      -4.542  11.159  16.844  0.00  0.00    +0.000 A 
ATOM     22  C   UNL     1      -3.907  10.392  17.831  0.00  0.00    +0.000 A 
ATOM     23  C   UNL     1      -2.725   9.692  17.564  0.00  0.00    +0.000 A 
ATOM     24  C   UNL     1      -2.173   9.713  16.288  0.00  0.00    +0.000 A 
ATOM     25  C   UNL     1      -2.819  10.411  15.274  0.00  0.00    +0.000 A 
ATOM     26  C   UNL     1      -3.996  11.119  15.549  0.00  0.00    +0.000 A 
ENDBRANCH   4  21
BRANCH   1  28
ATOM     27  N   UNL     1      -6.651  16.125  18.558  0.00  0.00    +0.000 NA
ATOM     28  C   UNL     1      -6.819  15.008  18.298  0.00  0.00    +0.000 C 
ENDBRANCH   1  28
TORSDOF 5
ENDMDL
MODEL 4
REMARK VINA RESULT:      -6.0      4.064      6.037
REMARK  Name = 
REMARK  5 active torsions:
REMARK  status: ('A' for Active; 'I' for Inactive)
REMARK    1  A    between atoms: C_2  and  N_3
REMARK    2  A    between atoms: N_5  and  C_6
REMARK    3  A    between atoms: C_9  and  C_10
REMARK    4  A    between atoms: C_17  and  O_18
REMARK    5  A    between atoms: N_19  and  C_20
REMARK                            x       y       z     vdW  Elec       q    Type
REMARK                         _______ _______ _______ _____ _____    ______ ____
ROOT
ATOM      1  N   UNL     1      -5.657  11.840  17.039  0.00  0.00    +0.000 N 
ATOM      2  C   UNL     1      -4.666  11.730  17.980  0.00  0.00    +0.000 C 
ATOM      3  N   UNL     1      -4.723  11.999  19.229  0.00  0.00    +0.000 NA
ATOM      4  N   UNL     1      -3.501  11.235  17.414  0.00  0.00    +0.000 N 
ATOM      5  H   UNL     1      -5.504  11.381  16.156  0.00  0.00    +0.000 HD
ATOM      6  H   UNL     1      -3.462  11.197  16.407  0.00  0.00    +0.000 HD
ENDROOT
BRANCH   3   7
ATOM      7  C   UNL     1      -5.848  12.472  20.025  0.00  0.00    +0.000 C 
ATOM      8  C   UNL     1      -5.281  13.147  21.262  0.00  0.00    +0.000 A 
ATOM      9  C   UNL     1      -4.171  14.006  21.137  0.00  0.00    +0.000 A 
ATOM     10  C   UNL     1      -3.523  14.510  22.267  0.00  0.00    +0.000 A 
ATOM     11  C   UNL     1      -4.021  14.213  23.536  0.00  0.00    +0.000 A 
ATOM     12  C   UNL     1      -5.155  13.408  23.668  0.00  0.00    +0.000 A 
ATOM     13  C   UNL     1      -5.780  12.876  22.537  0.00  0.00    +0.000 A 
ATOM     14  O   UNL     1      -6.839  12.048  22.783  0.00  0.00    +0.000 OA
ATOM     15  C   UNL     1      -7.607  11.709  21.630  0.00  0.00    +0.000 C 
ATOM     16  C   UNL     1      -6.750  11.290  20.436  0.00  0.00    +0.000 C 
BRANCH  10  17
ATOM     17  C   UNL     1      -2.316  15.271  22.118  0.00  0.00    +0.000 C 
ATOM     18  N   UNL     1      -1.351  15.900  21.979  0.00  0.00    +0.000 NA
ENDBRANCH  10  17
BRANCH  16  19
ATOM     19  O   UNL     1      -7.605  10.869  19.362  0.00  0.00    +0.000 OA
ATOM     20  H   UNL     1      -8.462  11.318  19.470  0.00  0.00    +0.000 HD
ENDBRANCH  16  19
ENDBRANCH   3   7
BRANCH   4  21
ATOM     21  C   UNL     1      -2.199  11.223  17.980  0.00  0.00    +0.000 A 
ATOM     22  C   UNL     1      -1.547  10.072  18.443  0.00  0.00    +0.000 A 
ATOM     23  C   UNL     1      -0.307  10.144  19.089  0.00  0.00    +0.000 A 
ATOM     24  C   UNL     1       0.325  11.370  19.252  0.00  0.00    +0.000 A 
ATOM     25  C   UNL     1      -0.268  12.520  18.742  0.00  0.00    +0.000 A 
ATOM     26  C   UNL     1      -1.513  12.444  18.106  0.00  0.00    +0.000 A 
ENDBRANCH   4  21
BRANCH   1  28
ATOM     27  N   UNL     1      -7.037  14.036  16.884  0.00  0.00    +0.000 NA
ATOM     28  C   UNL     1      -6.400  13.071  16.954  0.00  0.00    +0.000 C 
ENDBRANCH   1  28
TORSDOF 5
ENDMDL
MODEL 5
REMARK VINA RESULT:      -6.0      7.386     10.746
REMARK  Name = 
REMARK  5 active torsions:
REMARK  status: ('A' for Active; 'I' for Inactive)
REMARK    1  A    between atoms: C_2  and  N_3
REMARK    2  A    between atoms: N_5  and  C_6
REMARK    3  A    between atoms: C_9  and  C_10
REMARK    4  A    between atoms: C_17  and  O_18
REMARK    5  A    between atoms: N_19  and  C_20
REMARK                            x       y       z     vdW  Elec       q    Type
REMARK                         _______ _______ _______ _____ _____    ______ ____
ROOT
ATOM      1  N   UNL     1       7.667   6.282  17.636  0.00  0.00    +0.000 N 
ATOM      2  C   UNL     1       6.773   5.938  16.654  0.00  0.00    +0.000 C 
ATOM      3  N   UNL     1       5.496   5.973  16.695  0.00  0.00    +0.000 NA
ATOM      4  N   UNL     1       7.434   5.535  15.504  0.00  0.00    +0.000 N 
ATOM      5  H   UNL     1       8.627   6.401  17.359  0.00  0.00    +0.000 HD
ATOM      6  H   UNL     1       8.426   5.370  15.580  0.00  0.00    +0.000 HD
ENDROOT
BRANCH   3   7
ATOM      7  C   UNL     1       4.614   6.408  17.770  0.00  0.00    +0.000 C 
ATOM      8  C   UNL     1       3.670   5.259  18.081  0.00  0.00    +0.000 A 
ATOM      9  C   UNL     1       4.174   3.946  18.151  0.00  0.00    +0.000 A 
ATOM     10  C   UNL     1       3.314   2.852  18.268  0.00  0.00    +0.000 A 
ATOM     11  C   UNL     1       1.941   3.066  18.386  0.00  0.00    +0.000 A 
ATOM     12  C   UNL     1       1.436   4.369  18.375  0.00  0.00    +0.000 A 
ATOM     13  C   UNL     1       2.295   5.460  18.221  0.00  0.00    +0.000 A 
ATOM     14  O   UNL     1       1.691   6.683  18.155  0.00  0.00    +0.000 OA
ATOM     15  C   UNL     1       2.585   7.791  18.240  0.00  0.00    +0.000 C 
ATOM     16  C   UNL     1       3.808   7.650  17.335  0.00  0.00    +0.000 C 
BRANCH  10  17
ATOM     17  C   UNL     1       3.840   1.519  18.201  0.00  0.00    +0.000 C 
ATOM     18  N   UNL     1       4.289   0.450  18.153  0.00  0.00    +0.000 NA
ENDBRANCH  10  17
BRANCH  16  19
ATOM     19  O   UNL     1       4.593   8.850  17.406  0.00  0.00    +0.000 OA
ATOM     20  H   UNL     1       4.112   9.488  17.963  0.00  0.00    +0.000 HD
ENDBRANCH  16  19
ENDBRANCH   3   7
BRANCH   4  21
ATOM     21  C   UNL     1       6.887   4.865  14.378  0.00  0.00    +0.000 A 
ATOM     22  C   UNL     1       5.694   4.131  14.395  0.00  0.00    +0.000 A 
ATOM     23  C   UNL     1       5.267   3.403  13.278  0.00  0.00    +0.000 A 
ATOM     24  C   UNL     1       6.009   3.427  12.104  0.00  0.00    +0.000 A 
ATOM     25  C   UNL     1       7.162   4.201  12.038  0.00  0.00    +0.000 A 
ATOM     26  C   UNL     1       7.591   4.918  13.162  0.00  0.00    +0.000 A 
ENDBRANCH   4  21
BRANCH   1  28
ATOM     27  N   UNL     1       7.326   5.355  20.039  0.00  0.00    +0.000 NA
ATOM     28  C   UNL     1       7.485   5.745  18.959  0.00  0.00    +0.000 C 
ENDBRANCH   1  28
TORSDOF 5
ENDMDL
MODEL 6
REMARK VINA RESULT:      -5.9      2.339      4.869
REMARK  Name = 
REMARK  5 active torsions:
REMARK  status: ('A' for Active; 'I' for Inactive)
REMARK    1  A    between atoms: C_2  and  N_3
REMARK    2  A    between atoms: N_5  and  C_6
REMARK    3  A    between atoms: C_9  and  C_10
REMARK    4  A    between atoms: C_17  and  O_18
REMARK    5  A    between atoms: N_19  and  C_20
REMARK                            x       y       z     vdW  Elec       q    Type
REMARK                         _______ _______ _______ _____ _____    ______ ____
ROOT
ATOM      1  N   UNL     1       0.887   9.152  18.271  0.00  0.00    +0.000 N 
ATOM      2  C   UNL     1       0.015  10.207  18.192  0.00  0.00    +0.000 C 
ATOM      3  N   UNL     1       0.146  11.384  18.676  0.00  0.00    +0.000 NA
ATOM      4  N   UNL     1      -1.110   9.864  17.458  0.00  0.00    +0.000 N 
ATOM      5  H   UNL     1       0.723   8.376  17.651  0.00  0.00    +0.000 HD
ATOM      6  H   UNL     1      -1.237   8.887  17.244  0.00  0.00    +0.000 HD
ENDROOT
BRANCH   3   7
ATOM      7  C   UNL     1       1.256  11.960  19.422  0.00  0.00    +0.000 C 
ATOM      8  C   UNL     1       0.672  12.683  20.625  0.00  0.00    +0.000 A 
ATOM      9  C   UNL     1      -0.359  12.074  21.367  0.00  0.00    +0.000 A 
ATOM     10  C   UNL     1      -1.031  12.775  22.371  0.00  0.00    +0.000 A 
ATOM     11  C   UNL     1      -0.631  14.073  22.690  0.00  0.00    +0.000 A 
ATOM     12  C   UNL     1       0.428  14.665  21.997  0.00  0.00    +0.000 A 
ATOM     13  C   UNL     1       1.074  13.975  20.968  0.00  0.00    +0.000 A 
ATOM     14  O   UNL     1       2.050  14.671  20.312  0.00  0.00    +0.000 OA
ATOM     15  C   UNL     1       2.855  13.883  19.438  0.00  0.00    +0.000 C 
ATOM     16  C   UNL     1       2.039  12.955  18.539  0.00  0.00    +0.000 C 
BRANCH  10  17
ATOM     17  C   UNL     1      -2.164  12.182  23.020  0.00  0.00    +0.000 C 
ATOM     18  N   UNL     1      -3.092  11.725  23.548  0.00  0.00    +0.000 NA
ENDBRANCH  10  17
BRANCH  16  19
ATOM     19  O   UNL     1       2.919  12.282  17.626  0.00  0.00    +0.000 OA
ATOM     20  H   UNL     1       3.427  11.624  18.133  0.00  0.00    +0.000 HD
ENDBRANCH  16  19
ENDBRANCH   3   7
BRANCH   4  21
ATOM     21  C   UNL     1      -2.338  10.572  17.370  0.00  0.00    +0.000 A 
ATOM     22  C   UNL     1      -2.996  11.157  18.460  0.00  0.00    +0.000 A 
ATOM     23  C   UNL     1      -4.258  11.747  18.322  0.00  0.00    +0.000 A 
ATOM     24  C   UNL     1      -4.873  11.796  17.077  0.00  0.00    +0.000 A 
ATOM     25  C   UNL     1      -4.213  11.282  15.966  0.00  0.00    +0.000 A 
ATOM     26  C   UNL     1      -2.955  10.684  16.112  0.00  0.00    +0.000 A 
ENDBRANCH   4  21
BRANCH   1  28
ATOM     27  N   UNL     1       1.844   8.542  20.608  0.00  0.00    +0.000 NA
ATOM     28  C   UNL     1       1.425   8.791  19.556  0.00  0.00    +0.000 C 
ENDBRANCH   1  28
TORSDOF 5
ENDMDL
MODEL 7
REMARK VINA RESULT:      -5.9      3.211      5.892
REMARK  Name = 
REMARK  5 active torsions:
REMARK  status: ('A' for Active; 'I' for Inactive)
REMARK    1  A    between atoms: C_2  and  N_3
REMARK    2  A    between atoms: N_5  and  C_6
REMARK    3  A    between atoms: C_9  and  C_10
REMARK    4  A    between atoms: C_17  and  O_18
REMARK    5  A    between atoms: N_19  and  C_20
REMARK                            x       y       z     vdW  Elec       q    Type
REMARK                         _______ _______ _______ _____ _____    ______ ____
ROOT
ATOM      1  N   UNL     1       0.483  10.560  21.128  0.00  0.00    +0.000 N 
ATOM      2  C   UNL     1      -0.533  11.157  20.427  0.00  0.00    +0.000 C 
ATOM      3  N   UNL     1      -1.267  12.144  20.777  0.00  0.00    +0.000 NA
ATOM      4  N   UNL     1      -0.694  10.559  19.186  0.00  0.00    +0.000 N 
ATOM      5  H   UNL     1       1.093   9.945  20.616  0.00  0.00    +0.000 HD
ATOM      6  H   UNL     1      -0.206   9.690  19.030  0.00  0.00    +0.000 HD
ENDROOT
BRANCH   3   7
ATOM      7  C   UNL     1      -1.230  12.939  21.996  0.00  0.00    +0.000 C 
ATOM      8  C   UNL     1      -2.626  13.497  22.220  0.00  0.00    +0.000 A 
ATOM      9  C   UNL     1      -3.745  12.665  22.025  0.00  0.00    +0.000 A 
ATOM     10  C   UNL     1      -5.041  13.185  22.060  0.00  0.00    +0.000 A 
ATOM     11  C   UNL     1      -5.233  14.534  22.357  0.00  0.00    +0.000 A 
ATOM     12  C   UNL     1      -4.131  15.356  22.608  0.00  0.00    +0.000 A 
ATOM     13  C   UNL     1      -2.834  14.841  22.538  0.00  0.00    +0.000 A 
ATOM     14  O   UNL     1      -1.829  15.744  22.733  0.00  0.00    +0.000 OA
ATOM     15  C   UNL     1      -0.535  15.166  22.896  0.00  0.00    +0.000 C 
ATOM     16  C   UNL     1      -0.218  14.095  21.854  0.00  0.00    +0.000 C 
BRANCH  10  17
ATOM     17  C   UNL     1      -6.156  12.347  21.725  0.00  0.00    +0.000 C 
ATOM     18  N   UNL     1      -7.063  11.667  21.478  0.00  0.00    +0.000 NA
ENDBRANCH  10  17
BRANCH  16  19
ATOM     19  O   UNL     1       1.135  13.646  22.030  0.00  0.00    +0.000 OA
ATOM     20  H   UNL     1       1.272  13.479  22.979  0.00  0.00    +0.000 HD
ENDBRANCH  16  19
ENDBRANCH   3   7
BRANCH   4  21
ATOM     21  C   UNL     1      -1.783  10.705  18.287  0.00  0.00    +0.000 A 
ATOM     22  C   UNL     1      -2.874  11.559  18.495  0.00  0.00    +0.000 A 
ATOM     23  C   UNL     1      -3.968  11.575  17.622  0.00  0.00    +0.000 A 
ATOM     24  C   UNL     1      -3.973  10.760  16.495  0.00  0.00    +0.000 A 
ATOM     25  C   UNL     1      -2.873   9.953  16.229  0.00  0.00    +0.000 A 
ATOM     26  C   UNL     1      -1.787   9.933  17.112  0.00  0.00    +0.000 A 
ENDBRANCH   4  21
BRANCH   1  28
ATOM     27  N   UNL     1       0.024   9.832  23.580  0.00  0.00    +0.000 NA
ATOM     28  C   UNL     1       0.248  10.172  22.495  0.00  0.00    +0.000 C 
ENDBRANCH   1  28
TORSDOF 5
ENDMDL
MODEL 8
REMARK VINA RESULT:      -5.9      7.894     10.227
REMARK  Name = 
REMARK  5 active torsions:
REMARK  status: ('A' for Active; 'I' for Inactive)
REMARK    1  A    between atoms: C_2  and  N_3
REMARK    2  A    between atoms: N_5  and  C_6
REMARK    3  A    between atoms: C_9  and  C_10
REMARK    4  A    between atoms: C_17  and  O_18
REMARK    5  A    between atoms: N_19  and  C_20
REMARK                            x       y       z     vdW  Elec       q    Type
REMARK                         _______ _______ _______ _____ _____    ______ ____
ROOT
ATOM      1  N   UNL     1       5.765  15.878  19.967  0.00  0.00    +0.000 N 
ATOM      2  C   UNL     1       6.809  15.175  20.513  0.00  0.00    +0.000 C 
ATOM      3  N   UNL     1       7.917  14.847  19.966  0.00  0.00    +0.000 NA
ATOM      4  N   UNL     1       6.543  14.842  21.832  0.00  0.00    +0.000 N 
ATOM      5  H   UNL     1       5.070  16.233  20.603  0.00  0.00    +0.000 HD
ATOM      6  H   UNL     1       5.599  14.980  22.158  0.00  0.00    +0.000 HD
ENDROOT
BRANCH   3   7
ATOM      7  C   UNL     1       8.412  15.138  18.628  0.00  0.00    +0.000 C 
ATOM      8  C   UNL     1       9.255  13.955  18.185  0.00  0.00    +0.000 A 
ATOM      9  C   UNL     1       8.800  12.646  18.434  0.00  0.00    +0.000 A 
ATOM     10  C   UNL     1       9.620  11.541  18.193  0.00  0.00    +0.000 A 
ATOM     11  C   UNL     1      10.884  11.732  17.634  0.00  0.00    +0.000 A 
ATOM     12  C   UNL     1      11.323  13.023  17.330  0.00  0.00    +0.000 A 
ATOM     13  C   UNL     1      10.515  14.129  17.606  0.00  0.00    +0.000 A 
ATOM     14  O   UNL     1      11.067  15.348  17.333  0.00  0.00    +0.000 OA
ATOM     15  C   UNL     1      10.153  16.441  17.393  0.00  0.00    +0.000 C 
ATOM     16  C   UNL     1       9.270  16.421  18.639  0.00  0.00    +0.000 C 
BRANCH  10  17
ATOM     17  C   UNL     1       9.185  10.230  18.581  0.00  0.00    +0.000 C 
ATOM     18  N   UNL     1       8.815   9.181  18.908  0.00  0.00    +0.000 NA
ENDBRANCH  10  17
BRANCH  16  19
ATOM     19  O   UNL     1       8.460  17.606  18.667  0.00  0.00    +0.000 OA
ATOM     20  H   UNL     1       7.535  17.339  18.520  0.00  0.00    +0.000 HD
ENDBRANCH  16  19
ENDBRANCH   3   7
BRANCH   4  21
ATOM     21  C   UNL     1       7.238  13.912  22.650  0.00  0.00    +0.000 A 
ATOM     22  C   UNL     1       7.318  12.537  22.393  0.00  0.00    +0.000 A 
ATOM     23  C   UNL     1       7.927  11.658  23.297  0.00  0.00    +0.000 A 
ATOM     24  C   UNL     1       8.504  12.146  24.463  0.00  0.00    +0.000 A 
ATOM     25  C   UNL     1       8.498  13.515  24.710  0.00  0.00    +0.000 A 
ATOM     26  C   UNL     1       7.878  14.387  23.808  0.00  0.00    +0.000 A 
ENDBRANCH   4  21
BRANCH   1  28
ATOM     27  N   UNL     1       4.818  15.117  17.670  0.00  0.00    +0.000 NA
ATOM     28  C   UNL     1       5.254  15.475  18.683  0.00  0.00    +0.000 C 
ENDBRANCH   1  28
TORSDOF 5
ENDMDL
MODEL 9
REMARK VINA RESULT:      -5.8      2.327      4.762
REMARK  Name = 
REMARK  5 active torsions:
REMARK  status: ('A' for Active; 'I' for Inactive)
REMARK    1  A    between atoms: C_2  and  N_3
REMARK    2  A    between atoms: N_5  and  C_6
REMARK    3  A    between atoms: C_9  and  C_10
REMARK    4  A    between atoms: C_17  and  O_18
REMARK    5  A    between atoms: N_19  and  C_20
REMARK                            x       y       z     vdW  Elec       q    Type
REMARK                         _______ _______ _______ _____ _____    ______ ____
ROOT
ATOM      1  N   UNL     1       0.658   9.574  17.641  0.00  0.00    +0.000 N 
ATOM      2  C   UNL     1      -0.282  10.521  17.957  0.00  0.00    +0.000 C 
ATOM      3  N   UNL     1      -0.165  11.527  18.737  0.00  0.00    +0.000 NA
ATOM      4  N   UNL     1      -1.468  10.284  17.278  0.00  0.00    +0.000 N 
ATOM      5  H   UNL     1       0.467   8.985  16.848  0.00  0.00    +0.000 HD
ATOM      6  H   UNL     1      -1.558   9.395  16.810  0.00  0.00    +0.000 HD
ENDROOT
BRANCH   3   7
ATOM      7  C   UNL     1       0.992  11.982  19.496  0.00  0.00    +0.000 C 
ATOM      8  C   UNL     1       0.475  12.700  20.731  0.00  0.00    +0.000 A 
ATOM      9  C   UNL     1      -0.597  12.146  21.458  0.00  0.00    +0.000 A 
ATOM     10  C   UNL     1      -1.204  12.857  22.496  0.00  0.00    +0.000 A 
ATOM     11  C   UNL     1      -0.700  14.105  22.862  0.00  0.00    +0.000 A 
ATOM     12  C   UNL     1       0.399  14.638  22.184  0.00  0.00    +0.000 A 
ATOM     13  C   UNL     1       0.982  13.941  21.122  0.00  0.00    +0.000 A 
ATOM     14  O   UNL     1       2.006  14.582  20.486  0.00  0.00    +0.000 OA
ATOM     15  C   UNL     1       2.740  13.769  19.573  0.00  0.00    +0.000 C 
ATOM     16  C   UNL     1       1.846  12.946  18.646  0.00  0.00    +0.000 C 
BRANCH  10  17
ATOM     17  C   UNL     1      -2.378  12.331  23.131  0.00  0.00    +0.000 C 
ATOM     18  N   UNL     1      -3.334  11.929  23.650  0.00  0.00    +0.000 NA
ENDBRANCH  10  17
BRANCH  16  19
ATOM     19  O   UNL     1       2.664  12.243  17.698  0.00  0.00    +0.000 OA
ATOM     20  H   UNL     1       3.428  12.808  17.486  0.00  0.00    +0.000 HD
ENDBRANCH  16  19
ENDBRANCH   3   7
BRANCH   4  21
ATOM     21  C   UNL     1      -2.739  10.866  17.523  0.00  0.00    +0.000 A 
ATOM     22  C   UNL     1      -3.750  10.995  16.561  0.00  0.00    +0.000 A 
ATOM     23  C   UNL     1      -4.941  11.677  16.839  0.00  0.00    +0.000 A 
ATOM     24  C   UNL     1      -5.160  12.214  18.102  0.00  0.00    +0.000 A 
ATOM     25  C   UNL     1      -4.201  12.042  19.094  0.00  0.00    +0.000 A 
ATOM     26  C   UNL     1      -3.008  11.368  18.808  0.00  0.00    +0.000 A 
ENDBRANCH   4  21
BRANCH   1  28
ATOM     27  N   UNL     1       1.917   8.399  19.587  0.00  0.00    +0.000 NA
ATOM     28  C   UNL     1       1.379   8.929  18.708  0.00  0.00    +0.000 C 
ENDBRANCH   1  28
TORSDOF 5
ENDMDL
