MODEL 1
REMARK VINA RESULT:      -8.1      0.000      0.000
REMARK  Name = 
REMARK  3 active torsions:
REMARK  status: ('A' for Active; 'I' for Inactive)
REMARK    1  A    between atoms: C_2  and  C_3
REMARK    2  A    between atoms: C_15  and  C_16
REMARK    3  A    between atoms: C_19  and  C_20
REMARK                            x       y       z     vdW  Elec       q    Type
REMARK                         _______ _______ _______ _____ _____    ______ ____
ROOT
ATOM      1  O   UNL     1       2.094  12.774  17.810  0.00  0.00    +0.000 OA
ATOM      2  C   UNL     1       1.614  12.904  18.942  0.00  0.00    +0.000 C 
ATOM      3  N   UNL     1       0.407  12.278  19.299  0.00  0.00    +0.000 N 
ATOM      4  C   UNL     1      -0.295  12.513  20.568  0.00  0.00    +0.000 C 
ATOM      5  C   UNL     1       0.120  11.513  21.645  0.00  0.00    +0.000 C 
ATOM      6  O   UNL     1      -0.464  10.229  21.367  0.00  0.00    +0.000 OA
ATOM      7  C   UNL     1       0.356   9.495  20.551  0.00  0.00    +0.000 A 
ATOM      8  C   UNL     1       0.944   8.368  21.115  0.00  0.00    +0.000 A 
ATOM      9  C   UNL     1       1.806   7.578  20.353  0.00  0.00    +0.000 A 
ATOM     10  C   UNL     1       2.067   7.870  19.002  0.00  0.00    +0.000 A 
ATOM     11  C   UNL     1       1.421   8.995  18.451  0.00  0.00    +0.000 A 
ATOM     12  C   UNL     1       0.587   9.834  19.213  0.00  0.00    +0.000 A 
ATOM     13  C   UNL     1      -0.002  11.075  18.582  0.00  0.00    +0.000 C 
ENDROOT
BRANCH   2  14
ATOM     14  C   UNL     1       2.276  13.732  19.949  0.00  0.00    +0.000 A 
ATOM     15  N   UNL     1       3.000  13.286  20.963  0.00  0.00    +0.000 NA
ATOM     16  C   UNL     1       3.426  14.383  21.654  0.00  0.00    +0.000 A 
ATOM     17  C   UNL     1       2.961  15.526  21.058  0.00  0.00    +0.000 A 
ATOM     18  N   UNL     1       2.276  15.106  19.952  0.00  0.00    +0.000 N 
ATOM     19  H   UNL     1       1.809  15.679  19.263  0.00  0.00    +0.000 HD
ENDBRANCH   2  14
BRANCH  10  20
ATOM     20  C   UNL     1       3.014   7.052  18.204  0.00  0.00    +0.000 A 
ATOM     21  C   UNL     1       4.007   7.640  17.399  0.00  0.00    +0.000 A 
ATOM     22  C   UNL     1       4.858   6.866  16.601  0.00  0.00    +0.000 A 
ATOM     23  C   UNL     1       4.759   5.470  16.599  0.00  0.00    +0.000 A 
ATOM     24  C   UNL     1       3.795   4.868  17.414  0.00  0.00    +0.000 A 
ATOM     25  C   UNL     1       2.933   5.648  18.192  0.00  0.00    +0.000 A 
BRANCH  23  26
ATOM     26  C   UNL     1       5.656   4.617  15.738  0.00  0.00    +0.000 C 
ATOM     27  F   UNL     1       6.967   4.984  15.785  0.00  0.00    +0.000 F 
ATOM     28  F   UNL     1       5.623   3.303  16.094  0.00  0.00    +0.000 F 
ATOM     29  F   UNL     1       5.306   4.657  14.423  0.00  0.00    +0.000 F 
ENDBRANCH  23  26
ENDBRANCH  10  20
TORSDOF 3
ENDMDL
MODEL 2
REMARK VINA RESULT:      -8.1      0.584      1.088
REMARK  Name = 
REMARK  3 active torsions:
REMARK  status: ('A' for Active; 'I' for Inactive)
REMARK    1  A    between atoms: C_2  and  C_3
REMARK    2  A    between atoms: C_15  and  C_16
REMARK    3  A    between atoms: C_19  and  C_20
REMARK                            x       y       z     vdW  Elec       q    Type
REMARK                         _______ _______ _______ _____ _____    ______ ____
ROOT
ATOM      1  O   UNL     1       2.239  12.730  17.888  0.00  0.00    +0.000 OA
ATOM      2  C   UNL     1       1.665  12.904  18.970  0.00  0.00    +0.000 C 
ATOM      3  N   UNL     1       0.430  12.292  19.247  0.00  0.00    +0.000 N 
ATOM      4  C   UNL     1      -0.375  12.576  20.442  0.00  0.00    +0.000 C 
ATOM      5  C   UNL     1      -0.056  11.618  21.588  0.00  0.00    +0.000 C 
ATOM      6  O   UNL     1      -0.619  10.324  21.311  0.00  0.00    +0.000 OA
ATOM      7  C   UNL     1       0.264   9.559  20.596  0.00  0.00    +0.000 A 
ATOM      8  C   UNL     1       0.799   8.455  21.251  0.00  0.00    +0.000 A 
ATOM      9  C   UNL     1       1.720   7.637  20.595  0.00  0.00    +0.000 A 
ATOM     10  C   UNL     1       2.095   7.876  19.261  0.00  0.00    +0.000 A 
ATOM     11  C   UNL     1       1.502   8.979  18.614  0.00  0.00    +0.000 A 
ATOM     12  C   UNL     1       0.609   9.847  19.270  0.00  0.00    +0.000 A 
ATOM     13  C   UNL     1       0.079  11.062  18.544  0.00  0.00    +0.000 C 
ENDROOT
BRANCH   2  14
ATOM     14  C   UNL     1       2.243  13.771  19.996  0.00  0.00    +0.000 A 
ATOM     15  N   UNL     1       2.953  13.368  21.037  0.00  0.00    +0.000 NA
ATOM     16  C   UNL     1       3.291  14.489  21.738  0.00  0.00    +0.000 A 
ATOM     17  C   UNL     1       2.784  15.603  21.121  0.00  0.00    +0.000 A 
ATOM     18  N   UNL     1       2.164  15.142  19.993  0.00  0.00    +0.000 N 
ATOM     19  H   UNL     1       1.691  15.686  19.286  0.00  0.00    +0.000 HD
ENDBRANCH   2  14
BRANCH  10  20
ATOM     20  C   UNL     1       3.103   7.028  18.578  0.00  0.00    +0.000 A 
ATOM     21  C   UNL     1       3.473   5.766  19.076  0.00  0.00    +0.000 A 
ATOM     22  C   UNL     1       4.468   4.996  18.460  0.00  0.00    +0.000 A 
ATOM     23  C   UNL     1       5.113   5.456  17.308  0.00  0.00    +0.000 A 
ATOM     24  C   UNL     1       4.739   6.697  16.783  0.00  0.00    +0.000 A 
ATOM     25  C   UNL     1       3.759   7.471  17.415  0.00  0.00    +0.000 A 
BRANCH  23  26
ATOM     26  C   UNL     1       6.196   4.651  16.636  0.00  0.00    +0.000 C 
ATOM     27  F   UNL     1       7.183   4.247  17.483  0.00  0.00    +0.000 F 
ATOM     28  F   UNL     1       5.716   3.516  16.055  0.00  0.00    +0.000 F 
ATOM     29  F   UNL     1       6.820   5.344  15.643  0.00  0.00    +0.000 F 
ENDBRANCH  23  26
ENDBRANCH  10  20
TORSDOF 3
ENDMDL
MODEL 3
REMARK VINA RESULT:      -8.0      0.842      1.080
REMARK  Name = 
REMARK  3 active torsions:
REMARK  status: ('A' for Active; 'I' for Inactive)
REMARK    1  A    between atoms: C_2  and  C_3
REMARK    2  A    between atoms: C_15  and  C_16
REMARK    3  A    between atoms: C_19  and  C_20
REMARK                            x       y       z     vdW  Elec       q    Type
REMARK                         _______ _______ _______ _____ _____    ______ ____
ROOT
ATOM      1  O   UNL     1       2.332  13.052  18.120  0.00  0.00    +0.000 OA
ATOM      2  C   UNL     1       1.779  13.303  19.197  0.00  0.00    +0.000 C 
ATOM      3  N   UNL     1       0.479  12.846  19.474  0.00  0.00    +0.000 N 
ATOM      4  C   UNL     1      -0.291  13.236  20.662  0.00  0.00    +0.000 C 
ATOM      5  C   UNL     1      -0.093  12.259  21.819  0.00  0.00    +0.000 C 
ATOM      6  O   UNL     1      -0.805  11.038  21.552  0.00  0.00    +0.000 OA
ATOM      7  C   UNL     1      -0.017  10.166  20.849  0.00  0.00    +0.000 A 
ATOM      8  C   UNL     1       0.380   9.013  21.516  0.00  0.00    +0.000 A 
ATOM      9  C   UNL     1       1.199   8.084  20.873  0.00  0.00    +0.000 A 
ATOM     10  C   UNL     1       1.605   8.263  19.539  0.00  0.00    +0.000 A 
ATOM     11  C   UNL     1       1.150   9.423  18.878  0.00  0.00    +0.000 A 
ATOM     12  C   UNL     1       0.365  10.398  19.522  0.00  0.00    +0.000 A 
ATOM     13  C   UNL     1      -0.013  11.660  18.781  0.00  0.00    +0.000 C 
ENDROOT
BRANCH   2  14
ATOM     14  C   UNL     1       2.452  14.105  20.218  0.00  0.00    +0.000 A 
ATOM     15  N   UNL     1       3.170  13.631  21.224  0.00  0.00    +0.000 NA
ATOM     16  C   UNL     1       3.610  14.711  21.934  0.00  0.00    +0.000 A 
ATOM     17  C   UNL     1       3.160  15.871  21.358  0.00  0.00    +0.000 A 
ATOM     18  N   UNL     1       2.469  15.479  20.245  0.00  0.00    +0.000 N 
ATOM     19  H   UNL     1       2.010  16.069  19.567  0.00  0.00    +0.000 HD
ENDBRANCH   2  14
BRANCH  10  20
ATOM     20  C   UNL     1       2.508   7.295  18.869  0.00  0.00    +0.000 A 
ATOM     21  C   UNL     1       3.349   7.675  17.807  0.00  0.00    +0.000 A 
ATOM     22  C   UNL     1       4.154   6.744  17.138  0.00  0.00    +0.000 A 
ATOM     23  C   UNL     1       4.161   5.400  17.526  0.00  0.00    +0.000 A 
ATOM     24  C   UNL     1       3.351   5.009  18.598  0.00  0.00    +0.000 A 
ATOM     25  C   UNL     1       2.533   5.940  19.248  0.00  0.00    +0.000 A 
BRANCH  23  26
ATOM     26  C   UNL     1       5.009   4.378  16.813  0.00  0.00    +0.000 C 
ATOM     27  F   UNL     1       5.087   4.575  15.467  0.00  0.00    +0.000 F 
ATOM     28  F   UNL     1       6.295   4.363  17.263  0.00  0.00    +0.000 F 
ATOM     29  F   UNL     1       4.542   3.109  16.976  0.00  0.00    +0.000 F 
ENDBRANCH  23  26
ENDBRANCH  10  20
TORSDOF 3
ENDMDL
MODEL 4
REMARK VINA RESULT:      -8.0      5.855      8.424
REMARK  Name = 
REMARK  3 active torsions:
REMARK  status: ('A' for Active; 'I' for Inactive)
REMARK    1  A    between atoms: C_2  and  C_3
REMARK    2  A    between atoms: C_15  and  C_16
REMARK    3  A    between atoms: C_19  and  C_20
REMARK                            x       y       z     vdW  Elec       q    Type
REMARK                         _______ _______ _______ _____ _____    ______ ____
ROOT
ATOM      1  O   UNL     1       3.119   7.700  17.329  0.00  0.00    +0.000 OA
ATOM      2  C   UNL     1       3.294   6.564  17.785  0.00  0.00    +0.000 C 
ATOM      3  N   UNL     1       4.214   5.677  17.199  0.00  0.00    +0.000 N 
ATOM      4  C   UNL     1       4.359   4.269  17.592  0.00  0.00    +0.000 C 
ATOM      5  C   UNL     1       5.423   4.084  18.672  0.00  0.00    +0.000 C 
ATOM      6  O   UNL     1       6.732   4.232  18.095  0.00  0.00    +0.000 OA
ATOM      7  C   UNL     1       7.121   5.545  18.118  0.00  0.00    +0.000 A 
ATOM      8  C   UNL     1       8.180   5.863  18.961  0.00  0.00    +0.000 A 
ATOM      9  C   UNL     1       8.623   7.184  19.054  0.00  0.00    +0.000 A 
ATOM     10  C   UNL     1       8.049   8.206  18.278  0.00  0.00    +0.000 A 
ATOM     11  C   UNL     1       7.007   7.841  17.402  0.00  0.00    +0.000 A 
ATOM     12  C   UNL     1       6.510   6.526  17.329  0.00  0.00    +0.000 A 
ATOM     13  C   UNL     1       5.330   6.222  16.434  0.00  0.00    +0.000 C 
ENDROOT
BRANCH   2  14
ATOM     14  C   UNL     1       2.536   6.094  18.943  0.00  0.00    +0.000 A 
ATOM     15  N   UNL     1       1.814   4.986  18.996  0.00  0.00    +0.000 NA
ATOM     16  C   UNL     1       1.273   4.929  20.249  0.00  0.00    +0.000 A 
ATOM     17  C   UNL     1       1.669   6.016  20.983  0.00  0.00    +0.000 A 
ATOM     18  N   UNL     1       2.507   6.722  20.165  0.00  0.00    +0.000 N 
ATOM     19  H   UNL     1       3.000   7.577  20.379  0.00  0.00    +0.000 HD
ENDBRANCH   2  14
BRANCH  10  20
ATOM     20  C   UNL     1       8.495   9.616  18.405  0.00  0.00    +0.000 A 
ATOM     21  C   UNL     1       8.040  10.620  17.532  0.00  0.00    +0.000 A 
ATOM     22  C   UNL     1       8.510  11.937  17.619  0.00  0.00    +0.000 A 
ATOM     23  C   UNL     1       9.438  12.299  18.601  0.00  0.00    +0.000 A 
ATOM     24  C   UNL     1       9.881  11.318  19.495  0.00  0.00    +0.000 A 
ATOM     25  C   UNL     1       9.424  10.000  19.389  0.00  0.00    +0.000 A 
BRANCH  23  26
ATOM     26  C   UNL     1       9.968  13.706  18.705  0.00  0.00    +0.000 C 
ATOM     27  F   UNL     1       8.992  14.651  18.804  0.00  0.00    +0.000 F 
ATOM     28  F   UNL     1      10.769  13.882  19.792  0.00  0.00    +0.000 F 
ATOM     29  F   UNL     1      10.719  14.060  17.626  0.00  0.00    +0.000 F 
ENDBRANCH  23  26
ENDBRANCH  10  20
TORSDOF 3
ENDMDL
MODEL 5
REMARK VINA RESULT:      -7.9      1.263      1.688
REMARK  Name = 
REMARK  3 active torsions:
REMARK  status: ('A' for Active; 'I' for Inactive)
REMARK    1  A    between atoms: C_2  and  C_3
REMARK    2  A    between atoms: C_15  and  C_16
REMARK    3  A    between atoms: C_19  and  C_20
REMARK                            x       y       z     vdW  Elec       q    Type
REMARK                         _______ _______ _______ _____ _____    ______ ____
ROOT
ATOM      1  O   UNL     1       2.663  12.954  18.299  0.00  0.00    +0.000 OA
ATOM      2  C   UNL     1       2.052  13.335  19.305  0.00  0.00    +0.000 C 
ATOM      3  N   UNL     1       0.696  13.019  19.498  0.00  0.00    +0.000 N 
ATOM      4  C   UNL     1      -0.127  13.565  20.585  0.00  0.00    +0.000 C 
ATOM      5  C   UNL     1      -0.117  12.664  21.818  0.00  0.00    +0.000 C 
ATOM      6  O   UNL     1      -0.920  11.496  21.573  0.00  0.00    +0.000 OA
ATOM      7  C   UNL     1      -0.165  10.506  21.001  0.00  0.00    +0.000 A 
ATOM      8  C   UNL     1       0.064   9.375  21.778  0.00  0.00    +0.000 A 
ATOM      9  C   UNL     1       0.840   8.330  21.272  0.00  0.00    +0.000 A 
ATOM     10  C   UNL     1       1.367   8.371  19.970  0.00  0.00    +0.000 A 
ATOM     11  C   UNL     1       1.080   9.514  19.195  0.00  0.00    +0.000 A 
ATOM     12  C   UNL     1       0.343  10.601  19.700  0.00  0.00    +0.000 A 
ATOM     13  C   UNL     1       0.149  11.833  18.846  0.00  0.00    +0.000 C 
ENDROOT
BRANCH   2  14
ATOM     14  C   UNL     1       2.714  14.147  20.324  0.00  0.00    +0.000 A 
ATOM     15  N   UNL     1       3.294  13.689  21.421  0.00  0.00    +0.000 NA
ATOM     16  C   UNL     1       3.780  14.775  22.091  0.00  0.00    +0.000 A 
ATOM     17  C   UNL     1       3.499  15.922  21.397  0.00  0.00    +0.000 A 
ATOM     18  N   UNL     1       2.868  15.511  20.256  0.00  0.00    +0.000 N 
ATOM     19  H   UNL     1       2.529  16.087  19.498  0.00  0.00    +0.000 HD
ENDBRANCH   2  14
BRANCH  10  20
ATOM     20  C   UNL     1       2.223   7.277  19.447  0.00  0.00    +0.000 A 
ATOM     21  C   UNL     1       2.969   7.418  18.263  0.00  0.00    +0.000 A 
ATOM     22  C   UNL     1       3.727   6.362  17.743  0.00  0.00    +0.000 A 
ATOM     23  C   UNL     1       3.783   5.131  18.405  0.00  0.00    +0.000 A 
ATOM     24  C   UNL     1       3.069   4.982  19.598  0.00  0.00    +0.000 A 
ATOM     25  C   UNL     1       2.296   6.034  20.102  0.00  0.00    +0.000 A 
BRANCH  23  26
ATOM     26  C   UNL     1       4.583   3.977  17.857  0.00  0.00    +0.000 C 
ATOM     27  F   UNL     1       4.359   2.800  18.506  0.00  0.00    +0.000 F 
ATOM     28  F   UNL     1       4.315   3.735  16.544  0.00  0.00    +0.000 F 
ATOM     29  F   UNL     1       5.926   4.193  17.931  0.00  0.00    +0.000 F 
ENDBRANCH  23  26
ENDBRANCH  10  20
TORSDOF 3
ENDMDL
MODEL 6
REMARK VINA RESULT:      -7.9      5.823      8.377
REMARK  Name = 
REMARK  3 active torsions:
REMARK  status: ('A' for Active; 'I' for Inactive)
REMARK    1  A    between atoms: C_2  and  C_3
REMARK    2  A    between atoms: C_15  and  C_16
REMARK    3  A    between atoms: C_19  and  C_20
REMARK                            x       y       z     vdW  Elec       q    Type
REMARK                         _______ _______ _______ _____ _____    ______ ____
ROOT
ATOM      1  O   UNL     1       3.109   7.888  17.428  0.00  0.00    +0.000 OA
ATOM      2  C   UNL     1       3.262   6.745  17.875  0.00  0.00    +0.000 C 
ATOM      3  N   UNL     1       4.147   5.837  17.268  0.00  0.00    +0.000 N 
ATOM      4  C   UNL     1       4.261   4.423  17.651  0.00  0.00    +0.000 C 
ATOM      5  C   UNL     1       5.338   4.203  18.711  0.00  0.00    +0.000 C 
ATOM      6  O   UNL     1       6.640   4.319  18.113  0.00  0.00    +0.000 OA
ATOM      7  C   UNL     1       7.065   5.621  18.136  0.00  0.00    +0.000 A 
ATOM      8  C   UNL     1       8.146   5.906  18.962  0.00  0.00    +0.000 A 
ATOM      9  C   UNL     1       8.626   7.213  19.054  0.00  0.00    +0.000 A 
ATOM     10  C   UNL     1       8.067   8.255  18.293  0.00  0.00    +0.000 A 
ATOM     11  C   UNL     1       7.000   7.923  17.434  0.00  0.00    +0.000 A 
ATOM     12  C   UNL     1       6.467   6.623  17.362  0.00  0.00    +0.000 A 
ATOM     13  C   UNL     1       5.264   6.356  16.486  0.00  0.00    +0.000 C 
ENDROOT
BRANCH   2  14
ATOM     14  C   UNL     1       2.511   6.289  19.043  0.00  0.00    +0.000 A 
ATOM     15  N   UNL     1       1.949   5.099  19.184  0.00  0.00    +0.000 NA
ATOM     16  C   UNL     1       1.350   5.091  20.411  0.00  0.00    +0.000 A 
ATOM     17  C   UNL     1       1.547   6.293  21.041  0.00  0.00    +0.000 A 
ATOM     18  N   UNL     1       2.324   7.026  20.187  0.00  0.00    +0.000 N 
ATOM     19  H   UNL     1       2.680   7.960  20.329  0.00  0.00    +0.000 HD
ENDBRANCH   2  14
BRANCH  10  20
ATOM     20  C   UNL     1       8.553   9.651  18.420  0.00  0.00    +0.000 A 
ATOM     21  C   UNL     1       9.415  10.047  19.459  0.00  0.00    +0.000 A 
ATOM     22  C   UNL     1       9.822  11.378  19.609  0.00  0.00    +0.000 A 
ATOM     23  C   UNL     1       9.397  12.359  18.707  0.00  0.00    +0.000 A 
ATOM     24  C   UNL     1       8.562  11.979  17.651  0.00  0.00    +0.000 A 
ATOM     25  C   UNL     1       8.141  10.651  17.519  0.00  0.00    +0.000 A 
BRANCH  23  26
ATOM     26  C   UNL     1       9.813  13.801  18.856  0.00  0.00    +0.000 C 
ATOM     27  F   UNL     1       9.576  14.555  17.746  0.00  0.00    +0.000 F 
ATOM     28  F   UNL     1       9.165  14.426  19.877  0.00  0.00    +0.000 F 
ATOM     29  F   UNL     1      11.142  13.934  19.119  0.00  0.00    +0.000 F 
ENDBRANCH  23  26
ENDBRANCH  10  20
TORSDOF 3
ENDMDL
MODEL 7
REMARK VINA RESULT:      -7.8      1.104      1.669
REMARK  Name = 
REMARK  3 active torsions:
REMARK  status: ('A' for Active; 'I' for Inactive)
REMARK    1  A    between atoms: C_2  and  C_3
REMARK    2  A    between atoms: C_15  and  C_16
REMARK    3  A    between atoms: C_19  and  C_20
REMARK                            x       y       z     vdW  Elec       q    Type
REMARK                         _______ _______ _______ _____ _____    ______ ____
ROOT
ATOM      1  O   UNL     1       2.590  12.997  18.211  0.00  0.00    +0.000 OA
ATOM      2  C   UNL     1       2.002  13.345  19.241  0.00  0.00    +0.000 C 
ATOM      3  N   UNL     1       0.660  12.993  19.470  0.00  0.00    +0.000 N 
ATOM      4  C   UNL     1      -0.141  13.500  20.592  0.00  0.00    +0.000 C 
ATOM      5  C   UNL     1      -0.072  12.577  21.807  0.00  0.00    +0.000 C 
ATOM      6  O   UNL     1      -0.855  11.395  21.564  0.00  0.00    +0.000 OA
ATOM      7  C   UNL     1      -0.095  10.434  20.951  0.00  0.00    +0.000 A 
ATOM      8  C   UNL     1       0.183   9.294  21.698  0.00  0.00    +0.000 A 
ATOM      9  C   UNL     1       0.967   8.278  21.149  0.00  0.00    +0.000 A 
ATOM     10  C   UNL     1       1.451   8.355  19.832  0.00  0.00    +0.000 A 
ATOM     11  C   UNL     1       1.115   9.505  19.089  0.00  0.00    +0.000 A 
ATOM     12  C   UNL     1       0.369  10.565  19.637  0.00  0.00    +0.000 A 
ATOM     13  C   UNL     1       0.120  11.808  18.813  0.00  0.00    +0.000 C 
ENDROOT
BRANCH   2  14
ATOM     14  C   UNL     1       2.677  14.154  20.255  0.00  0.00    +0.000 A 
ATOM     15  N   UNL     1       3.288  13.689  21.333  0.00  0.00    +0.000 NA
ATOM     16  C   UNL     1       3.775  14.774  22.005  0.00  0.00    +0.000 A 
ATOM     17  C   UNL     1       3.463  15.926  21.332  0.00  0.00    +0.000 A 
ATOM     18  N   UNL     1       2.811  15.520  20.201  0.00  0.00    +0.000 N 
ATOM     19  H   UNL     1       2.447  16.101  19.459  0.00  0.00    +0.000 HD
ENDBRANCH   2  14
BRANCH  10  20
ATOM     20  C   UNL     1       2.315   7.291  19.263  0.00  0.00    +0.000 A 
ATOM     21  C   UNL     1       2.486   6.050  19.903  0.00  0.00    +0.000 A 
ATOM     22  C   UNL     1       3.349   5.073  19.393  0.00  0.00    +0.000 A 
ATOM     23  C   UNL     1       4.057   5.296  18.207  0.00  0.00    +0.000 A 
ATOM     24  C   UNL     1       3.879   6.514  17.542  0.00  0.00    +0.000 A 
ATOM     25  C   UNL     1       3.031   7.495  18.069  0.00  0.00    +0.000 A 
BRANCH  23  26
ATOM     26  C   UNL     1       5.001   4.264  17.646  0.00  0.00    +0.000 C 
ATOM     27  F   UNL     1       5.409   4.531  16.373  0.00  0.00    +0.000 F 
ATOM     28  F   UNL     1       6.138   4.142  18.385  0.00  0.00    +0.000 F 
ATOM     29  F   UNL     1       4.447   3.020  17.605  0.00  0.00    +0.000 F 
ENDBRANCH  23  26
ENDBRANCH  10  20
TORSDOF 3
ENDMDL
MODEL 8
REMARK VINA RESULT:      -7.8      0.473      1.388
REMARK  Name = 
REMARK  3 active torsions:
REMARK  status: ('A' for Active; 'I' for Inactive)
REMARK    1  A    between atoms: C_2  and  C_3
REMARK    2  A    between atoms: C_15  and  C_16
REMARK    3  A    between atoms: C_19  and  C_20
REMARK                            x       y       z     vdW  Elec       q    Type
REMARK                         _______ _______ _______ _____ _____    ______ ____
ROOT
ATOM      1  O   UNL     1       2.042  12.970  17.770  0.00  0.00    +0.000 OA
ATOM      2  C   UNL     1       1.576  13.176  18.897  0.00  0.00    +0.000 C 
ATOM      3  N   UNL     1       0.337  12.636  19.284  0.00  0.00    +0.000 N 
ATOM      4  C   UNL     1      -0.343  12.965  20.543  0.00  0.00    +0.000 C 
ATOM      5  C   UNL     1       0.019  11.990  21.661  0.00  0.00    +0.000 C 
ATOM      6  O   UNL     1      -0.639  10.731  21.441  0.00  0.00    +0.000 OA
ATOM      7  C   UNL     1       0.134   9.917  20.655  0.00  0.00    +0.000 A 
ATOM      8  C   UNL     1       0.659   8.783  21.266  0.00  0.00    +0.000 A 
ATOM      9  C   UNL     1       1.471   7.914  20.536  0.00  0.00    +0.000 A 
ATOM     10  C   UNL     1       1.741   8.132  19.173  0.00  0.00    +0.000 A 
ATOM     11  C   UNL     1       1.158   9.267  18.575  0.00  0.00    +0.000 A 
ATOM     12  C   UNL     1       0.377  10.185  19.303  0.00  0.00    +0.000 A 
ATOM     13  C   UNL     1      -0.144  11.429  18.620  0.00  0.00    +0.000 C 
ENDROOT
BRANCH   2  14
ATOM     14  C   UNL     1       2.290  14.007  19.864  0.00  0.00    +0.000 A 
ATOM     15  N   UNL     1       2.214  15.326  19.955  0.00  0.00    +0.000 NA
ATOM     16  C   UNL     1       3.035  15.696  20.981  0.00  0.00    +0.000 A 
ATOM     17  C   UNL     1       3.626  14.591  21.536  0.00  0.00    +0.000 A 
ATOM     18  N   UNL     1       3.110  13.523  20.854  0.00  0.00    +0.000 N 
ATOM     19  H   UNL     1       3.308  12.544  21.004  0.00  0.00    +0.000 HD
ENDBRANCH   2  14
BRANCH  10  20
ATOM     20  C   UNL     1       2.636   7.227  18.409  0.00  0.00    +0.000 A 
ATOM     21  C   UNL     1       2.541   5.828  18.511  0.00  0.00    +0.000 A 
ATOM     22  C   UNL     1       3.426   4.980  17.834  0.00  0.00    +0.000 A 
ATOM     23  C   UNL     1       4.426   5.507  17.009  0.00  0.00    +0.000 A 
ATOM     24  C   UNL     1       4.518   6.896  16.874  0.00  0.00    +0.000 A 
ATOM     25  C   UNL     1       3.644   7.738  17.570  0.00  0.00    +0.000 A 
BRANCH  23  26
ATOM     26  C   UNL     1       5.399   4.614  16.280  0.00  0.00    +0.000 C 
ATOM     27  F   UNL     1       5.419   4.814  14.933  0.00  0.00    +0.000 F 
ATOM     28  F   UNL     1       6.681   4.787  16.703  0.00  0.00    +0.000 F 
ATOM     29  F   UNL     1       5.123   3.292  16.455  0.00  0.00    +0.000 F 
ENDBRANCH  23  26
ENDBRANCH  10  20
TORSDOF 3
ENDMDL
MODEL 9
REMARK VINA RESULT:      -7.7      1.603      2.356
REMARK  Name = 
REMARK  3 active torsions:
REMARK  status: ('A' for Active; 'I' for Inactive)
REMARK    1  A    between atoms: C_2  and  C_3
REMARK    2  A    between atoms: C_15  and  C_16
REMARK    3  A    between atoms: C_19  and  C_20
REMARK                            x       y       z     vdW  Elec       q    Type
REMARK                         _______ _______ _______ _____ _____    ______ ____
ROOT
ATOM      1  O   UNL     1       0.035  13.342  18.208  0.00  0.00    +0.000 OA
ATOM      2  C   UNL     1      -0.188  13.692  19.373  0.00  0.00    +0.000 C 
ATOM      3  N   UNL     1      -1.173  13.057  20.149  0.00  0.00    +0.000 N 
ATOM      4  C   UNL     1      -1.594  13.520  21.478  0.00  0.00    +0.000 C 
ATOM      5  C   UNL     1      -0.798  12.848  22.596  0.00  0.00    +0.000 C 
ATOM      6  O   UNL     1      -1.231  11.485  22.749  0.00  0.00    +0.000 OA
ATOM      7  C   UNL     1      -0.519  10.659  21.920  0.00  0.00    +0.000 A 
ATOM      8  C   UNL     1       0.345   9.759  22.534  0.00  0.00    +0.000 A 
ATOM      9  C   UNL     1       1.119   8.896  21.756  0.00  0.00    +0.000 A 
ATOM     10  C   UNL     1       1.017   8.882  20.354  0.00  0.00    +0.000 A 
ATOM     11  C   UNL     1       0.101   9.778  19.767  0.00  0.00    +0.000 A 
ATOM     12  C   UNL     1      -0.652  10.691  20.527  0.00  0.00    +0.000 A 
ATOM     13  C   UNL     1      -1.550  11.685  19.825  0.00  0.00    +0.000 C 
ENDROOT
BRANCH   2  14
ATOM     14  C   UNL     1       0.555  14.794  19.982  0.00  0.00    +0.000 A 
ATOM     15  N   UNL     1       1.687  14.683  20.659  0.00  0.00    +0.000 NA
ATOM     16  C   UNL     1       2.034  15.943  21.053  0.00  0.00    +0.000 A 
ATOM     17  C   UNL     1       1.104  16.848  20.612  0.00  0.00    +0.000 A 
ATOM     18  N   UNL     1       0.198  16.118  19.893  0.00  0.00    +0.000 N 
ATOM     19  H   UNL     1      -0.618  16.458  19.406  0.00  0.00    +0.000 HD
ENDBRANCH   2  14
BRANCH  10  20
ATOM     20  C   UNL     1       1.868   7.991  19.527  0.00  0.00    +0.000 A 
ATOM     21  C   UNL     1       2.268   6.719  19.975  0.00  0.00    +0.000 A 
ATOM     22  C   UNL     1       3.120   5.907  19.215  0.00  0.00    +0.000 A 
ATOM     23  C   UNL     1       3.585   6.334  17.966  0.00  0.00    +0.000 A 
ATOM     24  C   UNL     1       3.175   7.585  17.493  0.00  0.00    +0.000 A 
ATOM     25  C   UNL     1       2.341   8.400  18.266  0.00  0.00    +0.000 A 
BRANCH  23  26
ATOM     26  C   UNL     1       4.513   5.483  17.138  0.00  0.00    +0.000 C 
ATOM     27  F   UNL     1       3.969   4.294  16.756  0.00  0.00    +0.000 F 
ATOM     28  F   UNL     1       4.900   6.103  15.988  0.00  0.00    +0.000 F 
ATOM     29  F   UNL     1       5.661   5.171  17.799  0.00  0.00    +0.000 F 
ENDBRANCH  23  26
ENDBRANCH  10  20
TORSDOF 3
ENDMDL
