MODEL 1
REMARK VINA RESULT:      -7.8      0.000      0.000
REMARK  Name = 
REMARK  13 active torsions:
REMARK  status: ('A' for Active; 'I' for Inactive)
REMARK    1  A    between atoms: C_1  and  C_2
REMARK    2  A    between atoms: C_2  and  C_3
REMARK    3  A    between atoms: C_3  and  C_4
REMARK    4  A    between atoms: C_7  and  N_8
REMARK    5  A    between atoms: C_9  and  C_11
REMARK    6  A    between atoms: C_11  and  N_12
REMARK    7  A    between atoms: C_14  and  C_15
REMARK    8  A    between atoms: C_17  and  O_18
REMARK    9  A    between atoms: O_18  and  C_19
REMARK   10  A    between atoms: C_20  and  O_21
REMARK   11  A    between atoms: O_21  and  C_22
REMARK   12  A    between atoms: C_23  and  O_24
REMARK   13  A    between atoms: O_24  and  C_25
REMARK                            x       y       z     vdW  Elec       q    Type
REMARK                         _______ _______ _______ _____ _____    ______ ____
ROOT
ATOM      1  N   UNL     1       3.152   3.530  19.316  0.00  0.00    +0.000 N 
ATOM      2  N   UNL     1       4.107   4.334  18.801  0.00  0.00    +0.000 NA
ATOM      3  C   UNL     1       4.368   3.720  17.632  0.00  0.00    +0.000 A 
ATOM      4  N   UNL     1       3.644   2.564  17.436  0.00  0.00    +0.000 NA
ATOM      5  C   UNL     1       2.906   2.455  18.507  0.00  0.00    +0.000 A 
ATOM      6  N   UNL     1       2.049   1.463  18.798  0.00  0.00    +0.000 N 
ATOM      7  H   UNL     1       2.113   0.644  18.195  0.00  0.00    +0.000 HD
ATOM      8  H   UNL     1       1.851   1.210  19.763  0.00  0.00    +0.000 HD
ENDROOT
BRANCH   3   9
ATOM      9  C   UNL     1       5.340   4.181  16.648  0.00  0.00    +0.000 A 
ATOM     10  C   UNL     1       5.501   3.537  15.421  0.00  0.00    +0.000 A 
ATOM     11  C   UNL     1       6.433   4.012  14.489  0.00  0.00    +0.000 A 
ATOM     12  C   UNL     1       7.249   5.125  14.800  0.00  0.00    +0.000 A 
ATOM     13  C   UNL     1       7.105   5.766  16.046  0.00  0.00    +0.000 A 
ATOM     14  C   UNL     1       6.138   5.294  16.943  0.00  0.00    +0.000 A 
BRANCH  11  15
ATOM     15  O   UNL     1       6.621   3.422  13.259  0.00  0.00    +0.000 OA
ATOM     16  C   UNL     1       5.457   3.264  12.455  0.00  0.00    +0.000 C 
ENDBRANCH  11  15
BRANCH  12  17
ATOM     17  O   UNL     1       8.190   5.445  13.846  0.00  0.00    +0.000 OA
ATOM     18  C   UNL     1       7.716   5.854  12.569  0.00  0.00    +0.000 C 
ENDBRANCH  12  17
BRANCH  13  19
ATOM     19  O   UNL     1       7.945   6.805  16.349  0.00  0.00    +0.000 OA
ATOM     20  C   UNL     1       7.630   7.623  17.469  0.00  0.00    +0.000 C 
ENDBRANCH  13  19
ENDBRANCH   3   9
BRANCH   1  21
ATOM     21  C   UNL     1       2.568   3.822  20.599  0.00  0.00    +0.000 C 
BRANCH  21  23
ATOM     22  N   UNL     1       2.368   6.238  20.389  0.00  0.00    +0.000 N 
ATOM     23  C   UNL     1       1.680   5.036  20.496  0.00  0.00    +0.000 C 
ATOM     24  O   UNL     1       0.460   4.891  20.506  0.00  0.00    +0.000 OA
ATOM     25  H   UNL     1       3.379   6.202  20.495  0.00  0.00    +0.000 HD
BRANCH  22  29
ATOM     26  C   UNL     1       0.685  10.078  19.712  0.00  0.00    +0.000 A 
ATOM     27  C   UNL     1       0.552   9.466  20.962  0.00  0.00    +0.000 A 
ATOM     28  C   UNL     1       1.111   8.207  21.209  0.00  0.00    +0.000 A 
ATOM     29  C   UNL     1       1.810   7.524  20.213  0.00  0.00    +0.000 A 
ATOM     30  C   UNL     1       1.957   8.139  18.963  0.00  0.00    +0.000 A 
ATOM     31  C   UNL     1       1.396   9.401  18.714  0.00  0.00    +0.000 A 
BRANCH  26  32
ATOM     32  C   UNL     1       0.046  11.417  19.434  0.00  0.00    +0.000 C 
BRANCH  32  34
ATOM     33  C   UNL     1      -1.941  10.864  17.931  0.00  0.00    +0.000 C 
ATOM     34  C   UNL     1      -1.479  11.393  19.281  0.00  0.00    +0.000 C 
ENDBRANCH  32  34
ENDBRANCH  26  32
ENDBRANCH  22  29
ENDBRANCH  21  23
ENDBRANCH   1  21
TORSDOF 9
ENDMDL
MODEL 2
REMARK VINA RESULT:      -7.8      0.595      2.407
REMARK  Name = 
REMARK  13 active torsions:
REMARK  status: ('A' for Active; 'I' for Inactive)
REMARK    1  A    between atoms: C_1  and  C_2
REMARK    2  A    between atoms: C_2  and  C_3
REMARK    3  A    between atoms: C_3  and  C_4
REMARK    4  A    between atoms: C_7  and  N_8
REMARK    5  A    between atoms: C_9  and  C_11
REMARK    6  A    between atoms: C_11  and  N_12
REMARK    7  A    between atoms: C_14  and  C_15
REMARK    8  A    between atoms: C_17  and  O_18
REMARK    9  A    between atoms: O_18  and  C_19
REMARK   10  A    between atoms: C_20  and  O_21
REMARK   11  A    between atoms: O_21  and  C_22
REMARK   12  A    between atoms: C_23  and  O_24
REMARK   13  A    between atoms: O_24  and  C_25
REMARK                            x       y       z     vdW  Elec       q    Type
REMARK                         _______ _______ _______ _____ _____    ______ ____
ROOT
ATOM      1  N   UNL     1       3.135   3.382  19.418  0.00  0.00    +0.000 N 
ATOM      2  N   UNL     1       4.037   4.246  18.906  0.00  0.00    +0.000 NA
ATOM      3  C   UNL     1       4.387   3.620  17.768  0.00  0.00    +0.000 A 
ATOM      4  N   UNL     1       3.770   2.401  17.589  0.00  0.00    +0.000 NA
ATOM      5  C   UNL     1       3.007   2.264  18.640  0.00  0.00    +0.000 A 
ATOM      6  N   UNL     1       2.226   1.214  18.938  0.00  0.00    +0.000 N 
ATOM      7  H   UNL     1       2.380   0.384  18.367  0.00  0.00    +0.000 HD
ATOM      8  H   UNL     1       2.017   0.976  19.905  0.00  0.00    +0.000 HD
ENDROOT
BRANCH   3   9
ATOM      9  C   UNL     1       5.351   4.130  16.800  0.00  0.00    +0.000 A 
ATOM     10  C   UNL     1       6.177   5.216  17.090  0.00  0.00    +0.000 A 
ATOM     11  C   UNL     1       7.103   5.674  16.146  0.00  0.00    +0.000 A 
ATOM     12  C   UNL     1       7.184   5.065  14.871  0.00  0.00    +0.000 A 
ATOM     13  C   UNL     1       6.337   3.981  14.565  0.00  0.00    +0.000 A 
ATOM     14  C   UNL     1       5.447   3.518  15.543  0.00  0.00    +0.000 A 
BRANCH  11  15
ATOM     15  O   UNL     1       7.950   6.732  16.388  0.00  0.00    +0.000 OA
ATOM     16  C   UNL     1       7.628   7.550  17.508  0.00  0.00    +0.000 C 
ENDBRANCH  11  15
BRANCH  12  17
ATOM     17  O   UNL     1       8.066   5.657  13.995  0.00  0.00    +0.000 OA
ATOM     18  C   UNL     1       7.868   5.421  12.607  0.00  0.00    +0.000 C 
ENDBRANCH  12  17
BRANCH  13  19
ATOM     19  O   UNL     1       6.392   3.444  13.306  0.00  0.00    +0.000 OA
ATOM     20  C   UNL     1       5.184   3.351  12.560  0.00  0.00    +0.000 C 
ENDBRANCH  13  19
ENDBRANCH   3   9
BRANCH   1  21
ATOM     21  C   UNL     1       2.485   3.665  20.671  0.00  0.00    +0.000 C 
BRANCH  21  23
ATOM     22  N   UNL     1       2.353   6.086  20.470  0.00  0.00    +0.000 N 
ATOM     23  C   UNL     1       1.631   4.901  20.541  0.00  0.00    +0.000 C 
ATOM     24  O   UNL     1       0.409   4.786  20.502  0.00  0.00    +0.000 OA
ATOM     25  H   UNL     1       3.358   6.024  20.615  0.00  0.00    +0.000 HD
BRANCH  22  29
ATOM     26  C   UNL     1       0.790   9.969  19.752  0.00  0.00    +0.000 A 
ATOM     27  C   UNL     1       0.625   9.368  21.004  0.00  0.00    +0.000 A 
ATOM     28  C   UNL     1       1.144   8.095  21.264  0.00  0.00    +0.000 A 
ATOM     29  C   UNL     1       1.834   7.387  20.280  0.00  0.00    +0.000 A 
ATOM     30  C   UNL     1       2.013   7.990  19.029  0.00  0.00    +0.000 A 
ATOM     31  C   UNL     1       1.493   9.266  18.767  0.00  0.00    +0.000 A 
BRANCH  26  32
ATOM     32  C   UNL     1       0.193  11.324  19.459  0.00  0.00    +0.000 C 
BRANCH  32  34
ATOM     33  C   UNL     1      -1.881  12.286  20.593  0.00  0.00    +0.000 C 
ATOM     34  C   UNL     1      -0.379  12.061  20.677  0.00  0.00    +0.000 C 
ENDBRANCH  32  34
ENDBRANCH  26  32
ENDBRANCH  22  29
ENDBRANCH  21  23
ENDBRANCH   1  21
TORSDOF 9
ENDMDL
MODEL 3
REMARK VINA RESULT:      -7.7      0.683      2.703
REMARK  Name = 
REMARK  13 active torsions:
REMARK  status: ('A' for Active; 'I' for Inactive)
REMARK    1  A    between atoms: C_1  and  C_2
REMARK    2  A    between atoms: C_2  and  C_3
REMARK    3  A    between atoms: C_3  and  C_4
REMARK    4  A    between atoms: C_7  and  N_8
REMARK    5  A    between atoms: C_9  and  C_11
REMARK    6  A    between atoms: C_11  and  N_12
REMARK    7  A    between atoms: C_14  and  C_15
REMARK    8  A    between atoms: C_17  and  O_18
REMARK    9  A    between atoms: O_18  and  C_19
REMARK   10  A    between atoms: C_20  and  O_21
REMARK   11  A    between atoms: O_21  and  C_22
REMARK   12  A    between atoms: C_23  and  O_24
REMARK   13  A    between atoms: O_24  and  C_25
REMARK                            x       y       z     vdW  Elec       q    Type
REMARK                         _______ _______ _______ _____ _____    ______ ____
ROOT
ATOM      1  N   UNL     1       3.066   3.628  19.468  0.00  0.00    +0.000 N 
ATOM      2  N   UNL     1       4.022   4.436  18.961  0.00  0.00    +0.000 NA
ATOM      3  C   UNL     1       4.313   3.808  17.806  0.00  0.00    +0.000 A 
ATOM      4  N   UNL     1       3.608   2.640  17.614  0.00  0.00    +0.000 NA
ATOM      5  C   UNL     1       2.850   2.538  18.671  0.00  0.00    +0.000 A 
ATOM      6  N   UNL     1       1.999   1.540  18.960  0.00  0.00    +0.000 N 
ATOM      7  H   UNL     1       2.086   0.713  18.372  0.00  0.00    +0.000 HD
ATOM      8  H   UNL     1       1.784   1.299  19.925  0.00  0.00    +0.000 HD
ENDROOT
BRANCH   3   9
ATOM      9  C   UNL     1       5.299   4.266  16.835  0.00  0.00    +0.000 A 
ATOM     10  C   UNL     1       6.135   5.351  17.097  0.00  0.00    +0.000 A 
ATOM     11  C   UNL     1       7.084   5.760  16.151  0.00  0.00    +0.000 A 
ATOM     12  C   UNL     1       7.175   5.100  14.902  0.00  0.00    +0.000 A 
ATOM     13  C   UNL     1       6.318   4.017  14.624  0.00  0.00    +0.000 A 
ATOM     14  C   UNL     1       5.407   3.605  15.604  0.00  0.00    +0.000 A 
BRANCH  11  15
ATOM     15  O   UNL     1       7.942   6.815  16.365  0.00  0.00    +0.000 OA
ATOM     16  C   UNL     1       7.657   7.635  17.493  0.00  0.00    +0.000 C 
ENDBRANCH  11  15
BRANCH  12  17
ATOM     17  O   UNL     1       8.080   5.645  14.018  0.00  0.00    +0.000 OA
ATOM     18  C   UNL     1       7.857   5.422  12.631  0.00  0.00    +0.000 C 
ENDBRANCH  12  17
BRANCH  13  19
ATOM     19  O   UNL     1       6.385   3.431  13.388  0.00  0.00    +0.000 OA
ATOM     20  C   UNL     1       5.191   3.339  12.620  0.00  0.00    +0.000 C 
ENDBRANCH  13  19
ENDBRANCH   3   9
BRANCH   1  21
ATOM     21  C   UNL     1       2.453   3.932  20.735  0.00  0.00    +0.000 C 
BRANCH  21  23
ATOM     22  N   UNL     1       2.218   6.350  20.599  0.00  0.00    +0.000 N 
ATOM     23  C   UNL     1       1.550   5.132  20.595  0.00  0.00    +0.000 C 
ATOM     24  O   UNL     1       0.339   4.963  20.486  0.00  0.00    +0.000 OA
ATOM     25  H   UNL     1       3.216   6.329  20.797  0.00  0.00    +0.000 HD
BRANCH  22  29
ATOM     26  C   UNL     1       0.528  10.226  20.205  0.00  0.00    +0.000 A 
ATOM     27  C   UNL     1       1.104   9.598  19.097  0.00  0.00    +0.000 A 
ATOM     28  C   UNL     1       1.654   8.316  19.203  0.00  0.00    +0.000 A 
ATOM     29  C   UNL     1       1.650   7.631  20.419  0.00  0.00    +0.000 A 
ATOM     30  C   UNL     1       1.063   8.251  21.529  0.00  0.00    +0.000 A 
ATOM     31  C   UNL     1       0.511   9.537  21.424  0.00  0.00    +0.000 A 
BRANCH  26  32
ATOM     32  C   UNL     1      -0.027  11.626  20.099  0.00  0.00    +0.000 C 
BRANCH  32  34
ATOM     33  C   UNL     1       2.076  13.011  20.513  0.00  0.00    +0.000 C 
ATOM     34  C   UNL     1       0.948  12.674  19.549  0.00  0.00    +0.000 C 
ENDBRANCH  32  34
ENDBRANCH  26  32
ENDBRANCH  22  29
ENDBRANCH  21  23
ENDBRANCH   1  21
TORSDOF 9
ENDMDL
MODEL 4
REMARK VINA RESULT:      -7.6      0.568      1.015
REMARK  Name = 
REMARK  13 active torsions:
REMARK  status: ('A' for Active; 'I' for Inactive)
REMARK    1  A    between atoms: C_1  and  C_2
REMARK    2  A    between atoms: C_2  and  C_3
REMARK    3  A    between atoms: C_3  and  C_4
REMARK    4  A    between atoms: C_7  and  N_8
REMARK    5  A    between atoms: C_9  and  C_11
REMARK    6  A    between atoms: C_11  and  N_12
REMARK    7  A    between atoms: C_14  and  C_15
REMARK    8  A    between atoms: C_17  and  O_18
REMARK    9  A    between atoms: O_18  and  C_19
REMARK   10  A    between atoms: C_20  and  O_21
REMARK   11  A    between atoms: O_21  and  C_22
REMARK   12  A    between atoms: C_23  and  O_24
REMARK   13  A    between atoms: O_24  and  C_25
REMARK                            x       y       z     vdW  Elec       q    Type
REMARK                         _______ _______ _______ _____ _____    ______ ____
ROOT
ATOM      1  N   UNL     1       3.114   3.545  19.321  0.00  0.00    +0.000 N 
ATOM      2  N   UNL     1       4.084   4.331  18.807  0.00  0.00    +0.000 NA
ATOM      3  C   UNL     1       4.328   3.717  17.634  0.00  0.00    +0.000 A 
ATOM      4  N   UNL     1       3.579   2.578  17.435  0.00  0.00    +0.000 NA
ATOM      5  C   UNL     1       2.843   2.479  18.508  0.00  0.00    +0.000 A 
ATOM      6  N   UNL     1       1.966   1.504  18.797  0.00  0.00    +0.000 N 
ATOM      7  H   UNL     1       2.011   0.687  18.191  0.00  0.00    +0.000 HD
ATOM      8  H   UNL     1       1.765   1.251  19.762  0.00  0.00    +0.000 HD
ENDROOT
BRANCH   3   9
ATOM      9  C   UNL     1       5.306   4.162  16.648  0.00  0.00    +0.000 A 
ATOM     10  C   UNL     1       5.469   3.504  15.429  0.00  0.00    +0.000 A 
ATOM     11  C   UNL     1       6.406   3.963  14.496  0.00  0.00    +0.000 A 
ATOM     12  C   UNL     1       7.227   5.076  14.797  0.00  0.00    +0.000 A 
ATOM     13  C   UNL     1       7.081   5.731  16.036  0.00  0.00    +0.000 A 
ATOM     14  C   UNL     1       6.108   5.275  16.934  0.00  0.00    +0.000 A 
BRANCH  11  15
ATOM     15  O   UNL     1       6.596   3.359  13.273  0.00  0.00    +0.000 OA
ATOM     16  C   UNL     1       5.459   3.300  12.420  0.00  0.00    +0.000 C 
ENDBRANCH  11  15
BRANCH  12  17
ATOM     17  O   UNL     1       8.173   5.381  13.844  0.00  0.00    +0.000 OA
ATOM     18  C   UNL     1       7.710   5.903  12.605  0.00  0.00    +0.000 C 
ENDBRANCH  12  17
BRANCH  13  19
ATOM     19  O   UNL     1       7.925   6.769  16.330  0.00  0.00    +0.000 OA
ATOM     20  C   UNL     1       7.575   7.642  17.398  0.00  0.00    +0.000 C 
ENDBRANCH  13  19
ENDBRANCH   3   9
BRANCH   1  21
ATOM     21  C   UNL     1       2.541   3.843  20.608  0.00  0.00    +0.000 C 
BRANCH  21  23
ATOM     22  N   UNL     1       2.388   6.262  20.394  0.00  0.00    +0.000 N 
ATOM     23  C   UNL     1       1.676   5.075  20.513  0.00  0.00    +0.000 C 
ATOM     24  O   UNL     1       0.454   4.955  20.540  0.00  0.00    +0.000 OA
ATOM     25  H   UNL     1       3.400   6.205  20.487  0.00  0.00    +0.000 HD
BRANCH  22  29
ATOM     26  C   UNL     1       0.771  10.133  19.730  0.00  0.00    +0.000 A 
ATOM     27  C   UNL     1       0.694   9.550  20.999  0.00  0.00    +0.000 A 
ATOM     28  C   UNL     1       1.233   8.282  21.241  0.00  0.00    +0.000 A 
ATOM     29  C   UNL     1       1.855   7.559  20.222  0.00  0.00    +0.000 A 
ATOM     30  C   UNL     1       1.946   8.144  18.952  0.00  0.00    +0.000 A 
ATOM     31  C   UNL     1       1.405   9.416  18.708  0.00  0.00    +0.000 A 
BRANCH  26  32
ATOM     32  C   UNL     1       0.153  11.483  19.460  0.00  0.00    +0.000 C 
BRANCH  32  34
ATOM     33  C   UNL     1       2.135  13.089  19.505  0.00  0.00    +0.000 C 
ATOM     34  C   UNL     1       0.832  12.664  20.164  0.00  0.00    +0.000 C 
ENDBRANCH  32  34
ENDBRANCH  26  32
ENDBRANCH  22  29
ENDBRANCH  21  23
ENDBRANCH   1  21
TORSDOF 9
ENDMDL
MODEL 5
REMARK VINA RESULT:      -7.4      3.371      6.545
REMARK  Name = 
REMARK  13 active torsions:
REMARK  status: ('A' for Active; 'I' for Inactive)
REMARK    1  A    between atoms: C_1  and  C_2
REMARK    2  A    between atoms: C_2  and  C_3
REMARK    3  A    between atoms: C_3  and  C_4
REMARK    4  A    between atoms: C_7  and  N_8
REMARK    5  A    between atoms: C_9  and  C_11
REMARK    6  A    between atoms: C_11  and  N_12
REMARK    7  A    between atoms: C_14  and  C_15
REMARK    8  A    between atoms: C_17  and  O_18
REMARK    9  A    between atoms: O_18  and  C_19
REMARK   10  A    between atoms: C_20  and  O_21
REMARK   11  A    between atoms: O_21  and  C_22
REMARK   12  A    between atoms: C_23  and  O_24
REMARK   13  A    between atoms: O_24  and  C_25
REMARK                            x       y       z     vdW  Elec       q    Type
REMARK                         _______ _______ _______ _____ _____    ______ ____
ROOT
ATOM      1  N   UNL     1       1.130   9.455  19.548  0.00  0.00    +0.000 N 
ATOM      2  N   UNL     1       1.802   8.491  18.883  0.00  0.00    +0.000 NA
ATOM      3  C   UNL     1       1.906   7.539  19.829  0.00  0.00    +0.000 A 
ATOM      4  N   UNL     1       1.364   7.899  21.043  0.00  0.00    +0.000 NA
ATOM      5  C   UNL     1       0.903   9.105  20.851  0.00  0.00    +0.000 A 
ATOM      6  N   UNL     1       0.309   9.896  21.759  0.00  0.00    +0.000 N 
ATOM      7  H   UNL     1       0.380   9.577  22.724  0.00  0.00    +0.000 HD
ATOM      8  H   UNL     1       0.368  10.909  21.688  0.00  0.00    +0.000 HD
ENDROOT
BRANCH   3   9
ATOM      9  C   UNL     1       2.552   6.246  19.641  0.00  0.00    +0.000 A 
ATOM     10  C   UNL     1       3.356   5.983  18.532  0.00  0.00    +0.000 A 
ATOM     11  C   UNL     1       3.976   4.736  18.386  0.00  0.00    +0.000 A 
ATOM     12  C   UNL     1       3.759   3.715  19.342  0.00  0.00    +0.000 A 
ATOM     13  C   UNL     1       2.930   3.969  20.453  0.00  0.00    +0.000 A 
ATOM     14  C   UNL     1       2.355   5.238  20.594  0.00  0.00    +0.000 A 
BRANCH  11  15
ATOM     15  O   UNL     1       4.790   4.430  17.319  0.00  0.00    +0.000 OA
ATOM     16  C   UNL     1       6.050   5.093  17.282  0.00  0.00    +0.000 C 
ENDBRANCH  11  15
BRANCH  12  17
ATOM     17  O   UNL     1       4.345   2.504  19.048  0.00  0.00    +0.000 OA
ATOM     18  C   UNL     1       3.540   1.526  18.401  0.00  0.00    +0.000 C 
ENDBRANCH  12  17
BRANCH  13  19
ATOM     19  O   UNL     1       2.688   2.948  21.334  0.00  0.00    +0.000 OA
ATOM     20  C   UNL     1       1.336   2.616  21.626  0.00  0.00    +0.000 C 
ENDBRANCH  13  19
ENDBRANCH   3   9
BRANCH   1  21
ATOM     21  C   UNL     1       0.794  10.693  18.894  0.00  0.00    +0.000 C 
BRANCH  21  23
ATOM     22  N   UNL     1      -1.467  11.571  19.076  0.00  0.00    +0.000 N 
ATOM     23  C   UNL     1      -0.641  10.659  18.433  0.00  0.00    +0.000 C 
ATOM     24  O   UNL     1      -0.971   9.866  17.555  0.00  0.00    +0.000 OA
ATOM     25  H   UNL     1      -1.065  12.092  19.852  0.00  0.00    +0.000 HD
BRANCH  22  29
ATOM     26  C   UNL     1      -5.570  12.197  18.172  0.00  0.00    +0.000 A 
ATOM     27  C   UNL     1      -5.072  12.534  19.435  0.00  0.00    +0.000 A 
ATOM     28  C   UNL     1      -3.721  12.347  19.747  0.00  0.00    +0.000 A 
ATOM     29  C   UNL     1      -2.834  11.814  18.810  0.00  0.00    +0.000 A 
ATOM     30  C   UNL     1      -3.325  11.489  17.540  0.00  0.00    +0.000 A 
ATOM     31  C   UNL     1      -4.680  11.674  17.226  0.00  0.00    +0.000 A 
BRANCH  26  32
ATOM     32  C   UNL     1      -7.035  12.360  17.850  0.00  0.00    +0.000 C 
BRANCH  32  34
ATOM     33  C   UNL     1      -6.936  14.828  17.210  0.00  0.00    +0.000 C 
ATOM     34  C   UNL     1      -7.357  13.426  16.796  0.00  0.00    +0.000 C 
ENDBRANCH  32  34
ENDBRANCH  26  32
ENDBRANCH  22  29
ENDBRANCH  21  23
ENDBRANCH   1  21
TORSDOF 9
ENDMDL
MODEL 6
REMARK VINA RESULT:      -7.3      3.733      6.649
REMARK  Name = 
REMARK  13 active torsions:
REMARK  status: ('A' for Active; 'I' for Inactive)
REMARK    1  A    between atoms: C_1  and  C_2
REMARK    2  A    between atoms: C_2  and  C_3
REMARK    3  A    between atoms: C_3  and  C_4
REMARK    4  A    between atoms: C_7  and  N_8
REMARK    5  A    between atoms: C_9  and  C_11
REMARK    6  A    between atoms: C_11  and  N_12
REMARK    7  A    between atoms: C_14  and  C_15
REMARK    8  A    between atoms: C_17  and  O_18
REMARK    9  A    between atoms: O_18  and  C_19
REMARK   10  A    between atoms: C_20  and  O_21
REMARK   11  A    between atoms: O_21  and  C_22
REMARK   12  A    between atoms: C_23  and  O_24
REMARK   13  A    between atoms: O_24  and  C_25
REMARK                            x       y       z     vdW  Elec       q    Type
REMARK                         _______ _______ _______ _____ _____    ______ ____
ROOT
ATOM      1  N   UNL     1       0.687   9.880  21.199  0.00  0.00    +0.000 N 
ATOM      2  N   UNL     1       1.313   9.169  20.236  0.00  0.00    +0.000 NA
ATOM      3  C   UNL     1       1.262   7.926  20.750  0.00  0.00    +0.000 A 
ATOM      4  N   UNL     1       0.672   7.861  21.993  0.00  0.00    +0.000 NA
ATOM      5  C   UNL     1       0.338   9.094  22.262  0.00  0.00    +0.000 A 
ATOM      6  N   UNL     1      -0.243   9.545  23.385  0.00  0.00    +0.000 N 
ATOM      7  H   UNL     1      -0.268   8.881  24.157  0.00  0.00    +0.000 HD
ATOM      8  H   UNL     1      -0.086  10.497  23.708  0.00  0.00    +0.000 HD
ENDROOT
BRANCH   3   9
ATOM      9  C   UNL     1       1.798   6.735  20.102  0.00  0.00    +0.000 A 
ATOM     10  C   UNL     1       2.669   6.821  19.015  0.00  0.00    +0.000 A 
ATOM     11  C   UNL     1       3.179   5.660  18.423  0.00  0.00    +0.000 A 
ATOM     12  C   UNL     1       2.785   4.385  18.895  0.00  0.00    +0.000 A 
ATOM     13  C   UNL     1       1.890   4.293  19.979  0.00  0.00    +0.000 A 
ATOM     14  C   UNL     1       1.425   5.471  20.578  0.00  0.00    +0.000 A 
BRANCH  11  15
ATOM     15  O   UNL     1       4.052   5.690  17.358  0.00  0.00    +0.000 OA
ATOM     16  C   UNL     1       4.629   6.955  17.056  0.00  0.00    +0.000 C 
ENDBRANCH  11  15
BRANCH  12  17
ATOM     17  O   UNL     1       3.279   3.318  18.179  0.00  0.00    +0.000 OA
ATOM     18  C   UNL     1       4.255   2.499  18.810  0.00  0.00    +0.000 C 
ENDBRANCH  12  17
BRANCH  13  19
ATOM     19  O   UNL     1       1.477   3.050  20.382  0.00  0.00    +0.000 OA
ATOM     20  C   UNL     1       1.508   2.747  21.771  0.00  0.00    +0.000 C 
ENDBRANCH  13  19
ENDBRANCH   3   9
BRANCH   1  21
ATOM     21  C   UNL     1       0.513  11.302  21.057  0.00  0.00    +0.000 C 
BRANCH  21  23
ATOM     22  N   UNL     1      -0.950  10.547  19.265  0.00  0.00    +0.000 N 
ATOM     23  C   UNL     1      -0.204  11.606  19.765  0.00  0.00    +0.000 C 
ATOM     24  O   UNL     1      -0.092  12.722  19.264  0.00  0.00    +0.000 OA
ATOM     25  H   UNL     1      -0.863   9.654  19.744  0.00  0.00    +0.000 HD
BRANCH  22  29
ATOM     26  C   UNL     1      -3.380  10.435  15.783  0.00  0.00    +0.000 A 
ATOM     27  C   UNL     1      -3.709  11.290  16.840  0.00  0.00    +0.000 A 
ATOM     28  C   UNL     1      -2.914  11.351  17.989  0.00  0.00    +0.000 A 
ATOM     29  C   UNL     1      -1.775  10.556  18.117  0.00  0.00    +0.000 A 
ATOM     30  C   UNL     1      -1.433   9.707  17.056  0.00  0.00    +0.000 A 
ATOM     31  C   UNL     1      -2.230   9.645  15.903  0.00  0.00    +0.000 A 
BRANCH  26  32
ATOM     32  C   UNL     1      -4.261  10.339  14.561  0.00  0.00    +0.000 C 
BRANCH  32  34
ATOM     33  C   UNL     1      -4.482   9.776  12.082  0.00  0.00    +0.000 C 
ATOM     34  C   UNL     1      -3.546   9.915  13.273  0.00  0.00    +0.000 C 
ENDBRANCH  32  34
ENDBRANCH  26  32
ENDBRANCH  22  29
ENDBRANCH  21  23
ENDBRANCH   1  21
TORSDOF 9
ENDMDL
MODEL 7
REMARK VINA RESULT:      -7.2      3.292      6.428
REMARK  Name = 
REMARK  13 active torsions:
REMARK  status: ('A' for Active; 'I' for Inactive)
REMARK    1  A    between atoms: C_1  and  C_2
REMARK    2  A    between atoms: C_2  and  C_3
REMARK    3  A    between atoms: C_3  and  C_4
REMARK    4  A    between atoms: C_7  and  N_8
REMARK    5  A    between atoms: C_9  and  C_11
REMARK    6  A    between atoms: C_11  and  N_12
REMARK    7  A    between atoms: C_14  and  C_15
REMARK    8  A    between atoms: C_17  and  O_18
REMARK    9  A    between atoms: O_18  and  C_19
REMARK   10  A    between atoms: C_20  and  O_21
REMARK   11  A    between atoms: O_21  and  C_22
REMARK   12  A    between atoms: C_23  and  O_24
REMARK   13  A    between atoms: O_24  and  C_25
REMARK                            x       y       z     vdW  Elec       q    Type
REMARK                         _______ _______ _______ _____ _____    ______ ____
ROOT
ATOM      1  N   UNL     1       1.477   9.666  19.587  0.00  0.00    +0.000 N 
ATOM      2  N   UNL     1       1.626   8.417  20.079  0.00  0.00    +0.000 NA
ATOM      3  C   UNL     1       2.295   7.816  19.077  0.00  0.00    +0.000 A 
ATOM      4  N   UNL     1       2.522   8.632  17.990  0.00  0.00    +0.000 NA
ATOM      5  C   UNL     1       1.987   9.775  18.322  0.00  0.00    +0.000 A 
ATOM      6  N   UNL     1       1.923  10.885  17.569  0.00  0.00    +0.000 N 
ATOM      7  H   UNL     1       2.173  10.758  16.590  0.00  0.00    +0.000 HD
ATOM      8  H   UNL     1       1.165  11.552  17.685  0.00  0.00    +0.000 HD
ENDROOT
BRANCH   3   9
ATOM      9  C   UNL     1       2.732   6.425  19.084  0.00  0.00    +0.000 A 
ATOM     10  C   UNL     1       2.486   5.586  20.172  0.00  0.00    +0.000 A 
ATOM     11  C   UNL     1       2.904   4.250  20.144  0.00  0.00    +0.000 A 
ATOM     12  C   UNL     1       3.616   3.748  19.029  0.00  0.00    +0.000 A 
ATOM     13  C   UNL     1       3.886   4.597  17.937  0.00  0.00    +0.000 A 
ATOM     14  C   UNL     1       3.421   5.918  17.975  0.00  0.00    +0.000 A 
BRANCH  11  15
ATOM     15  O   UNL     1       2.674   3.377  21.183  0.00  0.00    +0.000 OA
ATOM     16  C   UNL     1       1.362   2.833  21.267  0.00  0.00    +0.000 C 
ENDBRANCH  11  15
BRANCH  12  17
ATOM     17  O   UNL     1       4.055   2.449  19.152  0.00  0.00    +0.000 OA
ATOM     18  C   UNL     1       3.421   1.463  18.346  0.00  0.00    +0.000 C 
ENDBRANCH  12  17
BRANCH  13  19
ATOM     19  O   UNL     1       4.627   4.107  16.895  0.00  0.00    +0.000 OA
ATOM     20  C   UNL     1       6.012   4.428  16.842  0.00  0.00    +0.000 C 
ENDBRANCH  13  19
ENDBRANCH   3   9
BRANCH   1  21
ATOM     21  C   UNL     1       0.794  10.674  20.355  0.00  0.00    +0.000 C 
BRANCH  21  23
ATOM     22  N   UNL     1      -1.257  11.707  19.551  0.00  0.00    +0.000 N 
ATOM     23  C   UNL     1      -0.694  10.575  20.126  0.00  0.00    +0.000 C 
ATOM     24  O   UNL     1      -1.283   9.545  20.442  0.00  0.00    +0.000 OA
ATOM     25  H   UNL     1      -0.653  12.517  19.438  0.00  0.00    +0.000 HD
BRANCH  22  29
ATOM     26  C   UNL     1      -5.290  12.118  18.281  0.00  0.00    +0.000 A 
ATOM     27  C   UNL     1      -4.908  12.556  19.554  0.00  0.00    +0.000 A 
ATOM     28  C   UNL     1      -3.582  12.441  19.985  0.00  0.00    +0.000 A 
ATOM     29  C   UNL     1      -2.605  11.880  19.161  0.00  0.00    +0.000 A 
ATOM     30  C   UNL     1      -2.980  11.453  17.881  0.00  0.00    +0.000 A 
ATOM     31  C   UNL     1      -4.309  11.567  17.448  0.00  0.00    +0.000 A 
BRANCH  26  32
ATOM     32  C   UNL     1      -6.728  12.204  17.833  0.00  0.00    +0.000 C 
BRANCH  32  34
ATOM     33  C   UNL     1      -6.929  14.716  17.432  0.00  0.00    +0.000 C 
ATOM     34  C   UNL     1      -7.033  13.324  16.830  0.00  0.00    +0.000 C 
ENDBRANCH  32  34
ENDBRANCH  26  32
ENDBRANCH  22  29
ENDBRANCH  21  23
ENDBRANCH   1  21
TORSDOF 9
ENDMDL
MODEL 8
REMARK VINA RESULT:      -7.1      3.473      6.744
REMARK  Name = 
REMARK  13 active torsions:
REMARK  status: ('A' for Active; 'I' for Inactive)
REMARK    1  A    between atoms: C_1  and  C_2
REMARK    2  A    between atoms: C_2  and  C_3
REMARK    3  A    between atoms: C_3  and  C_4
REMARK    4  A    between atoms: C_7  and  N_8
REMARK    5  A    between atoms: C_9  and  C_11
REMARK    6  A    between atoms: C_11  and  N_12
REMARK    7  A    between atoms: C_14  and  C_15
REMARK    8  A    between atoms: C_17  and  O_18
REMARK    9  A    between atoms: O_18  and  C_19
REMARK   10  A    between atoms: C_20  and  O_21
REMARK   11  A    between atoms: O_21  and  C_22
REMARK   12  A    between atoms: C_23  and  O_24
REMARK   13  A    between atoms: O_24  and  C_25
REMARK                            x       y       z     vdW  Elec       q    Type
REMARK                         _______ _______ _______ _____ _____    ______ ____
ROOT
ATOM      1  N   UNL     1       0.890   9.749  20.312  0.00  0.00    +0.000 N 
ATOM      2  N   UNL     1       1.450   8.858  19.466  0.00  0.00    +0.000 NA
ATOM      3  C   UNL     1       1.670   7.815  20.289  0.00  0.00    +0.000 A 
ATOM      4  N   UNL     1       1.307   8.051  21.597  0.00  0.00    +0.000 NA
ATOM      5  C   UNL     1       0.840   9.270  21.592  0.00  0.00    +0.000 A 
ATOM      6  N   UNL     1       0.389   9.965  22.648  0.00  0.00    +0.000 N 
ATOM      7  H   UNL     1       0.589   9.550  23.557  0.00  0.00    +0.000 HD
ATOM      8  H   UNL     1       0.452  10.980  22.672  0.00  0.00    +0.000 HD
ENDROOT
BRANCH   3   9
ATOM      9  C   UNL     1       2.266   6.547  19.885  0.00  0.00    +0.000 A 
ATOM     10  C   UNL     1       2.202   5.416  20.699  0.00  0.00    +0.000 A 
ATOM     11  C   UNL     1       2.770   4.207  20.278  0.00  0.00    +0.000 A 
ATOM     12  C   UNL     1       3.450   4.132  19.039  0.00  0.00    +0.000 A 
ATOM     13  C   UNL     1       3.536   5.277  18.223  0.00  0.00    +0.000 A 
ATOM     14  C   UNL     1       2.925   6.462  18.652  0.00  0.00    +0.000 A 
BRANCH  11  15
ATOM     15  O   UNL     1       2.723   3.059  21.036  0.00  0.00    +0.000 OA
ATOM     16  C   UNL     1       1.441   2.687  21.531  0.00  0.00    +0.000 C 
ENDBRANCH  11  15
BRANCH  12  17
ATOM     17  O   UNL     1       4.046   2.919  18.772  0.00  0.00    +0.000 OA
ATOM     18  C   UNL     1       3.308   1.982  17.998  0.00  0.00    +0.000 C 
ENDBRANCH  12  17
BRANCH  13  19
ATOM     19  O   UNL     1       4.249   5.196  17.056  0.00  0.00    +0.000 OA
ATOM     20  C   UNL     1       5.624   5.561  17.079  0.00  0.00    +0.000 C 
ENDBRANCH  13  19
ENDBRANCH   3   9
BRANCH   1  21
ATOM     21  C   UNL     1       0.484  11.047  19.838  0.00  0.00    +0.000 C 
BRANCH  21  23
ATOM     22  N   UNL     1      -1.801  11.869  19.703  0.00  0.00    +0.000 N 
ATOM     23  C   UNL     1      -0.880  10.959  19.202  0.00  0.00    +0.000 C 
ATOM     24  O   UNL     1      -1.078  10.130  18.317  0.00  0.00    +0.000 OA
ATOM     25  H   UNL     1      -1.513  12.424  20.506  0.00  0.00    +0.000 HD
BRANCH  22  29
ATOM     26  C   UNL     1      -5.771  12.352  18.273  0.00  0.00    +0.000 A 
ATOM     27  C   UNL     1      -5.437  12.770  19.565  0.00  0.00    +0.000 A 
ATOM     28  C   UNL     1      -4.132  12.631  20.050  0.00  0.00    +0.000 A 
ATOM     29  C   UNL     1      -3.129  12.066  19.260  0.00  0.00    +0.000 A 
ATOM     30  C   UNL     1      -3.456  11.658  17.961  0.00  0.00    +0.000 A 
ATOM     31  C   UNL     1      -4.765  11.796  17.474  0.00  0.00    +0.000 A 
BRANCH  26  32
ATOM     32  C   UNL     1      -7.189  12.463  17.766  0.00  0.00    +0.000 C 
BRANCH  32  34
ATOM     33  C   UNL     1      -7.023  14.682  16.516  0.00  0.00    +0.000 C 
ATOM     34  C   UNL     1      -7.717  13.895  17.617  0.00  0.00    +0.000 C 
ENDBRANCH  32  34
ENDBRANCH  26  32
ENDBRANCH  22  29
ENDBRANCH  21  23
ENDBRANCH   1  21
TORSDOF 9
ENDMDL
MODEL 9
REMARK VINA RESULT:      -7.1      3.685      6.772
REMARK  Name = 
REMARK  13 active torsions:
REMARK  status: ('A' for Active; 'I' for Inactive)
REMARK    1  A    between atoms: C_1  and  C_2
REMARK    2  A    between atoms: C_2  and  C_3
REMARK    3  A    between atoms: C_3  and  C_4
REMARK    4  A    between atoms: C_7  and  N_8
REMARK    5  A    between atoms: C_9  and  C_11
REMARK    6  A    between atoms: C_11  and  N_12
REMARK    7  A    between atoms: C_14  and  C_15
REMARK    8  A    between atoms: C_17  and  O_18
REMARK    9  A    between atoms: O_18  and  C_19
REMARK   10  A    between atoms: C_20  and  O_21
REMARK   11  A    between atoms: O_21  and  C_22
REMARK   12  A    between atoms: C_23  and  O_24
REMARK   13  A    between atoms: O_24  and  C_25
REMARK                            x       y       z     vdW  Elec       q    Type
REMARK                         _______ _______ _______ _____ _____    ______ ____
ROOT
ATOM      1  N   UNL     1       1.081   9.493  19.752  0.00  0.00    +0.000 N 
ATOM      2  N   UNL     1       1.728   8.515  19.082  0.00  0.00    +0.000 NA
ATOM      3  C   UNL     1       1.830   7.566  20.031  0.00  0.00    +0.000 A 
ATOM      4  N   UNL     1       1.310   7.940  21.251  0.00  0.00    +0.000 NA
ATOM      5  C   UNL     1       0.866   9.153  21.059  0.00  0.00    +0.000 A 
ATOM      6  N   UNL     1       0.298   9.956  21.972  0.00  0.00    +0.000 N 
ATOM      7  H   UNL     1       0.377   9.640  22.937  0.00  0.00    +0.000 HD
ATOM      8  H   UNL     1       0.372  10.968  21.896  0.00  0.00    +0.000 HD
ENDROOT
BRANCH   3   9
ATOM      9  C   UNL     1       2.452   6.261  19.840  0.00  0.00    +0.000 A 
ATOM     10  C   UNL     1       3.744   6.133  19.330  0.00  0.00    +0.000 A 
ATOM     11  C   UNL     1       4.321   4.868  19.172  0.00  0.00    +0.000 A 
ATOM     12  C   UNL     1       3.584   3.702  19.491  0.00  0.00    +0.000 A 
ATOM     13  C   UNL     1       2.271   3.825  19.987  0.00  0.00    +0.000 A 
ATOM     14  C   UNL     1       1.733   5.105  20.172  0.00  0.00    +0.000 A 
BRANCH  11  15
ATOM     15  O   UNL     1       5.596   4.687  18.686  0.00  0.00    +0.000 OA
ATOM     16  C   UNL     1       6.626   5.422  19.339  0.00  0.00    +0.000 C 
ENDBRANCH  11  15
BRANCH  12  17
ATOM     17  O   UNL     1       4.219   2.513  19.209  0.00  0.00    +0.000 OA
ATOM     18  C   UNL     1       3.833   1.828  18.025  0.00  0.00    +0.000 C 
ENDBRANCH  12  17
BRANCH  13  19
ATOM     19  O   UNL     1       1.556   2.683  20.234  0.00  0.00    +0.000 OA
ATOM     20  C   UNL     1       0.578   2.281  19.282  0.00  0.00    +0.000 C 
ENDBRANCH  13  19
ENDBRANCH   3   9
BRANCH   1  21
ATOM     21  C   UNL     1       0.757  10.733  19.098  0.00  0.00    +0.000 C 
BRANCH  21  23
ATOM     22  N   UNL     1      -1.539  11.539  19.081  0.00  0.00    +0.000 N 
ATOM     23  C   UNL     1      -0.630  10.657  18.510  0.00  0.00    +0.000 C 
ATOM     24  O   UNL     1      -0.855   9.862  17.601  0.00  0.00    +0.000 OA
ATOM     25  H   UNL     1      -1.224  12.066  19.892  0.00  0.00    +0.000 HD
BRANCH  22  29
ATOM     26  C   UNL     1      -5.590  12.254  18.026  0.00  0.00    +0.000 A 
ATOM     27  C   UNL     1      -4.721  11.662  17.104  0.00  0.00    +0.000 A 
ATOM     28  C   UNL     1      -3.386  11.407  17.437  0.00  0.00    +0.000 A 
ATOM     29  C   UNL     1      -2.884  11.741  18.695  0.00  0.00    +0.000 A 
ATOM     30  C   UNL     1      -3.754  12.321  19.626  0.00  0.00    +0.000 A 
ATOM     31  C   UNL     1      -5.093  12.579  19.293  0.00  0.00    +0.000 A 
BRANCH  26  32
ATOM     32  C   UNL     1      -7.019  12.567  17.651  0.00  0.00    +0.000 C 
BRANCH  32  34
ATOM     33  C   UNL     1      -7.074  15.109  17.431  0.00  0.00    +0.000 C 
ATOM     34  C   UNL     1      -7.199  13.771  16.718  0.00  0.00    +0.000 C 
ENDBRANCH  32  34
ENDBRANCH  26  32
ENDBRANCH  22  29
ENDBRANCH  21  23
ENDBRANCH   1  21
TORSDOF 9
ENDMDL
