MODEL 1
REMARK VINA RESULT:      -8.4      0.000      0.000
REMARK  Name = 
REMARK  7 active torsions:
REMARK  status: ('A' for Active; 'I' for Inactive)
REMARK    1  A    between atoms: C_1  and  C_2
REMARK    2  A    between atoms: C_5  and  C_6
REMARK    3  A    between atoms: N_8  and  C_9
REMARK    4  A    between atoms: C_9  and  C_10
REMARK    5  A    between atoms: C_10  and  N_11
REMARK    6  A    between atoms: C_17  and  O_18
REMARK    7  A    between atoms: O_18  and  C_19
REMARK                            x       y       z     vdW  Elec       q    Type
REMARK                         _______ _______ _______ _____ _____    ______ ____
ROOT
ATOM      1  N   UNL     1       6.726   5.325  17.127  0.00  0.00    +0.000 N 
ATOM      2  C   UNL     1       6.831   5.011  15.776  0.00  0.00    +0.000 A 
ATOM      3  N   UNL     1       7.684   5.435  14.919  0.00  0.00    +0.000 NA
ATOM      4  S   UNL     1       5.516   3.958  15.209  0.00  0.00    +0.000 S 
ATOM      5  C   UNL     1       4.785   4.002  16.819  0.00  0.00    +0.000 A 
ATOM      6  C   UNL     1       3.493   3.673  17.173  0.00  0.00    +0.000 A 
ATOM      7  C   UNL     1       3.078   3.931  18.484  0.00  0.00    +0.000 A 
ATOM      8  C   UNL     1       4.021   4.286  19.460  0.00  0.00    +0.000 A 
ATOM      9  C   UNL     1       5.312   4.652  19.080  0.00  0.00    +0.000 A 
ATOM     10  C   UNL     1       5.637   4.637  17.731  0.00  0.00    +0.000 A 
ATOM     11  H   UNL     1       8.373   6.025  15.392  0.00  0.00    +0.000 HD
ENDROOT
BRANCH   1  12
ATOM     12  C   UNL     1       6.723   6.776  17.487  0.00  0.00    +0.000 C 
BRANCH  12  13
ATOM     13  C   UNL     1       7.970   7.177  18.305  0.00  0.00    +0.000 C 
BRANCH  13  16
ATOM     14  C   UNL     1       9.016  10.597  18.560  0.00  0.00    +0.000 A 
ATOM     15  C   UNL     1       9.165   9.296  18.996  0.00  0.00    +0.000 A 
ATOM     16  N   UNL     1       8.317   8.579  18.205  0.00  0.00    +0.000 N 
ATOM     17  N   UNL     1       7.684   9.367  17.325  0.00  0.00    +0.000 NA
ATOM     18  N   UNL     1       8.103  10.606  17.531  0.00  0.00    +0.000 NA
BRANCH  14  23
ATOM     19  C   UNL     1      11.622  15.442  20.378  0.00  0.00    +0.000 C 
ATOM     20  C   UNL     1      10.954  14.168  19.945  0.00  0.00    +0.000 A 
ATOM     21  C   UNL     1      11.636  12.952  19.956  0.00  0.00    +0.000 A 
ATOM     22  C   UNL     1      11.009  11.773  19.522  0.00  0.00    +0.000 A 
ATOM     23  C   UNL     1       9.685  11.791  19.063  0.00  0.00    +0.000 A 
ATOM     24  C   UNL     1       8.996  13.014  19.085  0.00  0.00    +0.000 A 
ATOM     25  C   UNL     1       9.622  14.190  19.519  0.00  0.00    +0.000 A 
ENDBRANCH  14  23
ENDBRANCH  13  16
ENDBRANCH  12  13
ENDBRANCH   1  12
BRANCH   7  26
ATOM     26  O   UNL     1       1.726   3.879  18.666  0.00  0.00    +0.000 OA
BRANCH  26  27
ATOM     27  C   UNL     1       1.197   2.701  19.259  0.00  0.00    +0.000 C 
ATOM     28  F   UNL     1       0.678   2.994  20.469  0.00  0.00    +0.000 F 
ATOM     29  F   UNL     1       0.244   2.121  18.492  0.00  0.00    +0.000 F 
ATOM     30  F   UNL     1       2.192   1.804  19.423  0.00  0.00    +0.000 F 
ENDBRANCH  26  27
ENDBRANCH   7  26
TORSDOF 6
ENDMDL
MODEL 2
REMARK VINA RESULT:      -8.4      4.720      6.329
REMARK  Name = 
REMARK  7 active torsions:
REMARK  status: ('A' for Active; 'I' for Inactive)
REMARK    1  A    between atoms: C_1  and  C_2
REMARK    2  A    between atoms: C_5  and  C_6
REMARK    3  A    between atoms: N_8  and  C_9
REMARK    4  A    between atoms: C_9  and  C_10
REMARK    5  A    between atoms: C_10  and  N_11
REMARK    6  A    between atoms: C_17  and  O_18
REMARK    7  A    between atoms: O_18  and  C_19
REMARK                            x       y       z     vdW  Elec       q    Type
REMARK                         _______ _______ _______ _____ _____    ______ ____
ROOT
ATOM      1  N   UNL     1       6.255   5.393  17.451  0.00  0.00    +0.000 N 
ATOM      2  C   UNL     1       6.544   5.115  16.119  0.00  0.00    +0.000 A 
ATOM      3  N   UNL     1       7.191   5.828  15.274  0.00  0.00    +0.000 NA
ATOM      4  S   UNL     1       5.802   3.602  15.554  0.00  0.00    +0.000 S 
ATOM      5  C   UNL     1       5.039   3.385  17.135  0.00  0.00    +0.000 A 
ATOM      6  C   UNL     1       3.978   2.565  17.460  0.00  0.00    +0.000 A 
ATOM      7  C   UNL     1       3.431   2.665  18.742  0.00  0.00    +0.000 A 
ATOM      8  C   UNL     1       4.098   3.399  19.734  0.00  0.00    +0.000 A 
ATOM      9  C   UNL     1       5.144   4.251  19.383  0.00  0.00    +0.000 A 
ATOM     10  C   UNL     1       5.512   4.336  18.047  0.00  0.00    +0.000 A 
ATOM     11  H   UNL     1       7.556   6.660  15.744  0.00  0.00    +0.000 HD
ENDROOT
BRANCH   1  12
ATOM     12  C   UNL     1       5.643   6.724  17.747  0.00  0.00    +0.000 C 
BRANCH  12  13
ATOM     13  C   UNL     1       4.278   6.907  17.047  0.00  0.00    +0.000 C 
BRANCH  13  16
ATOM     14  C   UNL     1       1.730   8.583  18.933  0.00  0.00    +0.000 A 
ATOM     15  C   UNL     1       2.452   8.505  17.759  0.00  0.00    +0.000 A 
ATOM     16  N   UNL     1       3.229   7.396  17.917  0.00  0.00    +0.000 N 
ATOM     17  N   UNL     1       3.009   6.809  19.101  0.00  0.00    +0.000 NA
ATOM     18  N   UNL     1       2.093   7.524  19.734  0.00  0.00    +0.000 NA
BRANCH  14  23
ATOM     19  C   UNL     1      -2.119  12.698  20.284  0.00  0.00    +0.000 C 
ATOM     20  C   UNL     1      -1.139  11.605  19.963  0.00  0.00    +0.000 A 
ATOM     21  C   UNL     1      -0.322  11.051  20.947  0.00  0.00    +0.000 A 
ATOM     22  C   UNL     1       0.609  10.050  20.628  0.00  0.00    +0.000 A 
ATOM     23  C   UNL     1       0.743   9.587  19.312  0.00  0.00    +0.000 A 
ATOM     24  C   UNL     1      -0.106  10.128  18.333  0.00  0.00    +0.000 A 
ATOM     25  C   UNL     1      -1.035  11.126  18.652  0.00  0.00    +0.000 A 
ENDBRANCH  14  23
ENDBRANCH  13  16
ENDBRANCH  12  13
ENDBRANCH   1  12
BRANCH   7  26
ATOM     26  O   UNL     1       2.210   2.068  18.881  0.00  0.00    +0.000 OA
BRANCH  26  27
ATOM     27  C   UNL     1       1.076   2.921  18.957  0.00  0.00    +0.000 C 
ATOM     28  F   UNL     1       1.281   4.019  18.200  0.00  0.00    +0.000 F 
ATOM     29  F   UNL     1      -0.060   2.305  18.552  0.00  0.00    +0.000 F 
ATOM     30  F   UNL     1       0.899   3.307  20.237  0.00  0.00    +0.000 F 
ENDBRANCH  26  27
ENDBRANCH   7  26
TORSDOF 6
ENDMDL
MODEL 3
REMARK VINA RESULT:      -8.4      4.903      6.389
REMARK  Name = 
REMARK  7 active torsions:
REMARK  status: ('A' for Active; 'I' for Inactive)
REMARK    1  A    between atoms: C_1  and  C_2
REMARK    2  A    between atoms: C_5  and  C_6
REMARK    3  A    between atoms: N_8  and  C_9
REMARK    4  A    between atoms: C_9  and  C_10
REMARK    5  A    between atoms: C_10  and  N_11
REMARK    6  A    between atoms: C_17  and  O_18
REMARK    7  A    between atoms: O_18  and  C_19
REMARK                            x       y       z     vdW  Elec       q    Type
REMARK                         _______ _______ _______ _____ _____    ______ ____
ROOT
ATOM      1  N   UNL     1       5.836   5.542  17.341  0.00  0.00    +0.000 N 
ATOM      2  C   UNL     1       6.106   5.181  16.026  0.00  0.00    +0.000 A 
ATOM      3  N   UNL     1       6.658   5.876  15.102  0.00  0.00    +0.000 NA
ATOM      4  S   UNL     1       5.489   3.566  15.613  0.00  0.00    +0.000 S 
ATOM      5  C   UNL     1       4.800   3.414  17.235  0.00  0.00    +0.000 A 
ATOM      6  C   UNL     1       3.829   2.533  17.665  0.00  0.00    +0.000 A 
ATOM      7  C   UNL     1       3.316   2.690  18.957  0.00  0.00    +0.000 A 
ATOM      8  C   UNL     1       3.945   3.561  19.859  0.00  0.00    +0.000 A 
ATOM      9  C   UNL     1       4.896   4.471  19.401  0.00  0.00    +0.000 A 
ATOM     10  C   UNL     1       5.212   4.476  18.049  0.00  0.00    +0.000 A 
ATOM     11  H   UNL     1       6.959   6.773  15.489  0.00  0.00    +0.000 HD
ENDROOT
BRANCH   1  12
ATOM     12  C   UNL     1       5.114   6.834  17.554  0.00  0.00    +0.000 C 
BRANCH  12  13
ATOM     13  C   UNL     1       3.583   6.675  17.420  0.00  0.00    +0.000 C 
BRANCH  13  16
ATOM     14  C   UNL     1       1.521   9.025  19.177  0.00  0.00    +0.000 A 
ATOM     15  C   UNL     1       2.222   7.836  19.208  0.00  0.00    +0.000 A 
ATOM     16  N   UNL     1       2.824   7.770  17.986  0.00  0.00    +0.000 N 
ATOM     17  N   UNL     1       2.534   8.844  17.239  0.00  0.00    +0.000 NA
ATOM     18  N   UNL     1       1.737   9.621  17.955  0.00  0.00    +0.000 NA
BRANCH  14  23
ATOM     19  C   UNL     1      -1.721  11.494  23.295  0.00  0.00    +0.000 C 
ATOM     20  C   UNL     1      -0.900  10.817  22.235  0.00  0.00    +0.000 A 
ATOM     21  C   UNL     1      -0.094   9.719  22.533  0.00  0.00    +0.000 A 
ATOM     22  C   UNL     1       0.690   9.113  21.540  0.00  0.00    +0.000 A 
ATOM     23  C   UNL     1       0.685   9.598  20.225  0.00  0.00    +0.000 A 
ATOM     24  C   UNL     1      -0.154  10.684  19.926  0.00  0.00    +0.000 A 
ATOM     25  C   UNL     1      -0.937  11.288  20.918  0.00  0.00    +0.000 A 
ENDBRANCH  14  23
ENDBRANCH  13  16
ENDBRANCH  12  13
ENDBRANCH   1  12
BRANCH   7  26
ATOM     26  O   UNL     1       2.161   2.001  19.190  0.00  0.00    +0.000 OA
BRANCH  26  27
ATOM     27  C   UNL     1       0.945   2.736  19.141  0.00  0.00    +0.000 C 
ATOM     28  F   UNL     1       0.521   2.998  20.394  0.00  0.00    +0.000 F 
ATOM     29  F   UNL     1       1.074   3.899  18.460  0.00  0.00    +0.000 F 
ATOM     30  F   UNL     1       0.007   1.996  18.514  0.00  0.00    +0.000 F 
ENDBRANCH  26  27
ENDBRANCH   7  26
TORSDOF 6
ENDMDL
MODEL 4
REMARK VINA RESULT:      -8.2      1.470      1.905
REMARK  Name = 
REMARK  7 active torsions:
REMARK  status: ('A' for Active; 'I' for Inactive)
REMARK    1  A    between atoms: C_1  and  C_2
REMARK    2  A    between atoms: C_5  and  C_6
REMARK    3  A    between atoms: N_8  and  C_9
REMARK    4  A    between atoms: C_9  and  C_10
REMARK    5  A    between atoms: C_10  and  N_11
REMARK    6  A    between atoms: C_17  and  O_18
REMARK    7  A    between atoms: O_18  and  C_19
REMARK                            x       y       z     vdW  Elec       q    Type
REMARK                         _______ _______ _______ _____ _____    ______ ____
ROOT
ATOM      1  N   UNL     1       6.759   4.379  16.900  0.00  0.00    +0.000 N 
ATOM      2  C   UNL     1       6.674   5.110  15.720  0.00  0.00    +0.000 A 
ATOM      3  N   UNL     1       7.592   5.349  14.858  0.00  0.00    +0.000 NA
ATOM      4  S   UNL     1       5.083   5.868  15.491  0.00  0.00    +0.000 S 
ATOM      5  C   UNL     1       4.554   5.231  17.054  0.00  0.00    +0.000 A 
ATOM      6  C   UNL     1       3.480   5.641  17.817  0.00  0.00    +0.000 A 
ATOM      7  C   UNL     1       3.334   5.104  19.099  0.00  0.00    +0.000 A 
ATOM      8  C   UNL     1       4.117   4.009  19.493  0.00  0.00    +0.000 A 
ATOM      9  C   UNL     1       5.222   3.632  18.730  0.00  0.00    +0.000 A 
ATOM     10  C   UNL     1       5.507   4.350  17.576  0.00  0.00    +0.000 A 
ATOM     11  H   UNL     1       8.442   4.847  15.123  0.00  0.00    +0.000 HD
ENDROOT
BRANCH   1  12
ATOM     12  C   UNL     1       7.875   4.725  17.832  0.00  0.00    +0.000 C 
BRANCH  12  13
ATOM     13  C   UNL     1       7.471   5.821  18.844  0.00  0.00    +0.000 C 
BRANCH  13  16
ATOM     14  C   UNL     1       8.587   9.199  18.398  0.00  0.00    +0.000 A 
ATOM     15  C   UNL     1       8.659   8.034  19.135  0.00  0.00    +0.000 A 
ATOM     16  N   UNL     1       7.866   7.158  18.455  0.00  0.00    +0.000 N 
ATOM     17  N   UNL     1       7.337   7.724  17.361  0.00  0.00    +0.000 NA
ATOM     18  N   UNL     1       7.771   8.973  17.313  0.00  0.00    +0.000 NA
BRANCH  14  23
ATOM     19  C   UNL     1      11.093  14.265  19.673  0.00  0.00    +0.000 C 
ATOM     20  C   UNL     1      10.467  12.950  19.306  0.00  0.00    +0.000 A 
ATOM     21  C   UNL     1       9.758  12.791  18.116  0.00  0.00    +0.000 A 
ATOM     22  C   UNL     1       9.153  11.566  17.797  0.00  0.00    +0.000 A 
ATOM     23  C   UNL     1       9.242  10.473  18.671  0.00  0.00    +0.000 A 
ATOM     24  C   UNL     1       9.983  10.632  19.852  0.00  0.00    +0.000 A 
ATOM     25  C   UNL     1      10.588  11.855  20.169  0.00  0.00    +0.000 A 
ENDBRANCH  14  23
ENDBRANCH  13  16
ENDBRANCH  12  13
ENDBRANCH   1  12
BRANCH   7  26
ATOM     26  O   UNL     1       2.454   5.780  19.896  0.00  0.00    +0.000 OA
BRANCH  26  27
ATOM     27  C   UNL     1       1.373   5.038  20.443  0.00  0.00    +0.000 C 
ATOM     28  F   UNL     1       0.431   5.884  20.909  0.00  0.00    +0.000 F 
ATOM     29  F   UNL     1       0.813   4.200  19.540  0.00  0.00    +0.000 F 
ATOM     30  F   UNL     1       1.827   4.289  21.470  0.00  0.00    +0.000 F 
ENDBRANCH  26  27
ENDBRANCH   7  26
TORSDOF 6
ENDMDL
MODEL 5
REMARK VINA RESULT:      -8.2      1.453      1.854
REMARK  Name = 
REMARK  7 active torsions:
REMARK  status: ('A' for Active; 'I' for Inactive)
REMARK    1  A    between atoms: C_1  and  C_2
REMARK    2  A    between atoms: C_5  and  C_6
REMARK    3  A    between atoms: N_8  and  C_9
REMARK    4  A    between atoms: C_9  and  C_10
REMARK    5  A    between atoms: C_10  and  N_11
REMARK    6  A    between atoms: C_17  and  O_18
REMARK    7  A    between atoms: O_18  and  C_19
REMARK                            x       y       z     vdW  Elec       q    Type
REMARK                         _______ _______ _______ _____ _____    ______ ____
ROOT
ATOM      1  N   UNL     1       6.798   4.364  16.761  0.00  0.00    +0.000 N 
ATOM      2  C   UNL     1       6.759   5.121  15.596  0.00  0.00    +0.000 A 
ATOM      3  N   UNL     1       7.713   5.390  14.783  0.00  0.00    +0.000 NA
ATOM      4  S   UNL     1       5.171   5.866  15.310  0.00  0.00    +0.000 S 
ATOM      5  C   UNL     1       4.578   5.187  16.832  0.00  0.00    +0.000 A 
ATOM      6  C   UNL     1       3.465   5.566  17.553  0.00  0.00    +0.000 A 
ATOM      7  C   UNL     1       3.267   4.997  18.815  0.00  0.00    +0.000 A 
ATOM      8  C   UNL     1       4.045   3.902  19.220  0.00  0.00    +0.000 A 
ATOM      9  C   UNL     1       5.188   3.556  18.500  0.00  0.00    +0.000 A 
ATOM     10  C   UNL     1       5.517   4.304  17.378  0.00  0.00    +0.000 A 
ATOM     11  H   UNL     1       8.556   4.893  15.076  0.00  0.00    +0.000 HD
ENDROOT
BRANCH   1  12
ATOM     12  C   UNL     1       7.866   4.700  17.752  0.00  0.00    +0.000 C 
BRANCH  12  13
ATOM     13  C   UNL     1       7.415   5.794  18.746  0.00  0.00    +0.000 C 
BRANCH  13  16
ATOM     14  C   UNL     1       8.683   9.133  18.429  0.00  0.00    +0.000 A 
ATOM     15  C   UNL     1       8.692   7.943  19.128  0.00  0.00    +0.000 A 
ATOM     16  N   UNL     1       7.873   7.125  18.407  0.00  0.00    +0.000 N 
ATOM     17  N   UNL     1       7.387   7.748  17.325  0.00  0.00    +0.000 NA
ATOM     18  N   UNL     1       7.875   8.978  17.325  0.00  0.00    +0.000 NA
BRANCH  14  23
ATOM     19  C   UNL     1      11.650  13.966  19.616  0.00  0.00    +0.000 C 
ATOM     20  C   UNL     1      10.846  12.730  19.327  0.00  0.00    +0.000 A 
ATOM     21  C   UNL     1      10.233  12.008  20.349  0.00  0.00    +0.000 A 
ATOM     22  C   UNL     1       9.508  10.839  20.068  0.00  0.00    +0.000 A 
ATOM     23  C   UNL     1       9.387  10.367  18.754  0.00  0.00    +0.000 A 
ATOM     24  C   UNL     1       9.981  11.118  17.727  0.00  0.00    +0.000 A 
ATOM     25  C   UNL     1      10.703  12.285  18.008  0.00  0.00    +0.000 A 
ENDBRANCH  14  23
ENDBRANCH  13  16
ENDBRANCH  12  13
ENDBRANCH   1  12
BRANCH   7  26
ATOM     26  O   UNL     1       2.343   5.644  19.585  0.00  0.00    +0.000 OA
BRANCH  26  27
ATOM     27  C   UNL     1       1.531   4.844  20.433  0.00  0.00    +0.000 C 
ATOM     28  F   UNL     1       2.267   4.383  21.465  0.00  0.00    +0.000 F 
ATOM     29  F   UNL     1       0.463   5.523  20.914  0.00  0.00    +0.000 F 
ATOM     30  F   UNL     1       1.064   3.790  19.732  0.00  0.00    +0.000 F 
ENDBRANCH  26  27
ENDBRANCH   7  26
TORSDOF 6
ENDMDL
MODEL 6
REMARK VINA RESULT:      -8.2      4.936      6.477
REMARK  Name = 
REMARK  7 active torsions:
REMARK  status: ('A' for Active; 'I' for Inactive)
REMARK    1  A    between atoms: C_1  and  C_2
REMARK    2  A    between atoms: C_5  and  C_6
REMARK    3  A    between atoms: N_8  and  C_9
REMARK    4  A    between atoms: C_9  and  C_10
REMARK    5  A    between atoms: C_10  and  N_11
REMARK    6  A    between atoms: C_17  and  O_18
REMARK    7  A    between atoms: O_18  and  C_19
REMARK                            x       y       z     vdW  Elec       q    Type
REMARK                         _______ _______ _______ _____ _____    ______ ____
ROOT
ATOM      1  N   UNL     1       5.780   5.583  17.339  0.00  0.00    +0.000 N 
ATOM      2  C   UNL     1       6.091   5.201  16.038  0.00  0.00    +0.000 A 
ATOM      3  N   UNL     1       6.644   5.891  15.111  0.00  0.00    +0.000 NA
ATOM      4  S   UNL     1       5.530   3.560  15.649  0.00  0.00    +0.000 S 
ATOM      5  C   UNL     1       4.808   3.424  17.258  0.00  0.00    +0.000 A 
ATOM      6  C   UNL     1       3.853   2.525  17.686  0.00  0.00    +0.000 A 
ATOM      7  C   UNL     1       3.306   2.696  18.962  0.00  0.00    +0.000 A 
ATOM      8  C   UNL     1       3.889   3.604  19.858  0.00  0.00    +0.000 A 
ATOM      9  C   UNL     1       4.824   4.531  19.400  0.00  0.00    +0.000 A 
ATOM     10  C   UNL     1       5.171   4.515  18.056  0.00  0.00    +0.000 A 
ATOM     11  H   UNL     1       6.911   6.805  15.484  0.00  0.00    +0.000 HD
ENDROOT
BRANCH   1  12
ATOM     12  C   UNL     1       5.017   6.857  17.505  0.00  0.00    +0.000 C 
BRANCH  12  13
ATOM     13  C   UNL     1       3.495   6.616  17.611  0.00  0.00    +0.000 C 
BRANCH  13  16
ATOM     14  C   UNL     1       1.476   9.092  19.239  0.00  0.00    +0.000 A 
ATOM     15  C   UNL     1       2.175   7.906  19.340  0.00  0.00    +0.000 A 
ATOM     16  N   UNL     1       2.750   7.752  18.113  0.00  0.00    +0.000 N 
ATOM     17  N   UNL     1       2.445   8.770  17.297  0.00  0.00    +0.000 NA
ATOM     18  N   UNL     1       1.666   9.599  17.973  0.00  0.00    +0.000 NA
BRANCH  14  23
ATOM     19  C   UNL     1      -1.870  11.500  23.311  0.00  0.00    +0.000 C 
ATOM     20  C   UNL     1      -0.977  10.910  22.257  0.00  0.00    +0.000 A 
ATOM     21  C   UNL     1      -0.729  11.579  21.059  0.00  0.00    +0.000 A 
ATOM     22  C   UNL     1       0.085  11.004  20.070  0.00  0.00    +0.000 A 
ATOM     23  C   UNL     1       0.664   9.742  20.261  0.00  0.00    +0.000 A 
ATOM     24  C   UNL     1       0.435   9.089  21.482  0.00  0.00    +0.000 A 
ATOM     25  C   UNL     1      -0.376   9.664  22.469  0.00  0.00    +0.000 A 
ENDBRANCH  14  23
ENDBRANCH  13  16
ENDBRANCH  12  13
ENDBRANCH   1  12
BRANCH   7  26
ATOM     26  O   UNL     1       2.166   1.979  19.185  0.00  0.00    +0.000 OA
BRANCH  26  27
ATOM     27  C   UNL     1       0.933   2.683  19.118  0.00  0.00    +0.000 C 
ATOM     28  F   UNL     1      -0.003   1.906  18.534  0.00  0.00    +0.000 F 
ATOM     29  F   UNL     1       0.494   3.071  20.338  0.00  0.00    +0.000 F 
ATOM     30  F   UNL     1       1.100   3.793  18.370  0.00  0.00    +0.000 F 
ENDBRANCH  26  27
ENDBRANCH   7  26
TORSDOF 6
ENDMDL
MODEL 7
REMARK VINA RESULT:      -8.2      6.179      8.095
REMARK  Name = 
REMARK  7 active torsions:
REMARK  status: ('A' for Active; 'I' for Inactive)
REMARK    1  A    between atoms: C_1  and  C_2
REMARK    2  A    between atoms: C_5  and  C_6
REMARK    3  A    between atoms: N_8  and  C_9
REMARK    4  A    between atoms: C_9  and  C_10
REMARK    5  A    between atoms: C_10  and  N_11
REMARK    6  A    between atoms: C_17  and  O_18
REMARK    7  A    between atoms: O_18  and  C_19
REMARK                            x       y       z     vdW  Elec       q    Type
REMARK                         _______ _______ _______ _____ _____    ______ ____
ROOT
ATOM      1  N   UNL     1       2.687   4.037  18.371  0.00  0.00    +0.000 N 
ATOM      2  C   UNL     1       2.791   3.221  19.493  0.00  0.00    +0.000 A 
ATOM      3  N   UNL     1       1.866   2.834  20.290  0.00  0.00    +0.000 NA
ATOM      4  S   UNL     1       4.470   2.777  19.869  0.00  0.00    +0.000 S 
ATOM      5  C   UNL     1       5.036   3.768  18.518  0.00  0.00    +0.000 A 
ATOM      6  C   UNL     1       6.312   4.243  18.290  0.00  0.00    +0.000 A 
ATOM      7  C   UNL     1       6.506   5.143  17.238  0.00  0.00    +0.000 A 
ATOM      8  C   UNL     1       5.483   5.360  16.303  0.00  0.00    +0.000 A 
ATOM      9  C   UNL     1       4.191   4.906  16.567  0.00  0.00    +0.000 A 
ATOM     10  C   UNL     1       3.956   4.226  17.755  0.00  0.00    +0.000 A 
ATOM     11  H   UNL     1       0.962   3.164  19.944  0.00  0.00    +0.000 HD
ENDROOT
BRANCH   1  12
ATOM     12  C   UNL     1       1.964   5.333  18.541  0.00  0.00    +0.000 C 
BRANCH  12  13
ATOM     13  C   UNL     1       2.737   6.319  19.445  0.00  0.00    +0.000 C 
BRANCH  13  16
ATOM     14  C   UNL     1       0.800   9.196  20.355  0.00  0.00    +0.000 A 
ATOM     15  C   UNL     1       1.336   7.982  20.736  0.00  0.00    +0.000 A 
ATOM     16  N   UNL     1       2.063   7.583  19.654  0.00  0.00    +0.000 N 
ATOM     17  N   UNL     1       2.001   8.483  18.663  0.00  0.00    +0.000 NA
ATOM     18  N   UNL     1       1.231   9.476  19.078  0.00  0.00    +0.000 NA
BRANCH  14  23
ATOM     19  C   UNL     1      -2.549  12.840  23.367  0.00  0.00    +0.000 C 
ATOM     20  C   UNL     1      -1.708  11.863  22.597  0.00  0.00    +0.000 A 
ATOM     21  C   UNL     1      -1.148  10.744  23.212  0.00  0.00    +0.000 A 
ATOM     22  C   UNL     1      -0.340   9.854  22.488  0.00  0.00    +0.000 A 
ATOM     23  C   UNL     1      -0.072  10.072  21.129  0.00  0.00    +0.000 A 
ATOM     24  C   UNL     1      -0.665  11.183  20.509  0.00  0.00    +0.000 A 
ATOM     25  C   UNL     1      -1.472  12.070  21.233  0.00  0.00    +0.000 A 
ENDBRANCH  14  23
ENDBRANCH  13  16
ENDBRANCH  12  13
ENDBRANCH   1  12
BRANCH   7  26
ATOM     26  O   UNL     1       7.702   5.801  17.274  0.00  0.00    +0.000 OA
BRANCH  26  27
ATOM     27  C   UNL     1       7.695   7.132  17.771  0.00  0.00    +0.000 C 
ATOM     28  F   UNL     1       6.428   7.516  18.028  0.00  0.00    +0.000 F 
ATOM     29  F   UNL     1       8.439   7.267  18.894  0.00  0.00    +0.000 F 
ATOM     30  F   UNL     1       8.213   7.955  16.835  0.00  0.00    +0.000 F 
ENDBRANCH  26  27
ENDBRANCH   7  26
TORSDOF 6
ENDMDL
MODEL 8
REMARK VINA RESULT:      -8.1      5.923      7.907
REMARK  Name = 
REMARK  7 active torsions:
REMARK  status: ('A' for Active; 'I' for Inactive)
REMARK    1  A    between atoms: C_1  and  C_2
REMARK    2  A    between atoms: C_5  and  C_6
REMARK    3  A    between atoms: N_8  and  C_9
REMARK    4  A    between atoms: C_9  and  C_10
REMARK    5  A    between atoms: C_10  and  N_11
REMARK    6  A    between atoms: C_17  and  O_18
REMARK    7  A    between atoms: O_18  and  C_19
REMARK                            x       y       z     vdW  Elec       q    Type
REMARK                         _______ _______ _______ _____ _____    ______ ____
ROOT
ATOM      1  N   UNL     1       2.862   3.752  17.961  0.00  0.00    +0.000 N 
ATOM      2  C   UNL     1       2.919   3.208  19.239  0.00  0.00    +0.000 A 
ATOM      3  N   UNL     1       1.952   2.880  20.014  0.00  0.00    +0.000 NA
ATOM      4  S   UNL     1       4.579   3.071  19.858  0.00  0.00    +0.000 S 
ATOM      5  C   UNL     1       5.193   3.824  18.379  0.00  0.00    +0.000 A 
ATOM      6  C   UNL     1       6.428   4.401  18.171  0.00  0.00    +0.000 A 
ATOM      7  C   UNL     1       6.649   5.080  16.968  0.00  0.00    +0.000 A 
ATOM      8  C   UNL     1       5.726   4.964  15.919  0.00  0.00    +0.000 A 
ATOM      9  C   UNL     1       4.468   4.412  16.156  0.00  0.00    +0.000 A 
ATOM     10  C   UNL     1       4.167   3.971  17.438  0.00  0.00    +0.000 A 
ATOM     11  H   UNL     1       1.066   3.012  19.522  0.00  0.00    +0.000 HD
ENDROOT
BRANCH   1  12
ATOM     12  C   UNL     1       1.991   4.952  17.773  0.00  0.00    +0.000 C 
BRANCH  12  13
ATOM     13  C   UNL     1       2.665   6.247  18.277  0.00  0.00    +0.000 C 
BRANCH  13  16
ATOM     14  C   UNL     1       1.050   8.341  20.698  0.00  0.00    +0.000 A 
ATOM     15  C   UNL     1       1.539   8.204  19.415  0.00  0.00    +0.000 A 
ATOM     16  N   UNL     1       1.951   6.906  19.350  0.00  0.00    +0.000 N 
ATOM     17  N   UNL     1       1.731   6.264  20.505  0.00  0.00    +0.000 NA
ATOM     18  N   UNL     1       1.179   7.130  21.340  0.00  0.00    +0.000 NA
BRANCH  14  23
ATOM     19  C   UNL     1      -1.395  12.984  23.154  0.00  0.00    +0.000 C 
ATOM     20  C   UNL     1      -0.723  11.798  22.523  0.00  0.00    +0.000 A 
ATOM     21  C   UNL     1       0.079  11.937  21.390  0.00  0.00    +0.000 A 
ATOM     22  C   UNL     1       0.678  10.817  20.793  0.00  0.00    +0.000 A 
ATOM     23  C   UNL     1       0.482   9.532  21.318  0.00  0.00    +0.000 A 
ATOM     24  C   UNL     1      -0.300   9.406  22.476  0.00  0.00    +0.000 A 
ATOM     25  C   UNL     1      -0.897  10.523  23.073  0.00  0.00    +0.000 A 
ENDBRANCH  14  23
ENDBRANCH  13  16
ENDBRANCH  12  13
ENDBRANCH   1  12
BRANCH   7  26
ATOM     26  O   UNL     1       7.757   5.879  16.969  0.00  0.00    +0.000 OA
BRANCH  26  27
ATOM     27  C   UNL     1       7.666   7.112  17.669  0.00  0.00    +0.000 C 
ATOM     28  F   UNL     1       8.223   6.983  18.891  0.00  0.00    +0.000 F 
ATOM     29  F   UNL     1       8.271   8.126  17.007  0.00  0.00    +0.000 F 
ATOM     30  F   UNL     1       6.366   7.439  17.820  0.00  0.00    +0.000 F 
ENDBRANCH  26  27
ENDBRANCH   7  26
TORSDOF 6
ENDMDL
MODEL 9
REMARK VINA RESULT:      -8.0      4.787      6.373
REMARK  Name = 
REMARK  7 active torsions:
REMARK  status: ('A' for Active; 'I' for Inactive)
REMARK    1  A    between atoms: C_1  and  C_2
REMARK    2  A    between atoms: C_5  and  C_6
REMARK    3  A    between atoms: N_8  and  C_9
REMARK    4  A    between atoms: C_9  and  C_10
REMARK    5  A    between atoms: C_10  and  N_11
REMARK    6  A    between atoms: C_17  and  O_18
REMARK    7  A    between atoms: O_18  and  C_19
REMARK                            x       y       z     vdW  Elec       q    Type
REMARK                         _______ _______ _______ _____ _____    ______ ____
ROOT
ATOM      1  N   UNL     1       5.951   5.644  17.276  0.00  0.00    +0.000 N 
ATOM      2  C   UNL     1       6.172   5.242  15.964  0.00  0.00    +0.000 A 
ATOM      3  N   UNL     1       6.722   5.895  15.008  0.00  0.00    +0.000 NA
ATOM      4  S   UNL     1       5.487   3.642  15.608  0.00  0.00    +0.000 S 
ATOM      5  C   UNL     1       4.838   3.553  17.251  0.00  0.00    +0.000 A 
ATOM      6  C   UNL     1       3.848   2.718  17.728  0.00  0.00    +0.000 A 
ATOM      7  C   UNL     1       3.377   2.924  19.028  0.00  0.00    +0.000 A 
ATOM      8  C   UNL     1       4.061   3.793  19.892  0.00  0.00    +0.000 A 
ATOM      9  C   UNL     1       5.031   4.657  19.386  0.00  0.00    +0.000 A 
ATOM     10  C   UNL     1       5.310   4.618  18.026  0.00  0.00    +0.000 A 
ATOM     11  H   UNL     1       7.066   6.790  15.364  0.00  0.00    +0.000 HD
ENDROOT
BRANCH   1  12
ATOM     12  C   UNL     1       5.281   6.966  17.476  0.00  0.00    +0.000 C 
BRANCH  12  13
ATOM     13  C   UNL     1       3.817   6.958  16.984  0.00  0.00    +0.000 C 
BRANCH  13  16
ATOM     14  C   UNL     1       1.540   8.810  19.045  0.00  0.00    +0.000 A 
ATOM     15  C   UNL     1       2.161   8.678  17.819  0.00  0.00    +0.000 A 
ATOM     16  N   UNL     1       2.874   7.520  17.928  0.00  0.00    +0.000 N 
ATOM     17  N   UNL     1       2.709   6.955  19.132  0.00  0.00    +0.000 NA
ATOM     18  N   UNL     1       1.894   7.733  19.826  0.00  0.00    +0.000 NA
BRANCH  14  23
ATOM     19  C   UNL     1      -2.013  12.953  20.988  0.00  0.00    +0.000 C 
ATOM     20  C   UNL     1      -1.084  11.903  20.450  0.00  0.00    +0.000 A 
ATOM     21  C   UNL     1      -1.295  11.318  19.202  0.00  0.00    +0.000 A 
ATOM     22  C   UNL     1      -0.435  10.317  18.723  0.00  0.00    +0.000 A 
ATOM     23  C   UNL     1       0.654   9.879  19.489  0.00  0.00    +0.000 A 
ATOM     24  C   UNL     1       0.877  10.495  20.730  0.00  0.00    +0.000 A 
ATOM     25  C   UNL     1       0.020  11.494  21.207  0.00  0.00    +0.000 A 
ENDBRANCH  14  23
ENDBRANCH  13  16
ENDBRANCH  12  13
ENDBRANCH   1  12
BRANCH   7  26
ATOM     26  O   UNL     1       2.205   2.283  19.310  0.00  0.00    +0.000 OA
BRANCH  26  27
ATOM     27  C   UNL     1       1.003   3.021  19.133  0.00  0.00    +0.000 C 
ATOM     28  F   UNL     1       0.550   3.444  20.331  0.00  0.00    +0.000 F 
ATOM     29  F   UNL     1       1.168   4.087  18.316  0.00  0.00    +0.000 F 
ATOM     30  F   UNL     1       0.071   2.219  18.578  0.00  0.00    +0.000 F 
ENDBRANCH  26  27
ENDBRANCH   7  26
TORSDOF 6
ENDMDL
