MODEL 1
REMARK VINA RESULT:      -8.6      0.000      0.000
REMARK  Name = 
REMARK  12 active torsions:
REMARK  status: ('A' for Active; 'I' for Inactive)
REMARK    1  A    between atoms: C_1  and  C_2
REMARK    2  A    between atoms: C_2  and  C_3
REMARK    3  A    between atoms: C_2  and  C_4
REMARK    4  A    between atoms: C_2  and  C_5
REMARK    5  A    between atoms: C_7  and  C_8
REMARK    6  A    between atoms: C_8  and  O_10
REMARK    7  A    between atoms: C_11  and  O_12
REMARK    8  A    between atoms: C_13  and  C_14
REMARK    9  A    between atoms: C_14  and  C_16
REMARK   10  A    between atoms: C_17  and  C_18
REMARK   11  A    between atoms: C_22  and  C_23
REMARK   12  A    between atoms: C_24  and  C_25
REMARK                            x       y       z     vdW  Elec       q    Type
REMARK                         _______ _______ _______ _____ _____    ______ ____
ROOT
ATOM      1  C   UNL     1       1.854   8.174  19.323  0.00  0.00    +0.000 C 
ATOM      2  C   UNL     1       1.177   9.325  19.449  0.00  0.00    +0.000 C 
ENDROOT
BRANCH   2   3
ATOM      3  C   UNL     1       0.508   9.678  20.705  0.00  0.00    +0.000 A 
ATOM      4  C   UNL     1       0.645   8.870  21.836  0.00  0.00    +0.000 A 
ATOM      5  C   UNL     1       0.045   9.246  23.037  0.00  0.00    +0.000 A 
ATOM      6  C   UNL     1      -0.705  10.426  23.117  0.00  0.00    +0.000 A 
ATOM      7  C   UNL     1      -0.877  11.245  21.998  0.00  0.00    +0.000 A 
ATOM      8  C   UNL     1      -0.259  10.854  20.792  0.00  0.00    +0.000 A 
BRANCH   7   9
ATOM      9  C   UNL     1      -1.740  12.450  22.005  0.00  0.00    +0.000 C 
ATOM     10  C   UNL     1      -3.069  12.513  22.232  0.00  0.00    +0.000 C 
BRANCH  10  11
ATOM     11  C   UNL     1      -3.913  13.718  22.060  0.00  0.00    +0.000 A 
ATOM     12  C   UNL     1      -3.770  14.559  20.965  0.00  0.00    +0.000 A 
ATOM     13  C   UNL     1      -4.620  15.647  20.826  0.00  0.00    +0.000 A 
ATOM     14  C   UNL     1      -5.673  15.816  21.719  0.00  0.00    +0.000 A 
ATOM     15  C   UNL     1      -6.621  16.831  21.508  0.00  0.00    +0.000 A 
ATOM     16  C   UNL     1      -7.756  16.904  22.304  0.00  0.00    +0.000 A 
ATOM     17  C   UNL     1      -7.916  15.996  23.343  0.00  0.00    +0.000 A 
ATOM     18  C   UNL     1      -6.929  15.029  23.591  0.00  0.00    +0.000 A 
ATOM     19  C   UNL     1      -5.800  14.896  22.779  0.00  0.00    +0.000 A 
ATOM     20  N   UNL     1      -4.908  13.890  22.971  0.00  0.00    +0.000 NA
ENDBRANCH  10  11
ENDBRANCH   7   9
ENDBRANCH   2   3
BRANCH   1  21
ATOM     21  C   UNL     1       2.567   7.838  18.062  0.00  0.00    +0.000 C 
ATOM     22  O   UNL     1       2.711   8.663  17.159  0.00  0.00    +0.000 OA
BRANCH  21  27
ATOM     23  C   UNL     1       3.011   4.090  18.520  0.00  0.00    +0.000 A 
ATOM     24  C   UNL     1       4.229   3.885  17.841  0.00  0.00    +0.000 A 
ATOM     25  C   UNL     1       4.912   4.938  17.224  0.00  0.00    +0.000 A 
ATOM     26  C   UNL     1       4.383   6.231  17.269  0.00  0.00    +0.000 A 
ATOM     27  C   UNL     1       3.162   6.475  17.913  0.00  0.00    +0.000 A 
ATOM     28  C   UNL     1       2.495   5.400  18.538  0.00  0.00    +0.000 A 
BRANCH  23  30
ATOM     29  C   UNL     1       0.877   2.787  18.751  0.00  0.00    +0.000 C 
ATOM     30  C   UNL     1       2.340   2.901  19.236  0.00  0.00    +0.000 C 
ATOM     31  C   UNL     1       2.347   3.119  20.767  0.00  0.00    +0.000 C 
ATOM     32  C   UNL     1       3.023   1.544  18.969  0.00  0.00    +0.000 C 
ENDBRANCH  23  30
BRANCH  25  33
ATOM     33  C   UNL     1       6.219   4.611  16.590  0.00  0.00    +0.000 C 
ATOM     34  O   UNL     1       7.206   5.319  16.713  0.00  0.00    +0.000 OA
BRANCH  33  35
ATOM     35  O   UNL     1       6.231   3.449  15.906  0.00  0.00    +0.000 OA
ATOM     36  H   UNL     1       7.129   3.098  15.751  0.00  0.00    +0.000 HD
ENDBRANCH  33  35
ENDBRANCH  25  33
BRANCH  26  37
ATOM     37  O   UNL     1       5.101   7.253  16.706  0.00  0.00    +0.000 OA
ATOM     38  H   UNL     1       5.802   6.836  16.160  0.00  0.00    +0.000 HD
ENDBRANCH  26  37
ENDBRANCH  21  27
ENDBRANCH   1  21
TORSDOF 9
ENDMDL
MODEL 2
REMARK VINA RESULT:      -8.6      0.682      1.146
REMARK  Name = 
REMARK  12 active torsions:
REMARK  status: ('A' for Active; 'I' for Inactive)
REMARK    1  A    between atoms: C_1  and  C_2
REMARK    2  A    between atoms: C_2  and  C_3
REMARK    3  A    between atoms: C_2  and  C_4
REMARK    4  A    between atoms: C_2  and  C_5
REMARK    5  A    between atoms: C_7  and  C_8
REMARK    6  A    between atoms: C_8  and  O_10
REMARK    7  A    between atoms: C_11  and  O_12
REMARK    8  A    between atoms: C_13  and  C_14
REMARK    9  A    between atoms: C_14  and  C_16
REMARK   10  A    between atoms: C_17  and  C_18
REMARK   11  A    between atoms: C_22  and  C_23
REMARK   12  A    between atoms: C_24  and  C_25
REMARK                            x       y       z     vdW  Elec       q    Type
REMARK                         _______ _______ _______ _____ _____    ______ ____
ROOT
ATOM      1  C   UNL     1       1.771   8.164  19.334  0.00  0.00    +0.000 C 
ATOM      2  C   UNL     1       1.287   9.400  19.524  0.00  0.00    +0.000 C 
ENDROOT
BRANCH   2   3
ATOM      3  C   UNL     1       0.569   9.752  20.752  0.00  0.00    +0.000 A 
ATOM      4  C   UNL     1       0.762   9.020  21.925  0.00  0.00    +0.000 A 
ATOM      5  C   UNL     1       0.111   9.400  23.099  0.00  0.00    +0.000 A 
ATOM      6  C   UNL     1      -0.747  10.507  23.109  0.00  0.00    +0.000 A 
ATOM      7  C   UNL     1      -0.976  11.248  21.945  0.00  0.00    +0.000 A 
ATOM      8  C   UNL     1      -0.305  10.854  20.769  0.00  0.00    +0.000 A 
BRANCH   7   9
ATOM      9  C   UNL     1      -1.947  12.365  21.880  0.00  0.00    +0.000 C 
ATOM     10  C   UNL     1      -2.175  13.318  22.809  0.00  0.00    +0.000 C 
BRANCH  10  11
ATOM     11  C   UNL     1      -3.273  14.311  22.769  0.00  0.00    +0.000 A 
ATOM     12  C   UNL     1      -3.183  15.468  22.008  0.00  0.00    +0.000 A 
ATOM     13  C   UNL     1      -4.261  16.342  21.966  0.00  0.00    +0.000 A 
ATOM     14  C   UNL     1      -5.453  15.993  22.591  0.00  0.00    +0.000 A 
ATOM     15  C   UNL     1      -6.592  16.802  22.439  0.00  0.00    +0.000 A 
ATOM     16  C   UNL     1      -7.820  16.378  22.928  0.00  0.00    +0.000 A 
ATOM     17  C   UNL     1      -7.899  15.173  23.615  0.00  0.00    +0.000 A 
ATOM     18  C   UNL     1      -6.742  14.406  23.824  0.00  0.00    +0.000 A 
ATOM     19  C   UNL     1      -5.501  14.778  23.303  0.00  0.00    +0.000 A 
ATOM     20  N   UNL     1      -4.415  13.972  23.426  0.00  0.00    +0.000 NA
ENDBRANCH  10  11
ENDBRANCH   7   9
ENDBRANCH   2   3
BRANCH   1  21
ATOM     21  C   UNL     1       2.536   7.820  18.106  0.00  0.00    +0.000 C 
ATOM     22  O   UNL     1       2.744   8.648  17.218  0.00  0.00    +0.000 OA
BRANCH  21  27
ATOM     23  C   UNL     1       2.969   4.088  18.689  0.00  0.00    +0.000 A 
ATOM     24  C   UNL     1       4.134   3.838  17.936  0.00  0.00    +0.000 A 
ATOM     25  C   UNL     1       4.785   4.856  17.229  0.00  0.00    +0.000 A 
ATOM     26  C   UNL     1       4.275   6.157  17.257  0.00  0.00    +0.000 A 
ATOM     27  C   UNL     1       3.105   6.444  17.974  0.00  0.00    +0.000 A 
ATOM     28  C   UNL     1       2.471   5.405  18.688  0.00  0.00    +0.000 A 
BRANCH  23  30
ATOM     29  C   UNL     1       3.355   2.452  20.554  0.00  0.00    +0.000 C 
ATOM     30  C   UNL     1       2.336   2.939  19.499  0.00  0.00    +0.000 C 
ATOM     31  C   UNL     1       1.971   1.760  18.569  0.00  0.00    +0.000 C 
ATOM     32  C   UNL     1       1.049   3.340  20.250  0.00  0.00    +0.000 C 
ENDBRANCH  23  30
BRANCH  25  33
ATOM     33  C   UNL     1       6.041   4.485  16.521  0.00  0.00    +0.000 C 
ATOM     34  O   UNL     1       6.066   3.680  15.604  0.00  0.00    +0.000 OA
BRANCH  33  35
ATOM     35  O   UNL     1       7.137   5.143  16.950  0.00  0.00    +0.000 OA
ATOM     36  H   UNL     1       7.335   4.995  17.894  0.00  0.00    +0.000 HD
ENDBRANCH  33  35
ENDBRANCH  25  33
BRANCH  26  37
ATOM     37  O   UNL     1       4.963   7.144  16.603  0.00  0.00    +0.000 OA
ATOM     38  H   UNL     1       4.316   7.600  16.023  0.00  0.00    +0.000 HD
ENDBRANCH  26  37
ENDBRANCH  21  27
ENDBRANCH   1  21
TORSDOF 9
ENDMDL
MODEL 3
REMARK VINA RESULT:      -8.4      5.041     12.031
REMARK  Name = 
REMARK  12 active torsions:
REMARK  status: ('A' for Active; 'I' for Inactive)
REMARK    1  A    between atoms: C_1  and  C_2
REMARK    2  A    between atoms: C_2  and  C_3
REMARK    3  A    between atoms: C_2  and  C_4
REMARK    4  A    between atoms: C_2  and  C_5
REMARK    5  A    between atoms: C_7  and  C_8
REMARK    6  A    between atoms: C_8  and  O_10
REMARK    7  A    between atoms: C_11  and  O_12
REMARK    8  A    between atoms: C_13  and  C_14
REMARK    9  A    between atoms: C_14  and  C_16
REMARK   10  A    between atoms: C_17  and  C_18
REMARK   11  A    between atoms: C_22  and  C_23
REMARK   12  A    between atoms: C_24  and  C_25
REMARK                            x       y       z     vdW  Elec       q    Type
REMARK                         _______ _______ _______ _____ _____    ______ ____
ROOT
ATOM      1  C   UNL     1       0.735   8.726  21.656  0.00  0.00    +0.000 C 
ATOM      2  C   UNL     1       1.315   8.379  20.498  0.00  0.00    +0.000 C 
ENDROOT
BRANCH   2   3
ATOM      3  C   UNL     1       1.767   7.005  20.257  0.00  0.00    +0.000 A 
ATOM      4  C   UNL     1       1.533   6.004  21.201  0.00  0.00    +0.000 A 
ATOM      5  C   UNL     1       1.923   4.691  20.934  0.00  0.00    +0.000 A 
ATOM      6  C   UNL     1       2.557   4.370  19.729  0.00  0.00    +0.000 A 
ATOM      7  C   UNL     1       2.823   5.354  18.772  0.00  0.00    +0.000 A 
ATOM      8  C   UNL     1       2.417   6.675  19.054  0.00  0.00    +0.000 A 
BRANCH   7   9
ATOM      9  C   UNL     1       3.578   5.085  17.526  0.00  0.00    +0.000 C 
ATOM     10  C   UNL     1       4.916   5.101  17.350  0.00  0.00    +0.000 C 
BRANCH  10  11
ATOM     11  C   UNL     1       5.612   4.992  16.047  0.00  0.00    +0.000 A 
ATOM     12  C   UNL     1       6.939   5.369  15.896  0.00  0.00    +0.000 A 
ATOM     13  C   UNL     1       7.560   5.200  14.666  0.00  0.00    +0.000 A 
ATOM     14  C   UNL     1       6.884   4.551  13.638  0.00  0.00    +0.000 A 
ATOM     15  C   UNL     1       7.547   4.250  12.436  0.00  0.00    +0.000 A 
ATOM     16  C   UNL     1       6.927   3.467  11.473  0.00  0.00    +0.000 A 
ATOM     17  C   UNL     1       5.625   3.032  11.686  0.00  0.00    +0.000 A 
ATOM     18  C   UNL     1       4.944   3.398  12.858  0.00  0.00    +0.000 A 
ATOM     19  C   UNL     1       5.555   4.142  13.870  0.00  0.00    +0.000 A 
ATOM     20  N   UNL     1       4.916   4.397  15.041  0.00  0.00    +0.000 NA
ENDBRANCH  10  11
ENDBRANCH   7   9
ENDBRANCH   2   3
BRANCH   1  21
ATOM     21  C   UNL     1       0.239  10.110  21.881  0.00  0.00    +0.000 C 
ATOM     22  O   UNL     1       0.101  10.573  23.014  0.00  0.00    +0.000 OA
BRANCH  21  27
ATOM     23  C   UNL     1      -1.518  11.366  18.753  0.00  0.00    +0.000 A 
ATOM     24  C   UNL     1      -0.653  12.409  18.366  0.00  0.00    +0.000 A 
ATOM     25  C   UNL     1       0.492  12.726  19.105  0.00  0.00    +0.000 A 
ATOM     26  C   UNL     1       0.795  12.002  20.262  0.00  0.00    +0.000 A 
ATOM     27  C   UNL     1      -0.052  10.972  20.695  0.00  0.00    +0.000 A 
ATOM     28  C   UNL     1      -1.196  10.662  19.928  0.00  0.00    +0.000 A 
BRANCH  23  30
ATOM     29  C   UNL     1      -2.393  11.398  16.399  0.00  0.00    +0.000 C 
ATOM     30  C   UNL     1      -2.727  11.022  17.860  0.00  0.00    +0.000 C 
ATOM     31  C   UNL     1      -3.975  11.816  18.312  0.00  0.00    +0.000 C 
ATOM     32  C   UNL     1      -3.112   9.527  17.876  0.00  0.00    +0.000 C 
ENDBRANCH  23  30
BRANCH  25  33
ATOM     33  C   UNL     1       1.363  13.806  18.566  0.00  0.00    +0.000 C 
ATOM     34  O   UNL     1       1.404  14.924  19.054  0.00  0.00    +0.000 OA
BRANCH  33  35
ATOM     35  O   UNL     1       2.131  13.433  17.522  0.00  0.00    +0.000 OA
ATOM     36  H   UNL     1       3.088  13.455  17.714  0.00  0.00    +0.000 HD
ENDBRANCH  33  35
ENDBRANCH  25  33
BRANCH  26  37
ATOM     37  O   UNL     1       1.952  12.295  20.934  0.00  0.00    +0.000 OA
ATOM     38  H   UNL     1       2.118  11.546  21.546  0.00  0.00    +0.000 HD
ENDBRANCH  26  37
ENDBRANCH  21  27
ENDBRANCH   1  21
TORSDOF 9
ENDMDL
MODEL 4
REMARK VINA RESULT:      -8.4      1.305      1.651
REMARK  Name = 
REMARK  12 active torsions:
REMARK  status: ('A' for Active; 'I' for Inactive)
REMARK    1  A    between atoms: C_1  and  C_2
REMARK    2  A    between atoms: C_2  and  C_3
REMARK    3  A    between atoms: C_2  and  C_4
REMARK    4  A    between atoms: C_2  and  C_5
REMARK    5  A    between atoms: C_7  and  C_8
REMARK    6  A    between atoms: C_8  and  O_10
REMARK    7  A    between atoms: C_11  and  O_12
REMARK    8  A    between atoms: C_13  and  C_14
REMARK    9  A    between atoms: C_14  and  C_16
REMARK   10  A    between atoms: C_17  and  C_18
REMARK   11  A    between atoms: C_22  and  C_23
REMARK   12  A    between atoms: C_24  and  C_25
REMARK                            x       y       z     vdW  Elec       q    Type
REMARK                         _______ _______ _______ _____ _____    ______ ____
ROOT
ATOM      1  C   UNL     1       1.868   8.132  19.193  0.00  0.00    +0.000 C 
ATOM      2  C   UNL     1       1.337   9.349  19.381  0.00  0.00    +0.000 C 
ENDROOT
BRANCH   2   3
ATOM      3  C   UNL     1       0.624   9.683  20.618  0.00  0.00    +0.000 A 
ATOM      4  C   UNL     1       0.823   8.934  21.779  0.00  0.00    +0.000 A 
ATOM      5  C   UNL     1       0.176   9.295  22.961  0.00  0.00    +0.000 A 
ATOM      6  C   UNL     1      -0.681  10.401  22.991  0.00  0.00    +0.000 A 
ATOM      7  C   UNL     1      -0.917  11.160  21.840  0.00  0.00    +0.000 A 
ATOM      8  C   UNL     1      -0.250  10.784  20.655  0.00  0.00    +0.000 A 
BRANCH   7   9
ATOM      9  C   UNL     1      -1.889  12.277  21.796  0.00  0.00    +0.000 C 
ATOM     10  C   UNL     1      -2.858  12.493  20.882  0.00  0.00    +0.000 C 
BRANCH  10  11
ATOM     11  C   UNL     1      -3.692  13.714  20.787  0.00  0.00    +0.000 A 
ATOM     12  C   UNL     1      -3.174  14.974  21.055  0.00  0.00    +0.000 A 
ATOM     13  C   UNL     1      -3.984  16.090  20.903  0.00  0.00    +0.000 A 
ATOM     14  C   UNL     1      -5.263  15.945  20.376  0.00  0.00    +0.000 A 
ATOM     15  C   UNL     1      -6.040  17.080  20.087  0.00  0.00    +0.000 A 
ATOM     16  C   UNL     1      -7.248  16.947  19.417  0.00  0.00    +0.000 A 
ATOM     17  C   UNL     1      -7.704  15.678  19.085  0.00  0.00    +0.000 A 
ATOM     18  C   UNL     1      -6.956  14.545  19.441  0.00  0.00    +0.000 A 
ATOM     19  C   UNL     1      -5.713  14.645  20.070  0.00  0.00    +0.000 A 
ATOM     20  N   UNL     1      -4.956  13.544  20.313  0.00  0.00    +0.000 NA
ENDBRANCH  10  11
ENDBRANCH   7   9
ENDBRANCH   2   3
BRANCH   1  21
ATOM     21  C   UNL     1       2.628   7.810  17.956  0.00  0.00    +0.000 C 
ATOM     22  O   UNL     1       2.803   8.643  17.067  0.00  0.00    +0.000 OA
BRANCH  21  27
ATOM     23  C   UNL     1       3.087   4.066  18.431  0.00  0.00    +0.000 A 
ATOM     24  C   UNL     1       4.309   3.864  17.760  0.00  0.00    +0.000 A 
ATOM     25  C   UNL     1       4.992   4.918  17.143  0.00  0.00    +0.000 A 
ATOM     26  C   UNL     1       4.457   6.209  17.180  0.00  0.00    +0.000 A 
ATOM     27  C   UNL     1       3.231   6.449  17.817  0.00  0.00    +0.000 A 
ATOM     28  C   UNL     1       2.564   5.373  18.441  0.00  0.00    +0.000 A 
BRANCH  23  30
ATOM     29  C   UNL     1       2.555   3.070  20.674  0.00  0.00    +0.000 C 
ATOM     30  C   UNL     1       2.417   2.876  19.148  0.00  0.00    +0.000 C 
ATOM     31  C   UNL     1       3.100   1.549  18.745  0.00  0.00    +0.000 C 
ATOM     32  C   UNL     1       0.913   2.724  18.835  0.00  0.00    +0.000 C 
ENDBRANCH  23  30
BRANCH  25  33
ATOM     33  C   UNL     1       6.304   4.595  16.519  0.00  0.00    +0.000 C 
ATOM     34  O   UNL     1       6.420   3.790  15.609  0.00  0.00    +0.000 OA
BRANCH  33  35
ATOM     35  O   UNL     1       7.344   5.296  17.014  0.00  0.00    +0.000 OA
ATOM     36  H   UNL     1       7.265   6.260  16.877  0.00  0.00    +0.000 HD
ENDBRANCH  33  35
ENDBRANCH  25  33
BRANCH  26  37
ATOM     37  O   UNL     1       5.173   7.232  16.618  0.00  0.00    +0.000 OA
ATOM     38  H   UNL     1       4.713   8.063  16.863  0.00  0.00    +0.000 HD
ENDBRANCH  26  37
ENDBRANCH  21  27
ENDBRANCH   1  21
TORSDOF 9
ENDMDL
MODEL 5
REMARK VINA RESULT:      -8.3      5.826      7.757
REMARK  Name = 
REMARK  12 active torsions:
REMARK  status: ('A' for Active; 'I' for Inactive)
REMARK    1  A    between atoms: C_1  and  C_2
REMARK    2  A    between atoms: C_2  and  C_3
REMARK    3  A    between atoms: C_2  and  C_4
REMARK    4  A    between atoms: C_2  and  C_5
REMARK    5  A    between atoms: C_7  and  C_8
REMARK    6  A    between atoms: C_8  and  O_10
REMARK    7  A    between atoms: C_11  and  O_12
REMARK    8  A    between atoms: C_13  and  C_14
REMARK    9  A    between atoms: C_14  and  C_16
REMARK   10  A    between atoms: C_17  and  C_18
REMARK   11  A    between atoms: C_22  and  C_23
REMARK   12  A    between atoms: C_24  and  C_25
REMARK                            x       y       z     vdW  Elec       q    Type
REMARK                         _______ _______ _______ _____ _____    ______ ____
ROOT
ATOM      1  C   UNL     1       7.924   8.323  17.777  0.00  0.00    +0.000 C 
ATOM      2  C   UNL     1       8.794   9.059  18.484  0.00  0.00    +0.000 C 
ENDROOT
BRANCH   2   3
ATOM      3  C   UNL     1       9.036  10.469  18.159  0.00  0.00    +0.000 A 
ATOM      4  C   UNL     1      10.334  10.941  17.960  0.00  0.00    +0.000 A 
ATOM      5  C   UNL     1      10.543  12.272  17.601  0.00  0.00    +0.000 A 
ATOM      6  C   UNL     1       9.460  13.145  17.448  0.00  0.00    +0.000 A 
ATOM      7  C   UNL     1       8.149  12.707  17.659  0.00  0.00    +0.000 A 
ATOM      8  C   UNL     1       7.954  11.356  18.016  0.00  0.00    +0.000 A 
BRANCH   7   9
ATOM      9  C   UNL     1       6.977  13.613  17.605  0.00  0.00    +0.000 C 
ATOM     10  C   UNL     1       6.745  14.708  18.357  0.00  0.00    +0.000 C 
BRANCH  10  11
ATOM     11  C   UNL     1       5.481  15.481  18.382  0.00  0.00    +0.000 A 
ATOM     12  C   UNL     1       4.462  15.242  17.469  0.00  0.00    +0.000 A 
ATOM     13  C   UNL     1       3.278  15.960  17.566  0.00  0.00    +0.000 A 
ATOM     14  C   UNL     1       3.083  16.822  18.640  0.00  0.00    +0.000 A 
ATOM     15  C   UNL     1       1.838  17.447  18.825  0.00  0.00    +0.000 A 
ATOM     16  C   UNL     1       1.590  18.181  19.977  0.00  0.00    +0.000 A 
ATOM     17  C   UNL     1       2.602  18.335  20.916  0.00  0.00    +0.000 A 
ATOM     18  C   UNL     1       3.865  17.767  20.688  0.00  0.00    +0.000 A 
ATOM     19  C   UNL     1       4.134  16.981  19.565  0.00  0.00    +0.000 A 
ATOM     20  N   UNL     1       5.329  16.354  19.414  0.00  0.00    +0.000 NA
ENDBRANCH  10  11
ENDBRANCH   7   9
ENDBRANCH   2   3
BRANCH   1  21
ATOM     21  C   UNL     1       7.650   6.906  18.135  0.00  0.00    +0.000 C 
ATOM     22  O   UNL     1       8.228   6.349  19.069  0.00  0.00    +0.000 OA
BRANCH  21  27
ATOM     23  C   UNL     1       4.403   5.061  17.425  0.00  0.00    +0.000 A 
ATOM     24  C   UNL     1       4.624   4.640  16.099  0.00  0.00    +0.000 A 
ATOM     25  C   UNL     1       5.806   4.950  15.418  0.00  0.00    +0.000 A 
ATOM     26  C   UNL     1       6.800   5.700  16.054  0.00  0.00    +0.000 A 
ATOM     27  C   UNL     1       6.610   6.158  17.365  0.00  0.00    +0.000 A 
ATOM     28  C   UNL     1       5.414   5.826  18.037  0.00  0.00    +0.000 A 
BRANCH  23  30
ATOM     29  C   UNL     1       2.493   3.431  17.392  0.00  0.00    +0.000 C 
ATOM     30  C   UNL     1       3.108   4.632  18.145  0.00  0.00    +0.000 C 
ATOM     31  C   UNL     1       2.088   5.793  18.158  0.00  0.00    +0.000 C 
ATOM     32  C   UNL     1       3.321   4.199  19.611  0.00  0.00    +0.000 C 
ENDBRANCH  23  30
BRANCH  25  33
ATOM     33  C   UNL     1       5.953   4.399  14.042  0.00  0.00    +0.000 C 
ATOM     34  O   UNL     1       5.058   3.792  13.477  0.00  0.00    +0.000 OA
BRANCH  33  35
ATOM     35  O   UNL     1       7.141   4.664  13.461  0.00  0.00    +0.000 OA
ATOM     36  H   UNL     1       7.133   4.553  12.491  0.00  0.00    +0.000 HD
ENDBRANCH  33  35
ENDBRANCH  25  33
BRANCH  26  37
ATOM     37  O   UNL     1       7.970   5.939  15.385  0.00  0.00    +0.000 OA
ATOM     38  H   UNL     1       7.773   6.626  14.713  0.00  0.00    +0.000 HD
ENDBRANCH  26  37
ENDBRANCH  21  27
ENDBRANCH   1  21
TORSDOF 9
ENDMDL
MODEL 6
REMARK VINA RESULT:      -8.2      5.074     12.417
REMARK  Name = 
REMARK  12 active torsions:
REMARK  status: ('A' for Active; 'I' for Inactive)
REMARK    1  A    between atoms: C_1  and  C_2
REMARK    2  A    between atoms: C_2  and  C_3
REMARK    3  A    between atoms: C_2  and  C_4
REMARK    4  A    between atoms: C_2  and  C_5
REMARK    5  A    between atoms: C_7  and  C_8
REMARK    6  A    between atoms: C_8  and  O_10
REMARK    7  A    between atoms: C_11  and  O_12
REMARK    8  A    between atoms: C_13  and  C_14
REMARK    9  A    between atoms: C_14  and  C_16
REMARK   10  A    between atoms: C_17  and  C_18
REMARK   11  A    between atoms: C_22  and  C_23
REMARK   12  A    between atoms: C_24  and  C_25
REMARK                            x       y       z     vdW  Elec       q    Type
REMARK                         _______ _______ _______ _____ _____    ______ ____
ROOT
ATOM      1  C   UNL     1      -1.208  13.214  21.471  0.00  0.00    +0.000 C 
ATOM      2  C   UNL     1      -0.989  11.955  21.066  0.00  0.00    +0.000 C 
ENDROOT
BRANCH   2   3
ATOM      3  C   UNL     1       0.007  11.653  20.033  0.00  0.00    +0.000 A 
ATOM      4  C   UNL     1       0.558  12.673  19.256  0.00  0.00    +0.000 A 
ATOM      5  C   UNL     1       1.542  12.376  18.313  0.00  0.00    +0.000 A 
ATOM      6  C   UNL     1       1.975  11.057  18.130  0.00  0.00    +0.000 A 
ATOM      7  C   UNL     1       1.428  10.011  18.879  0.00  0.00    +0.000 A 
ATOM      8  C   UNL     1       0.439  10.329  19.833  0.00  0.00    +0.000 A 
BRANCH   7   9
ATOM      9  C   UNL     1       1.781   8.589  18.656  0.00  0.00    +0.000 C 
ATOM     10  C   UNL     1       2.964   8.087  18.243  0.00  0.00    +0.000 C 
BRANCH  10  11
ATOM     11  C   UNL     1       3.214   6.675  17.872  0.00  0.00    +0.000 A 
ATOM     12  C   UNL     1       4.350   6.295  17.170  0.00  0.00    +0.000 A 
ATOM     13  C   UNL     1       4.562   4.952  16.891  0.00  0.00    +0.000 A 
ATOM     14  C   UNL     1       3.699   3.997  17.416  0.00  0.00    +0.000 A 
ATOM     15  C   UNL     1       3.980   2.629  17.258  0.00  0.00    +0.000 A 
ATOM     16  C   UNL     1       3.210   1.677  17.912  0.00  0.00    +0.000 A 
ATOM     17  C   UNL     1       2.128   2.089  18.678  0.00  0.00    +0.000 A 
ATOM     18  C   UNL     1       1.811   3.454  18.772  0.00  0.00    +0.000 A 
ATOM     19  C   UNL     1       2.593   4.441  18.169  0.00  0.00    +0.000 A 
ATOM     20  N   UNL     1       2.332   5.760  18.357  0.00  0.00    +0.000 NA
ENDBRANCH  10  11
ENDBRANCH   7   9
ENDBRANCH   2   3
BRANCH   1  21
ATOM     21  C   UNL     1      -2.188  13.513  22.549  0.00  0.00    +0.000 C 
ATOM     22  O   UNL     1      -1.847  14.041  23.608  0.00  0.00    +0.000 OA
BRANCH  21  27
ATOM     23  C   UNL     1      -5.348  12.525  20.681  0.00  0.00    +0.000 A 
ATOM     24  C   UNL     1      -6.318  12.715  21.685  0.00  0.00    +0.000 A 
ATOM     25  C   UNL     1      -5.970  13.150  22.969  0.00  0.00    +0.000 A 
ATOM     26  C   UNL     1      -4.631  13.401  23.279  0.00  0.00    +0.000 A 
ATOM     27  C   UNL     1      -3.632  13.202  22.315  0.00  0.00    +0.000 A 
ATOM     28  C   UNL     1      -4.006  12.773  21.024  0.00  0.00    +0.000 A 
BRANCH  23  30
ATOM     29  C   UNL     1      -6.572  13.282  18.622  0.00  0.00    +0.000 C 
ATOM     30  C   UNL     1      -5.802  12.108  19.267  0.00  0.00    +0.000 C 
ATOM     31  C   UNL     1      -6.732  10.875  19.341  0.00  0.00    +0.000 C 
ATOM     32  C   UNL     1      -4.639  11.742  18.320  0.00  0.00    +0.000 C 
ENDBRANCH  23  30
BRANCH  25  33
ATOM     33  C   UNL     1      -7.087  13.374  23.928  0.00  0.00    +0.000 C 
ATOM     34  O   UNL     1      -7.916  12.516  24.184  0.00  0.00    +0.000 OA
BRANCH  33  35
ATOM     35  O   UNL     1      -7.079  14.586  24.519  0.00  0.00    +0.000 OA
ATOM     36  H   UNL     1      -6.190  14.985  24.577  0.00  0.00    +0.000 HD
ENDBRANCH  33  35
ENDBRANCH  25  33
BRANCH  26  37
ATOM     37  O   UNL     1      -4.325  13.881  24.525  0.00  0.00    +0.000 OA
ATOM     38  H   UNL     1      -4.172  14.845  24.424  0.00  0.00    +0.000 HD
ENDBRANCH  26  37
ENDBRANCH  21  27
ENDBRANCH   1  21
TORSDOF 9
ENDMDL
MODEL 7
REMARK VINA RESULT:      -8.2      5.153     12.178
REMARK  Name = 
REMARK  12 active torsions:
REMARK  status: ('A' for Active; 'I' for Inactive)
REMARK    1  A    between atoms: C_1  and  C_2
REMARK    2  A    between atoms: C_2  and  C_3
REMARK    3  A    between atoms: C_2  and  C_4
REMARK    4  A    between atoms: C_2  and  C_5
REMARK    5  A    between atoms: C_7  and  C_8
REMARK    6  A    between atoms: C_8  and  O_10
REMARK    7  A    between atoms: C_11  and  O_12
REMARK    8  A    between atoms: C_13  and  C_14
REMARK    9  A    between atoms: C_14  and  C_16
REMARK   10  A    between atoms: C_17  and  C_18
REMARK   11  A    between atoms: C_22  and  C_23
REMARK   12  A    between atoms: C_24  and  C_25
REMARK                            x       y       z     vdW  Elec       q    Type
REMARK                         _______ _______ _______ _____ _____    ______ ____
ROOT
ATOM      1  C   UNL     1      -1.488  13.468  20.083  0.00  0.00    +0.000 C 
ATOM      2  C   UNL     1      -0.533  12.608  20.465  0.00  0.00    +0.000 C 
ENDROOT
BRANCH   2   3
ATOM      3  C   UNL     1       0.490  12.143  19.522  0.00  0.00    +0.000 A 
ATOM      4  C   UNL     1       1.210  13.054  18.748  0.00  0.00    +0.000 A 
ATOM      5  C   UNL     1       2.216  12.600  17.894  0.00  0.00    +0.000 A 
ATOM      6  C   UNL     1       2.503  11.233  17.799  0.00  0.00    +0.000 A 
ATOM      7  C   UNL     1       1.786  10.295  18.548  0.00  0.00    +0.000 A 
ATOM      8  C   UNL     1       0.777  10.771  19.411  0.00  0.00    +0.000 A 
BRANCH   7   9
ATOM      9  C   UNL     1       1.985   8.833  18.411  0.00  0.00    +0.000 C 
ATOM     10  C   UNL     1       3.107   8.183  18.037  0.00  0.00    +0.000 C 
BRANCH  10  11
ATOM     11  C   UNL     1       3.205   6.733  17.752  0.00  0.00    +0.000 A 
ATOM     12  C   UNL     1       4.334   6.179  17.164  0.00  0.00    +0.000 A 
ATOM     13  C   UNL     1       4.396   4.807  16.964  0.00  0.00    +0.000 A 
ATOM     14  C   UNL     1       3.381   3.994  17.457  0.00  0.00    +0.000 A 
ATOM     15  C   UNL     1       3.499   2.596  17.385  0.00  0.00    +0.000 A 
ATOM     16  C   UNL     1       2.566   1.783  18.014  0.00  0.00    +0.000 A 
ATOM     17  C   UNL     1       1.489   2.366  18.669  0.00  0.00    +0.000 A 
ATOM     18  C   UNL     1       1.340   3.762  18.675  0.00  0.00    +0.000 A 
ATOM     19  C   UNL     1       2.286   4.611  18.095  0.00  0.00    +0.000 A 
ATOM     20  N   UNL     1       2.179   5.960  18.202  0.00  0.00    +0.000 NA
ENDBRANCH  10  11
ENDBRANCH   7   9
ENDBRANCH   2   3
BRANCH   1  21
ATOM     21  C   UNL     1      -2.499  13.971  21.051  0.00  0.00    +0.000 C 
ATOM     22  O   UNL     1      -2.277  14.941  21.775  0.00  0.00    +0.000 OA
BRANCH  21  27
ATOM     23  C   UNL     1      -5.611  12.152  19.843  0.00  0.00    +0.000 A 
ATOM     24  C   UNL     1      -6.382  12.138  21.023  0.00  0.00    +0.000 A 
ATOM     25  C   UNL     1      -5.911  12.700  22.215  0.00  0.00    +0.000 A 
ATOM     26  C   UNL     1      -4.644  13.289  22.253  0.00  0.00    +0.000 A 
ATOM     27  C   UNL     1      -3.835  13.302  21.108  0.00  0.00    +0.000 A 
ATOM     28  C   UNL     1      -4.334  12.739  19.914  0.00  0.00    +0.000 A 
BRANCH  23  30
ATOM     29  C   UNL     1      -6.914  10.238  18.871  0.00  0.00    +0.000 C 
ATOM     30  C   UNL     1      -6.212  11.575  18.545  0.00  0.00    +0.000 C 
ATOM     31  C   UNL     1      -5.100  11.320  17.502  0.00  0.00    +0.000 C 
ATOM     32  C   UNL     1      -7.257  12.495  17.878  0.00  0.00    +0.000 C 
ENDBRANCH  23  30
BRANCH  25  33
ATOM     33  C   UNL     1      -6.838  12.681  23.379  0.00  0.00    +0.000 C 
ATOM     34  O   UNL     1      -6.619  12.025  24.385  0.00  0.00    +0.000 OA
BRANCH  33  35
ATOM     35  O   UNL     1      -7.916  13.480  23.246  0.00  0.00    +0.000 OA
ATOM     36  H   UNL     1      -8.340  13.709  24.095  0.00  0.00    +0.000 HD
ENDBRANCH  33  35
ENDBRANCH  25  33
BRANCH  26  37
ATOM     37  O   UNL     1      -4.231  13.882  23.416  0.00  0.00    +0.000 OA
ATOM     38  H   UNL     1      -5.031  13.990  23.975  0.00  0.00    +0.000 HD
ENDBRANCH  26  37
ENDBRANCH  21  27
ENDBRANCH   1  21
TORSDOF 9
ENDMDL
MODEL 8
REMARK VINA RESULT:      -8.2      5.537      8.030
REMARK  Name = 
REMARK  12 active torsions:
REMARK  status: ('A' for Active; 'I' for Inactive)
REMARK    1  A    between atoms: C_1  and  C_2
REMARK    2  A    between atoms: C_2  and  C_3
REMARK    3  A    between atoms: C_2  and  C_4
REMARK    4  A    between atoms: C_2  and  C_5
REMARK    5  A    between atoms: C_7  and  C_8
REMARK    6  A    between atoms: C_8  and  O_10
REMARK    7  A    between atoms: C_11  and  O_12
REMARK    8  A    between atoms: C_13  and  C_14
REMARK    9  A    between atoms: C_14  and  C_16
REMARK   10  A    between atoms: C_17  and  C_18
REMARK   11  A    between atoms: C_22  and  C_23
REMARK   12  A    between atoms: C_24  and  C_25
REMARK                            x       y       z     vdW  Elec       q    Type
REMARK                         _______ _______ _______ _____ _____    ______ ____
ROOT
ATOM      1  C   UNL     1       1.606   8.526  19.403  0.00  0.00    +0.000 C 
ATOM      2  C   UNL     1       0.779   9.414  19.975  0.00  0.00    +0.000 C 
ENDROOT
BRANCH   2   3
ATOM      3  C   UNL     1       0.453  10.682  19.315  0.00  0.00    +0.000 A 
ATOM      4  C   UNL     1      -0.836  10.926  18.841  0.00  0.00    +0.000 A 
ATOM      5  C   UNL     1      -1.143  12.158  18.261  0.00  0.00    +0.000 A 
ATOM      6  C   UNL     1      -0.164  13.150  18.142  0.00  0.00    +0.000 A 
ATOM      7  C   UNL     1       1.142  12.928  18.590  0.00  0.00    +0.000 A 
ATOM      8  C   UNL     1       1.435  11.680  19.178  0.00  0.00    +0.000 A 
BRANCH   7   9
ATOM      9  C   UNL     1       2.237  13.908  18.398  0.00  0.00    +0.000 C 
ATOM     10  C   UNL     1       3.477  13.877  18.932  0.00  0.00    +0.000 C 
BRANCH  10  11
ATOM     11  C   UNL     1       4.476  14.966  18.846  0.00  0.00    +0.000 A 
ATOM     12  C   UNL     1       4.286  16.183  19.487  0.00  0.00    +0.000 A 
ATOM     13  C   UNL     1       5.276  17.153  19.416  0.00  0.00    +0.000 A 
ATOM     14  C   UNL     1       6.489  16.854  18.805  0.00  0.00    +0.000 A 
ATOM     15  C   UNL     1       7.548  17.776  18.849  0.00  0.00    +0.000 A 
ATOM     16  C   UNL     1       8.805  17.420  18.379  0.00  0.00    +0.000 A 
ATOM     17  C   UNL     1       8.989  16.164  17.817  0.00  0.00    +0.000 A 
ATOM     18  C   UNL     1       7.908  15.274  17.713  0.00  0.00    +0.000 A 
ATOM     19  C   UNL     1       6.643  15.581  18.220  0.00  0.00    +0.000 A 
ATOM     20  N   UNL     1       5.637  14.669  18.203  0.00  0.00    +0.000 NA
ENDBRANCH  10  11
ENDBRANCH   7   9
ENDBRANCH   2   3
BRANCH   1  21
ATOM     21  C   UNL     1       1.901   7.223  20.055  0.00  0.00    +0.000 C 
ATOM     22  O   UNL     1       1.664   7.025  21.247  0.00  0.00    +0.000 OA
BRANCH  21  27
ATOM     23  C   UNL     1       4.083   5.462  17.488  0.00  0.00    +0.000 A 
ATOM     24  C   UNL     1       3.517   4.171  17.503  0.00  0.00    +0.000 A 
ATOM     25  C   UNL     1       2.442   3.850  18.339  0.00  0.00    +0.000 A 
ATOM     26  C   UNL     1       1.909   4.822  19.190  0.00  0.00    +0.000 A 
ATOM     27  C   UNL     1       2.457   6.112  19.223  0.00  0.00    +0.000 A 
ATOM     28  C   UNL     1       3.535   6.417  18.364  0.00  0.00    +0.000 A 
BRANCH  23  30
ATOM     29  C   UNL     1       4.826   7.000  15.647  0.00  0.00    +0.000 C 
ATOM     30  C   UNL     1       5.223   5.772  16.496  0.00  0.00    +0.000 C 
ATOM     31  C   UNL     1       5.464   4.567  15.558  0.00  0.00    +0.000 C 
ATOM     32  C   UNL     1       6.571   6.094  17.175  0.00  0.00    +0.000 C 
ENDBRANCH  23  30
BRANCH  25  33
ATOM     33  C   UNL     1       1.889   2.472  18.224  0.00  0.00    +0.000 C 
ATOM     34  O   UNL     1       0.707   2.222  18.392  0.00  0.00    +0.000 OA
BRANCH  33  35
ATOM     35  O   UNL     1       2.795   1.536  17.877  0.00  0.00    +0.000 OA
ATOM     36  H   UNL     1       3.691   1.896  17.730  0.00  0.00    +0.000 HD
ENDBRANCH  33  35
ENDBRANCH  25  33
BRANCH  26  37
ATOM     37  O   UNL     1       0.821   4.497  19.956  0.00  0.00    +0.000 OA
ATOM     38  H   UNL     1       1.153   4.348  20.867  0.00  0.00    +0.000 HD
ENDBRANCH  26  37
ENDBRANCH  21  27
ENDBRANCH   1  21
TORSDOF 9
ENDMDL
MODEL 9
REMARK VINA RESULT:      -8.1      1.611      3.128
REMARK  Name = 
REMARK  12 active torsions:
REMARK  status: ('A' for Active; 'I' for Inactive)
REMARK    1  A    between atoms: C_1  and  C_2
REMARK    2  A    between atoms: C_2  and  C_3
REMARK    3  A    between atoms: C_2  and  C_4
REMARK    4  A    between atoms: C_2  and  C_5
REMARK    5  A    between atoms: C_7  and  C_8
REMARK    6  A    between atoms: C_8  and  O_10
REMARK    7  A    between atoms: C_11  and  O_12
REMARK    8  A    between atoms: C_13  and  C_14
REMARK    9  A    between atoms: C_14  and  C_16
REMARK   10  A    between atoms: C_17  and  C_18
REMARK   11  A    between atoms: C_22  and  C_23
REMARK   12  A    between atoms: C_24  and  C_25
REMARK                            x       y       z     vdW  Elec       q    Type
REMARK                         _______ _______ _______ _____ _____    ______ ____
ROOT
ATOM      1  C   UNL     1       1.618   8.319  19.281  0.00  0.00    +0.000 C 
ATOM      2  C   UNL     1       1.394   9.570  19.707  0.00  0.00    +0.000 C 
ENDROOT
BRANCH   2   3
ATOM      3  C   UNL     1       0.610   9.829  20.919  0.00  0.00    +0.000 A 
ATOM      4  C   UNL     1       0.793   9.052  22.064  0.00  0.00    +0.000 A 
ATOM      5  C   UNL     1       0.077   9.344  23.226  0.00  0.00    +0.000 A 
ATOM      6  C   UNL     1      -0.833  10.407  23.250  0.00  0.00    +0.000 A 
ATOM      7  C   UNL     1      -1.052  11.192  22.113  0.00  0.00    +0.000 A 
ATOM      8  C   UNL     1      -0.316  10.887  20.950  0.00  0.00    +0.000 A 
BRANCH   7   9
ATOM      9  C   UNL     1      -2.073  12.264  22.059  0.00  0.00    +0.000 C 
ATOM     10  C   UNL     1      -2.952  12.618  23.020  0.00  0.00    +0.000 C 
BRANCH  10  11
ATOM     11  C   UNL     1      -4.064  13.582  22.854  0.00  0.00    +0.000 A 
ATOM     12  C   UNL     1      -5.194  13.538  23.659  0.00  0.00    +0.000 A 
ATOM     13  C   UNL     1      -6.186  14.496  23.495  0.00  0.00    +0.000 A 
ATOM     14  C   UNL     1      -5.984  15.550  22.611  0.00  0.00    +0.000 A 
ATOM     15  C   UNL     1      -6.916  16.599  22.538  0.00  0.00    +0.000 A 
ATOM     16  C   UNL     1      -6.642  17.726  21.776  0.00  0.00    +0.000 A 
ATOM     17  C   UNL     1      -5.463  17.781  21.044  0.00  0.00    +0.000 A 
ATOM     18  C   UNL     1      -4.570  16.698  21.066  0.00  0.00    +0.000 A 
ATOM     19  C   UNL     1      -4.790  15.571  21.861  0.00  0.00    +0.000 A 
ATOM     20  N   UNL     1      -3.866  14.579  21.950  0.00  0.00    +0.000 NA
ENDBRANCH  10  11
ENDBRANCH   7   9
ENDBRANCH   2   3
BRANCH   1  21
ATOM     21  C   UNL     1       2.449   8.057  18.075  0.00  0.00    +0.000 C 
ATOM     22  O   UNL     1       2.494   8.849  17.134  0.00  0.00    +0.000 OA
BRANCH  21  27
ATOM     23  C   UNL     1       5.556   5.878  17.840  0.00  0.00    +0.000 A 
ATOM     24  C   UNL     1       4.975   4.595  17.809  0.00  0.00    +0.000 A 
ATOM     25  C   UNL     1       3.589   4.414  17.872  0.00  0.00    +0.000 A 
ATOM     26  C   UNL     1       2.747   5.525  17.974  0.00  0.00    +0.000 A 
ATOM     27  C   UNL     1       3.285   6.818  18.033  0.00  0.00    +0.000 A 
ATOM     28  C   UNL     1       4.685   6.978  17.957  0.00  0.00    +0.000 A 
BRANCH  23  30
ATOM     29  C   UNL     1       7.571   5.073  16.577  0.00  0.00    +0.000 C 
ATOM     30  C   UNL     1       7.085   6.015  17.700  0.00  0.00    +0.000 C 
ATOM     31  C   UNL     1       7.785   5.625  19.023  0.00  0.00    +0.000 C 
ATOM     32  C   UNL     1       7.555   7.442  17.344  0.00  0.00    +0.000 C 
ENDBRANCH  23  30
BRANCH  25  33
ATOM     33  C   UNL     1       3.088   3.016  17.768  0.00  0.00    +0.000 C 
ATOM     34  O   UNL     1       1.965   2.746  17.375  0.00  0.00    +0.000 OA
BRANCH  33  35
ATOM     35  O   UNL     1       3.993   2.074  18.103  0.00  0.00    +0.000 OA
ATOM     36  H   UNL     1       4.696   1.954  17.436  0.00  0.00    +0.000 HD
ENDBRANCH  33  35
ENDBRANCH  25  33
BRANCH  26  37
ATOM     37  O   UNL     1       1.392   5.322  17.976  0.00  0.00    +0.000 OA
ATOM     38  H   UNL     1       0.977   6.208  18.049  0.00  0.00    +0.000 HD
ENDBRANCH  26  37
ENDBRANCH  21  27
ENDBRANCH   1  21
TORSDOF 9
ENDMDL
