MODEL 1
REMARK VINA RESULT:      -9.3      0.000      0.000
REMARK  Name = 
REMARK  4 active torsions:
REMARK  status: ('A' for Active; 'I' for Inactive)
REMARK    1  A    between atoms: C_1  and  C_2
REMARK    2  A    between atoms: C_6  and  O_7
REMARK    3  A    between atoms: O_7  and  C_8
REMARK    4  A    between atoms: C_12  and  C_13
REMARK                            x       y       z     vdW  Elec       q    Type
REMARK                         _______ _______ _______ _____ _____    ______ ____
ROOT
ATOM      1  C   UNL     1       1.887   6.996  20.382  0.00  0.00    +0.000 C 
ATOM      2  C   UNL     1       2.342   6.565  19.187  0.00  0.00    +0.000 C 
ATOM      3  C   UNL     1       2.370   7.341  17.891  0.00  0.00    +0.000 C 
ATOM      4  C   UNL     1       3.834   7.572  17.523  0.00  0.00    +0.000 C 
ATOM      5  N   UNL     1       4.464   6.275  17.259  0.00  0.00    +0.000 N 
ATOM      6  C   UNL     1       5.167   6.138  16.073  0.00  0.00    +0.000 C 
ATOM      7  O   UNL     1       5.344   7.095  15.318  0.00  0.00    +0.000 OA
ATOM      8  N   UNL     1       5.577   4.865  15.772  0.00  0.00    +0.000 N 
ATOM      9  C   UNL     1       6.192   4.573  14.543  0.00  0.00    +0.000 A 
ATOM     10  C   UNL     1       7.186   5.372  13.996  0.00  0.00    +0.000 A 
ATOM     11  C   UNL     1       7.681   5.055  12.736  0.00  0.00    +0.000 A 
ATOM     12  C   UNL     1       7.152   3.959  12.089  0.00  0.00    +0.000 A 
ATOM     13  N   UNL     1       6.218   3.168  12.654  0.00  0.00    +0.000 NA
ATOM     14  N   UNL     1       5.753   3.467  13.905  0.00  0.00    +0.000 NA
ATOM     15  C   UNL     1       4.404   5.319  18.382  0.00  0.00    +0.000 C 
ATOM     16  C   UNL     1       2.984   5.198  18.989  0.00  0.00    +0.000 C 
ATOM     17  H   UNL     1       4.935   4.138  16.047  0.00  0.00    +0.000 HD
ENDROOT
BRANCH   1  22
ATOM     18  C   UNL     1       0.389  10.488  20.117  0.00  0.00    +0.000 A 
ATOM     19  C   UNL     1       0.178  10.791  21.460  0.00  0.00    +0.000 A 
ATOM     20  C   UNL     1       0.549   9.874  22.442  0.00  0.00    +0.000 A 
ATOM     21  C   UNL     1       1.092   8.636  22.076  0.00  0.00    +0.000 A 
ATOM     22  C   UNL     1       1.323   8.320  20.730  0.00  0.00    +0.000 A 
ATOM     23  C   UNL     1       1.052   9.305  19.772  0.00  0.00    +0.000 A 
BRANCH  18  24
ATOM     24  O   UNL     1      -0.052  11.411  19.192  0.00  0.00    +0.000 OA
BRANCH  24  30
ATOM     25  C   UNL     1      -2.993   9.753  15.554  0.00  0.00    +0.000 C 
ATOM     26  C   UNL     1      -2.770  10.421  16.878  0.00  0.00    +0.000 A 
ATOM     27  C   UNL     1      -3.819  11.057  17.543  0.00  0.00    +0.000 A 
ATOM     28  C   UNL     1      -3.543  11.719  18.730  0.00  0.00    +0.000 A 
ATOM     29  N   UNL     1      -2.307  11.829  19.264  0.00  0.00    +0.000 NA
ATOM     30  C   UNL     1      -1.289  11.235  18.601  0.00  0.00    +0.000 A 
ATOM     31  C   UNL     1      -1.492  10.482  17.445  0.00  0.00    +0.000 A 
ENDBRANCH  24  30
ENDBRANCH  18  24
ENDBRANCH   1  22
TORSDOF 3
ENDMDL
MODEL 2
REMARK VINA RESULT:      -9.3      3.106      9.175
REMARK  Name = 
REMARK  4 active torsions:
REMARK  status: ('A' for Active; 'I' for Inactive)
REMARK    1  A    between atoms: C_1  and  C_2
REMARK    2  A    between atoms: C_6  and  O_7
REMARK    3  A    between atoms: O_7  and  C_8
REMARK    4  A    between atoms: C_12  and  C_13
REMARK                            x       y       z     vdW  Elec       q    Type
REMARK                         _______ _______ _______ _____ _____    ______ ____
ROOT
ATOM      1  C   UNL     1       1.266   5.462  20.572  0.00  0.00    +0.000 C 
ATOM      2  C   UNL     1       1.609   6.768  20.566  0.00  0.00    +0.000 C 
ATOM      3  C   UNL     1       2.478   7.475  19.553  0.00  0.00    +0.000 C 
ATOM      4  C   UNL     1       1.596   8.474  18.808  0.00  0.00    +0.000 C 
ATOM      5  N   UNL     1       1.129   9.491  19.755  0.00  0.00    +0.000 N 
ATOM      6  C   UNL     1       1.305  10.819  19.403  0.00  0.00    +0.000 C 
ATOM      7  O   UNL     1       1.743  11.136  18.296  0.00  0.00    +0.000 OA
ATOM      8  N   UNL     1       1.034  11.733  20.388  0.00  0.00    +0.000 N 
ATOM      9  C   UNL     1       1.289  13.101  20.198  0.00  0.00    +0.000 A 
ATOM     10  C   UNL     1       0.945  13.770  19.032  0.00  0.00    +0.000 A 
ATOM     11  C   UNL     1       1.310  15.104  18.894  0.00  0.00    +0.000 A 
ATOM     12  C   UNL     1       2.002  15.698  19.929  0.00  0.00    +0.000 A 
ATOM     13  N   UNL     1       2.288  15.045  21.073  0.00  0.00    +0.000 NA
ATOM     14  N   UNL     1       1.904  13.740  21.216  0.00  0.00    +0.000 NA
ATOM     15  C   UNL     1       0.372   8.960  20.906  0.00  0.00    +0.000 C 
ATOM     16  C   UNL     1       1.083   7.765  21.589  0.00  0.00    +0.000 C 
ATOM     17  H   UNL     1       1.282  11.436  21.320  0.00  0.00    +0.000 HD
ENDROOT
BRANCH   1  22
ATOM     18  C   UNL     1       3.066   3.512  17.840  0.00  0.00    +0.000 A 
ATOM     19  C   UNL     1       2.327   2.331  17.823  0.00  0.00    +0.000 A 
ATOM     20  C   UNL     1       1.234   2.188  18.676  0.00  0.00    +0.000 A 
ATOM     21  C   UNL     1       0.907   3.210  19.576  0.00  0.00    +0.000 A 
ATOM     22  C   UNL     1       1.633   4.409  19.597  0.00  0.00    +0.000 A 
ATOM     23  C   UNL     1       2.651   4.575  18.649  0.00  0.00    +0.000 A 
BRANCH  18  24
ATOM     24  O   UNL     1       4.169   3.569  17.014  0.00  0.00    +0.000 OA
BRANCH  24  30
ATOM     25  C   UNL     1       7.939   5.749  19.395  0.00  0.00    +0.000 C 
ATOM     26  C   UNL     1       6.939   5.678  18.279  0.00  0.00    +0.000 A 
ATOM     27  C   UNL     1       6.771   6.750  17.401  0.00  0.00    +0.000 A 
ATOM     28  C   UNL     1       5.784   6.659  16.431  0.00  0.00    +0.000 A 
ATOM     29  N   UNL     1       4.936   5.614  16.310  0.00  0.00    +0.000 NA
ATOM     30  C   UNL     1       5.085   4.591  17.182  0.00  0.00    +0.000 A 
ATOM     31  C   UNL     1       6.103   4.565  18.135  0.00  0.00    +0.000 A 
ENDBRANCH  24  30
ENDBRANCH  18  24
ENDBRANCH   1  22
TORSDOF 3
ENDMDL
MODEL 3
REMARK VINA RESULT:      -9.2      2.527     10.448
REMARK  Name = 
REMARK  4 active torsions:
REMARK  status: ('A' for Active; 'I' for Inactive)
REMARK    1  A    between atoms: C_1  and  C_2
REMARK    2  A    between atoms: C_6  and  O_7
REMARK    3  A    between atoms: O_7  and  C_8
REMARK    4  A    between atoms: C_12  and  C_13
REMARK                            x       y       z     vdW  Elec       q    Type
REMARK                         _______ _______ _______ _____ _____    ______ ____
ROOT
ATOM      1  C   UNL     1       3.360   7.971  17.426  0.00  0.00    +0.000 C 
ATOM      2  C   UNL     1       2.238   8.456  17.999  0.00  0.00    +0.000 C 
ATOM      3  C   UNL     1       1.330   7.741  18.971  0.00  0.00    +0.000 C 
ATOM      4  C   UNL     1       1.430   8.464  20.312  0.00  0.00    +0.000 C 
ATOM      5  N   UNL     1       0.904   9.823  20.156  0.00  0.00    +0.000 N 
ATOM      6  C   UNL     1      -0.048  10.246  21.069  0.00  0.00    +0.000 C 
ATOM      7  O   UNL     1      -0.367   9.548  22.033  0.00  0.00    +0.000 OA
ATOM      8  N   UNL     1      -0.654  11.442  20.781  0.00  0.00    +0.000 N 
ATOM      9  C   UNL     1      -1.720  11.921  21.560  0.00  0.00    +0.000 A 
ATOM     10  C   UNL     1      -1.704  11.891  22.947  0.00  0.00    +0.000 A 
ATOM     11  C   UNL     1      -2.836  12.308  23.638  0.00  0.00    +0.000 A 
ATOM     12  C   UNL     1      -3.925  12.730  22.904  0.00  0.00    +0.000 A 
ATOM     13  N   UNL     1      -3.907  12.795  21.557  0.00  0.00    +0.000 NA
ATOM     14  N   UNL     1      -2.781  12.408  20.882  0.00  0.00    +0.000 NA
ATOM     15  C   UNL     1       1.587  10.635  19.130  0.00  0.00    +0.000 C 
ATOM     16  C   UNL     1       1.752   9.883  17.785  0.00  0.00    +0.000 C 
ATOM     17  H   UNL     1      -0.806  11.612  19.799  0.00  0.00    +0.000 HD
ENDROOT
BRANCH   1  22
ATOM     18  C   UNL     1       5.704   4.986  17.105  0.00  0.00    +0.000 A 
ATOM     19  C   UNL     1       5.182   4.131  18.072  0.00  0.00    +0.000 A 
ATOM     20  C   UNL     1       4.058   4.515  18.801  0.00  0.00    +0.000 A 
ATOM     21  C   UNL     1       3.482   5.775  18.590  0.00  0.00    +0.000 A 
ATOM     22  C   UNL     1       3.987   6.642  17.611  0.00  0.00    +0.000 A 
ATOM     23  C   UNL     1       5.042   6.183  16.812  0.00  0.00    +0.000 A 
BRANCH  18  24
ATOM     24  O   UNL     1       6.850   4.572  16.459  0.00  0.00    +0.000 OA
BRANCH  24  30
ATOM     25  C   UNL     1       5.315   2.902  12.045  0.00  0.00    +0.000 C 
ATOM     26  C   UNL     1       6.146   3.809  12.904  0.00  0.00    +0.000 A 
ATOM     27  C   UNL     1       7.137   4.614  12.342  0.00  0.00    +0.000 A 
ATOM     28  C   UNL     1       7.923   5.381  13.189  0.00  0.00    +0.000 A 
ATOM     29  N   UNL     1       7.822   5.363  14.537  0.00  0.00    +0.000 NA
ATOM     30  C   UNL     1       6.879   4.558  15.077  0.00  0.00    +0.000 A 
ATOM     31  C   UNL     1       5.994   3.817  14.295  0.00  0.00    +0.000 A 
ENDBRANCH  24  30
ENDBRANCH  18  24
ENDBRANCH   1  22
TORSDOF 3
ENDMDL
MODEL 4
REMARK VINA RESULT:      -9.1      0.622      1.208
REMARK  Name = 
REMARK  4 active torsions:
REMARK  status: ('A' for Active; 'I' for Inactive)
REMARK    1  A    between atoms: C_1  and  C_2
REMARK    2  A    between atoms: C_6  and  O_7
REMARK    3  A    between atoms: O_7  and  C_8
REMARK    4  A    between atoms: C_12  and  C_13
REMARK                            x       y       z     vdW  Elec       q    Type
REMARK                         _______ _______ _______ _____ _____    ______ ____
ROOT
ATOM      1  C   UNL     1       1.925   6.852  20.342  0.00  0.00    +0.000 C 
ATOM      2  C   UNL     1       2.377   6.437  19.140  0.00  0.00    +0.000 C 
ATOM      3  C   UNL     1       2.391   7.226  17.852  0.00  0.00    +0.000 C 
ATOM      4  C   UNL     1       3.851   7.473  17.478  0.00  0.00    +0.000 C 
ATOM      5  N   UNL     1       4.491   6.184  17.198  0.00  0.00    +0.000 N 
ATOM      6  C   UNL     1       5.189   6.065  16.007  0.00  0.00    +0.000 C 
ATOM      7  O   UNL     1       5.353   7.031  15.261  0.00  0.00    +0.000 OA
ATOM      8  N   UNL     1       5.608   4.799  15.691  0.00  0.00    +0.000 N 
ATOM      9  C   UNL     1       6.219   4.524  14.456  0.00  0.00    +0.000 A 
ATOM     10  C   UNL     1       7.203   5.337  13.912  0.00  0.00    +0.000 A 
ATOM     11  C   UNL     1       7.693   5.037  12.646  0.00  0.00    +0.000 A 
ATOM     12  C   UNL     1       7.170   3.942  11.991  0.00  0.00    +0.000 A 
ATOM     13  N   UNL     1       6.246   3.137  12.553  0.00  0.00    +0.000 NA
ATOM     14  N   UNL     1       5.786   3.421  13.810  0.00  0.00    +0.000 NA
ATOM     15  C   UNL     1       4.445   5.217  18.312  0.00  0.00    +0.000 C 
ATOM     16  C   UNL     1       3.029   5.078  18.926  0.00  0.00    +0.000 C 
ATOM     17  H   UNL     1       4.973   4.064  15.963  0.00  0.00    +0.000 HD
ENDROOT
BRANCH   1  22
ATOM     18  C   UNL     1       0.402  10.337  20.119  0.00  0.00    +0.000 A 
ATOM     19  C   UNL     1       0.188  10.622  21.465  0.00  0.00    +0.000 A 
ATOM     20  C   UNL     1       0.566   9.696  22.436  0.00  0.00    +0.000 A 
ATOM     21  C   UNL     1       1.118   8.466  22.056  0.00  0.00    +0.000 A 
ATOM     22  C   UNL     1       1.351   8.168  20.706  0.00  0.00    +0.000 A 
ATOM     23  C   UNL     1       1.074   9.163  19.759  0.00  0.00    +0.000 A 
BRANCH  18  24
ATOM     24  O   UNL     1      -0.045  11.268  19.205  0.00  0.00    +0.000 OA
BRANCH  24  30
ATOM     25  C   UNL     1      -4.930  12.075  18.856  0.00  0.00    +0.000 C 
ATOM     26  C   UNL     1      -3.647  11.471  18.366  0.00  0.00    +0.000 A 
ATOM     27  C   UNL     1      -3.648  10.539  17.328  0.00  0.00    +0.000 A 
ATOM     28  C   UNL     1      -2.443   9.959  16.961  0.00  0.00    +0.000 A 
ATOM     29  N   UNL     1      -1.267  10.203  17.580  0.00  0.00    +0.000 NA
ATOM     30  C   UNL     1      -1.277  11.086  18.605  0.00  0.00    +0.000 A 
ATOM     31  C   UNL     1      -2.429  11.774  18.984  0.00  0.00    +0.000 A 
ENDBRANCH  24  30
ENDBRANCH  18  24
ENDBRANCH   1  22
TORSDOF 3
ENDMDL
MODEL 5
REMARK VINA RESULT:      -9.0      3.271      9.583
REMARK  Name = 
REMARK  4 active torsions:
REMARK  status: ('A' for Active; 'I' for Inactive)
REMARK    1  A    between atoms: C_1  and  C_2
REMARK    2  A    between atoms: C_6  and  O_7
REMARK    3  A    between atoms: O_7  and  C_8
REMARK    4  A    between atoms: C_12  and  C_13
REMARK                            x       y       z     vdW  Elec       q    Type
REMARK                         _______ _______ _______ _____ _____    ______ ____
ROOT
ATOM      1  C   UNL     1       1.422   5.712  20.397  0.00  0.00    +0.000 C 
ATOM      2  C   UNL     1       1.608   7.042  20.542  0.00  0.00    +0.000 C 
ATOM      3  C   UNL     1       2.423   7.948  19.651  0.00  0.00    +0.000 C 
ATOM      4  C   UNL     1       1.456   8.915  18.970  0.00  0.00    +0.000 C 
ATOM      5  N   UNL     1       0.838   9.763  19.994  0.00  0.00    +0.000 N 
ATOM      6  C   UNL     1       0.868  11.133  19.789  0.00  0.00    +0.000 C 
ATOM      7  O   UNL     1       1.304  11.616  18.743  0.00  0.00    +0.000 OA
ATOM      8  N   UNL     1       0.454  11.899  20.848  0.00  0.00    +0.000 N 
ATOM      9  C   UNL     1       0.552  13.300  20.812  0.00  0.00    +0.000 A 
ATOM     10  C   UNL     1       0.174  14.047  19.706  0.00  0.00    +0.000 A 
ATOM     11  C   UNL     1       0.382  15.421  19.724  0.00  0.00    +0.000 A 
ATOM     12  C   UNL     1       0.961  15.974  20.847  0.00  0.00    +0.000 A 
ATOM     13  N   UNL     1       1.281  15.240  21.930  0.00  0.00    +0.000 NA
ATOM     14  N   UNL     1       1.049  13.891  21.919  0.00  0.00    +0.000 NA
ATOM     15  C   UNL     1       0.108   9.029  21.046  0.00  0.00    +0.000 C 
ATOM     16  C   UNL     1       0.931   7.856  21.636  0.00  0.00    +0.000 C 
ATOM     17  H   UNL     1       0.702  11.533  21.755  0.00  0.00    +0.000 HD
ENDROOT
BRANCH   1  22
ATOM     18  C   UNL     1       3.577   4.255  17.615  0.00  0.00    +0.000 A 
ATOM     19  C   UNL     1       2.940   3.037  17.394  0.00  0.00    +0.000 A 
ATOM     20  C   UNL     1       1.801   2.709  18.127  0.00  0.00    +0.000 A 
ATOM     21  C   UNL     1       1.325   3.584  19.112  0.00  0.00    +0.000 A 
ATOM     22  C   UNL     1       1.947   4.820  19.339  0.00  0.00    +0.000 A 
ATOM     23  C   UNL     1       3.017   5.176  18.507  0.00  0.00    +0.000 A 
BRANCH  18  24
ATOM     24  O   UNL     1       4.731   4.495  16.899  0.00  0.00    +0.000 OA
BRANCH  24  30
ATOM     25  C   UNL     1       7.728   8.410  17.469  0.00  0.00    +0.000 C 
ATOM     26  C   UNL     1       7.243   7.044  17.855  0.00  0.00    +0.000 A 
ATOM     27  C   UNL     1       7.940   6.275  18.788  0.00  0.00    +0.000 A 
ATOM     28  C   UNL     1       7.487   4.993  19.057  0.00  0.00    +0.000 A 
ATOM     29  N   UNL     1       6.435   4.417  18.435  0.00  0.00    +0.000 NA
ATOM     30  C   UNL     1       5.780   5.156  17.511  0.00  0.00    +0.000 A 
ATOM     31  C   UNL     1       6.120   6.481  17.240  0.00  0.00    +0.000 A 
ENDBRANCH  24  30
ENDBRANCH  18  24
ENDBRANCH   1  22
TORSDOF 3
ENDMDL
MODEL 6
REMARK VINA RESULT:      -8.9      2.935     10.705
REMARK  Name = 
REMARK  4 active torsions:
REMARK  status: ('A' for Active; 'I' for Inactive)
REMARK    1  A    between atoms: C_1  and  C_2
REMARK    2  A    between atoms: C_6  and  O_7
REMARK    3  A    between atoms: O_7  and  C_8
REMARK    4  A    between atoms: C_12  and  C_13
REMARK                            x       y       z     vdW  Elec       q    Type
REMARK                         _______ _______ _______ _____ _____    ______ ____
ROOT
ATOM      1  C   UNL     1       1.994   8.415  18.811  0.00  0.00    +0.000 C 
ATOM      2  C   UNL     1       1.117   9.304  19.323  0.00  0.00    +0.000 C 
ATOM      3  C   UNL     1       0.101   9.054  20.413  0.00  0.00    +0.000 C 
ATOM      4  C   UNL     1       0.509   9.891  21.623  0.00  0.00    +0.000 C 
ATOM      5  N   UNL     1       0.416  11.311  21.268  0.00  0.00    +0.000 N 
ATOM      6  C   UNL     1      -0.297  12.135  22.123  0.00  0.00    +0.000 C 
ATOM      7  O   UNL     1      -0.749  11.717  23.190  0.00  0.00    +0.000 OA
ATOM      8  N   UNL     1      -0.524  13.407  21.665  0.00  0.00    +0.000 N 
ATOM      9  C   UNL     1      -1.336  14.302  22.381  0.00  0.00    +0.000 A 
ATOM     10  C   UNL     1      -1.237  14.465  23.755  0.00  0.00    +0.000 A 
ATOM     11  C   UNL     1      -2.137  15.310  24.395  0.00  0.00    +0.000 A 
ATOM     12  C   UNL     1      -3.091  15.943  23.626  0.00  0.00    +0.000 A 
ATOM     13  N   UNL     1      -3.144  15.808  22.286  0.00  0.00    +0.000 NA
ATOM     14  N   UNL     1      -2.240  14.996  21.657  0.00  0.00    +0.000 NA
ATOM     15  C   UNL     1       1.244  11.714  20.114  0.00  0.00    +0.000 C 
ATOM     16  C   UNL     1       1.079  10.766  18.900  0.00  0.00    +0.000 C 
ATOM     17  H   UNL     1      -0.683  13.476  20.671  0.00  0.00    +0.000 HD
ENDROOT
BRANCH   1  22
ATOM     18  C   UNL     1       2.965   4.733  18.709  0.00  0.00    +0.000 A 
ATOM     19  C   UNL     1       2.625   4.331  19.998  0.00  0.00    +0.000 A 
ATOM     20  C   UNL     1       2.056   5.248  20.881  0.00  0.00    +0.000 A 
ATOM     21  C   UNL     1       1.869   6.579  20.485  0.00  0.00    +0.000 A 
ATOM     22  C   UNL     1       2.195   6.997  19.188  0.00  0.00    +0.000 A 
ATOM     23  C   UNL     1       2.652   6.029  18.284  0.00  0.00    +0.000 A 
BRANCH  18  24
ATOM     24  O   UNL     1       3.575   3.795  17.903  0.00  0.00    +0.000 OA
BRANCH  24  30
ATOM     25  C   UNL     1       6.536   4.305  13.953  0.00  0.00    +0.000 C 
ATOM     26  C   UNL     1       6.261   4.397  15.425  0.00  0.00    +0.000 A 
ATOM     27  C   UNL     1       7.290   4.662  16.329  0.00  0.00    +0.000 A 
ATOM     28  C   UNL     1       6.994   4.668  17.683  0.00  0.00    +0.000 A 
ATOM     29  N   UNL     1       5.775   4.384  18.191  0.00  0.00    +0.000 NA
ATOM     30  C   UNL     1       4.787   4.099  17.312  0.00  0.00    +0.000 A 
ATOM     31  C   UNL     1       4.980   4.151  15.932  0.00  0.00    +0.000 A 
ENDBRANCH  24  30
ENDBRANCH  18  24
ENDBRANCH   1  22
TORSDOF 3
ENDMDL
MODEL 7
REMARK VINA RESULT:      -8.9      3.118     10.976
REMARK  Name = 
REMARK  4 active torsions:
REMARK  status: ('A' for Active; 'I' for Inactive)
REMARK    1  A    between atoms: C_1  and  C_2
REMARK    2  A    between atoms: C_6  and  O_7
REMARK    3  A    between atoms: O_7  and  C_8
REMARK    4  A    between atoms: C_12  and  C_13
REMARK                            x       y       z     vdW  Elec       q    Type
REMARK                         _______ _______ _______ _____ _____    ______ ____
ROOT
ATOM      1  C   UNL     1       1.838   8.887  18.941  0.00  0.00    +0.000 C 
ATOM      2  C   UNL     1       0.931   9.737  19.468  0.00  0.00    +0.000 C 
ATOM      3  C   UNL     1      -0.154   9.405  20.465  0.00  0.00    +0.000 C 
ATOM      4  C   UNL     1       0.176  10.136  21.764  0.00  0.00    +0.000 C 
ATOM      5  N   UNL     1       0.109  11.581  21.524  0.00  0.00    +0.000 N 
ATOM      6  C   UNL     1      -0.656  12.337  22.396  0.00  0.00    +0.000 C 
ATOM      7  O   UNL     1      -1.177  11.835  23.393  0.00  0.00    +0.000 OA
ATOM      8  N   UNL     1      -0.850  13.645  22.031  0.00  0.00    +0.000 N 
ATOM      9  C   UNL     1      -1.706  14.483  22.766  0.00  0.00    +0.000 A 
ATOM     10  C   UNL     1      -1.695  14.531  24.152  0.00  0.00    +0.000 A 
ATOM     11  C   UNL     1      -2.633  15.326  24.800  0.00  0.00    +0.000 A 
ATOM     12  C   UNL     1      -3.534  16.028  24.027  0.00  0.00    +0.000 A 
ATOM     13  N   UNL     1      -3.501  16.004  22.680  0.00  0.00    +0.000 NA
ATOM     14  N   UNL     1      -2.559  15.241  22.045  0.00  0.00    +0.000 NA
ATOM     15  C   UNL     1       1.011  12.072  20.463  0.00  0.00    +0.000 C 
ATOM     16  C   UNL     1       0.923  11.229  19.166  0.00  0.00    +0.000 C 
ATOM     17  H   UNL     1      -0.944  13.797  21.039  0.00  0.00    +0.000 HD
ENDROOT
BRANCH   1  22
ATOM     18  C   UNL     1       2.761   5.210  18.575  0.00  0.00    +0.000 A 
ATOM     19  C   UNL     1       2.386   4.715  19.821  0.00  0.00    +0.000 A 
ATOM     20  C   UNL     1       1.811   5.569  20.760  0.00  0.00    +0.000 A 
ATOM     21  C   UNL     1       1.650   6.929  20.465  0.00  0.00    +0.000 A 
ATOM     22  C   UNL     1       2.011   7.442  19.211  0.00  0.00    +0.000 A 
ATOM     23  C   UNL     1       2.475   6.539  18.245  0.00  0.00    +0.000 A 
BRANCH  18  24
ATOM     24  O   UNL     1       3.377   4.328  17.713  0.00  0.00    +0.000 OA
BRANCH  24  30
ATOM     25  C   UNL     1       7.959   5.691  19.044  0.00  0.00    +0.000 C 
ATOM     26  C   UNL     1       6.988   5.055  18.094  0.00  0.00    +0.000 A 
ATOM     27  C   UNL     1       7.391   4.665  16.816  0.00  0.00    +0.000 A 
ATOM     28  C   UNL     1       6.438   4.146  15.953  0.00  0.00    +0.000 A 
ATOM     29  N   UNL     1       5.125   4.038  16.254  0.00  0.00    +0.000 NA
ATOM     30  C   UNL     1       4.735   4.444  17.484  0.00  0.00    +0.000 A 
ATOM     31  C   UNL     1       5.642   4.902  18.440  0.00  0.00    +0.000 A 
ENDBRANCH  24  30
ENDBRANCH  18  24
ENDBRANCH   1  22
TORSDOF 3
ENDMDL
MODEL 8
REMARK VINA RESULT:      -8.7      3.741     11.348
REMARK  Name = 
REMARK  4 active torsions:
REMARK  status: ('A' for Active; 'I' for Inactive)
REMARK    1  A    between atoms: C_1  and  C_2
REMARK    2  A    between atoms: C_6  and  O_7
REMARK    3  A    between atoms: O_7  and  C_8
REMARK    4  A    between atoms: C_12  and  C_13
REMARK                            x       y       z     vdW  Elec       q    Type
REMARK                         _______ _______ _______ _____ _____    ______ ____
ROOT
ATOM      1  C   UNL     1       0.891   8.298  21.393  0.00  0.00    +0.000 C 
ATOM      2  C   UNL     1       0.736   9.513  21.960  0.00  0.00    +0.000 C 
ATOM      3  C   UNL     1       1.247  10.833  21.434  0.00  0.00    +0.000 C 
ATOM      4  C   UNL     1       0.033  11.681  21.061  0.00  0.00    +0.000 C 
ATOM      5  N   UNL     1      -0.731  11.972  22.278  0.00  0.00    +0.000 N 
ATOM      6  C   UNL     1      -1.063  13.295  22.521  0.00  0.00    +0.000 C 
ATOM      7  O   UNL     1      -0.816  14.179  21.700  0.00  0.00    +0.000 OA
ATOM      8  N   UNL     1      -1.606  13.552  23.753  0.00  0.00    +0.000 N 
ATOM      9  C   UNL     1      -1.873  14.867  24.168  0.00  0.00    +0.000 A 
ATOM     10  C   UNL     1      -2.483  15.801  23.344  0.00  0.00    +0.000 A 
ATOM     11  C   UNL     1      -2.633  17.104  23.806  0.00  0.00    +0.000 A 
ATOM     12  C   UNL     1      -2.162  17.403  25.067  0.00  0.00    +0.000 A 
ATOM     13  N   UNL     1      -1.611  16.472  25.871  0.00  0.00    +0.000 NA
ATOM     14  N   UNL     1      -1.490  15.185  25.423  0.00  0.00    +0.000 NA
ATOM     15  C   UNL     1      -1.196  10.780  23.015  0.00  0.00    +0.000 C 
ATOM     16  C   UNL     1      -0.072   9.735  23.231  0.00  0.00    +0.000 C 
ATOM     17  H   UNL     1      -1.230  12.995  24.505  0.00  0.00    +0.000 HD
ENDROOT
BRANCH   1  22
ATOM     18  C   UNL     1       2.744   6.384  18.671  0.00  0.00    +0.000 A 
ATOM     19  C   UNL     1       2.789   7.337  17.656  0.00  0.00    +0.000 A 
ATOM     20  C   UNL     1       2.244   8.602  17.873  0.00  0.00    +0.000 A 
ATOM     21  C   UNL     1       1.617   8.897  19.090  0.00  0.00    +0.000 A 
ATOM     22  C   UNL     1       1.574   7.953  20.125  0.00  0.00    +0.000 A 
ATOM     23  C   UNL     1       2.233   6.733  19.925  0.00  0.00    +0.000 A 
BRANCH  18  24
ATOM     24  O   UNL     1       3.248   5.135  18.375  0.00  0.00    +0.000 OA
BRANCH  24  30
ATOM     25  C   UNL     1       8.074   5.812  19.313  0.00  0.00    +0.000 C 
ATOM     26  C   UNL     1       6.947   5.276  18.481  0.00  0.00    +0.000 A 
ATOM     27  C   UNL     1       7.189   4.725  17.222  0.00  0.00    +0.000 A 
ATOM     28  C   UNL     1       6.105   4.307  16.465  0.00  0.00    +0.000 A 
ATOM     29  N   UNL     1       4.817   4.444  16.850  0.00  0.00    +0.000 NA
ATOM     30  C   UNL     1       4.587   5.005  18.059  0.00  0.00    +0.000 A 
ATOM     31  C   UNL     1       5.622   5.377  18.917  0.00  0.00    +0.000 A 
ENDBRANCH  24  30
ENDBRANCH  18  24
ENDBRANCH   1  22
TORSDOF 3
ENDMDL
MODEL 9
REMARK VINA RESULT:      -8.7      2.978      9.200
REMARK  Name = 
REMARK  4 active torsions:
REMARK  status: ('A' for Active; 'I' for Inactive)
REMARK    1  A    between atoms: C_1  and  C_2
REMARK    2  A    between atoms: C_6  and  O_7
REMARK    3  A    between atoms: O_7  and  C_8
REMARK    4  A    between atoms: C_12  and  C_13
REMARK                            x       y       z     vdW  Elec       q    Type
REMARK                         _______ _______ _______ _____ _____    ______ ____
ROOT
ATOM      1  C   UNL     1       1.159   5.442  20.658  0.00  0.00    +0.000 C 
ATOM      2  C   UNL     1       1.544   6.735  20.633  0.00  0.00    +0.000 C 
ATOM      3  C   UNL     1       2.497   7.381  19.656  0.00  0.00    +0.000 C 
ATOM      4  C   UNL     1       1.696   8.382  18.826  0.00  0.00    +0.000 C 
ATOM      5  N   UNL     1       1.204   9.443  19.710  0.00  0.00    +0.000 N 
ATOM      6  C   UNL     1       1.445  10.753  19.328  0.00  0.00    +0.000 C 
ATOM      7  O   UNL     1       1.961  11.020  18.242  0.00  0.00    +0.000 OA
ATOM      8  N   UNL     1       1.144  11.707  20.265  0.00  0.00    +0.000 N 
ATOM      9  C   UNL     1       1.454  13.060  20.048  0.00  0.00    +0.000 A 
ATOM     10  C   UNL     1       1.206  13.700  18.843  0.00  0.00    +0.000 A 
ATOM     11  C   UNL     1       1.621  15.017  18.687  0.00  0.00    +0.000 A 
ATOM     12  C   UNL     1       2.267  15.623  19.744  0.00  0.00    +0.000 A 
ATOM     13  N   UNL     1       2.460  15.001  20.924  0.00  0.00    +0.000 NA
ATOM     14  N   UNL     1       2.026  13.713  21.083  0.00  0.00    +0.000 NA
ATOM     15  C   UNL     1       0.361   8.974  20.827  0.00  0.00    +0.000 C 
ATOM     16  C   UNL     1       0.989   7.782  21.590  0.00  0.00    +0.000 C 
ATOM     17  H   UNL     1       1.323  11.434  21.219  0.00  0.00    +0.000 HD
ENDROOT
BRANCH   1  22
ATOM     18  C   UNL     1       2.542   3.528  17.669  0.00  0.00    +0.000 A 
ATOM     19  C   UNL     1       2.349   2.212  18.082  0.00  0.00    +0.000 A 
ATOM     20  C   UNL     1       1.745   1.955  19.312  0.00  0.00    +0.000 A 
ATOM     21  C   UNL     1       1.375   3.016  20.147  0.00  0.00    +0.000 A 
ATOM     22  C   UNL     1       1.551   4.346  19.742  0.00  0.00    +0.000 A 
ATOM     23  C   UNL     1       2.049   4.577  18.453  0.00  0.00    +0.000 A 
BRANCH  18  24
ATOM     24  O   UNL     1       3.196   3.716  16.470  0.00  0.00    +0.000 OA
BRANCH  24  30
ATOM     25  C   UNL     1       7.431   4.951  14.195  0.00  0.00    +0.000 C 
ATOM     26  C   UNL     1       6.603   4.727  15.426  0.00  0.00    +0.000 A 
ATOM     27  C   UNL     1       7.189   4.737  16.692  0.00  0.00    +0.000 A 
ATOM     28  C   UNL     1       6.390   4.456  17.791  0.00  0.00    +0.000 A 
ATOM     29  N   UNL     1       5.083   4.123  17.710  0.00  0.00    +0.000 NA
ATOM     30  C   UNL     1       4.527   4.087  16.478  0.00  0.00    +0.000 A 
ATOM     31  C   UNL     1       5.238   4.435  15.329  0.00  0.00    +0.000 A 
ENDBRANCH  24  30
ENDBRANCH  18  24
ENDBRANCH   1  22
TORSDOF 3
ENDMDL
