MODEL 1
REMARK VINA RESULT:      -7.7      0.000      0.000
REMARK  Name = 
REMARK  13 active torsions:
REMARK  status: ('A' for Active; 'I' for Inactive)
REMARK    1  A    between atoms: C_1  and  O_2
REMARK    2  A    between atoms: O_2  and  C_3
REMARK    3  A    between atoms: C_5  and  C_6
REMARK    4  A    between atoms: C_7  and  N_8
REMARK    5  A    between atoms: C_13  and  O_14
REMARK    6  A    between atoms: O_14  and  C_15
REMARK    7  A    between atoms: C_15  and  C_17
REMARK    8  A    between atoms: C_19  and  O_20
REMARK    9  A    between atoms: O_20  and  C_21
REMARK   10  A    between atoms: C_22  and  O_23
REMARK   11  A    between atoms: O_23  and  C_24
REMARK   12  A    between atoms: C_25  and  O_26
REMARK   13  A    between atoms: O_26  and  C_27
REMARK                            x       y       z     vdW  Elec       q    Type
REMARK                         _______ _______ _______ _____ _____    ______ ____
ROOT
ATOM      1  O   UNL     1       2.353   3.914  17.518  0.00  0.00    +0.000 OA
ENDROOT
BRANCH   1   7
ATOM      2  C   UNL     1       1.725   4.623  19.764  0.00  0.00    +0.000 A 
ATOM      3  C   UNL     1       1.601   5.664  20.687  0.00  0.00    +0.000 A 
ATOM      4  C   UNL     1       1.799   7.007  20.318  0.00  0.00    +0.000 A 
ATOM      5  C   UNL     1       2.212   7.285  19.013  0.00  0.00    +0.000 A 
ATOM      6  C   UNL     1       2.370   6.256  18.090  0.00  0.00    +0.000 A 
ATOM      7  C   UNL     1       2.093   4.931  18.451  0.00  0.00    +0.000 A 
BRANCH   2   9
ATOM      8  C   UNL     1       2.194   3.055  21.495  0.00  0.00    +0.000 C 
ATOM      9  O   UNL     1       1.503   3.382  20.297  0.00  0.00    +0.000 OA
ENDBRANCH   2   9
BRANCH   4  10
ATOM     10  C   UNL     1       1.583   8.065  21.313  0.00  0.00    +0.000 C 
ATOM     11  C   UNL     1       0.910   9.191  21.037  0.00  0.00    +0.000 C 
BRANCH  11  12
ATOM     12  N   UNL     1       0.671  10.162  22.068  0.00  0.00    +0.000 N 
ATOM     13  O   UNL     1       0.595  11.364  21.762  0.00  0.00    +0.000 OA
ATOM     14  O   UNL     1       0.565   9.719  23.219  0.00  0.00    +0.000 OA
ENDBRANCH  11  12
ENDBRANCH   4  10
ENDBRANCH   1   7
BRANCH   1  15
ATOM     15  C   UNL     1       3.514   3.186  17.701  0.00  0.00    +0.000 C 
ATOM     16  O   UNL     1       3.610   1.982  17.869  0.00  0.00    +0.000 OA
BRANCH  15  17
ATOM     17  C   UNL     1       4.691   4.084  17.563  0.00  0.00    +0.000 A 
ATOM     18  C   UNL     1       5.036   4.484  16.275  0.00  0.00    +0.000 A 
ATOM     19  C   UNL     1       6.063   5.407  16.068  0.00  0.00    +0.000 A 
ATOM     20  C   UNL     1       6.780   5.925  17.174  0.00  0.00    +0.000 A 
ATOM     21  C   UNL     1       6.464   5.477  18.478  0.00  0.00    +0.000 A 
ATOM     22  C   UNL     1       5.411   4.570  18.657  0.00  0.00    +0.000 A 
BRANCH  19  23
ATOM     23  O   UNL     1       6.427   5.825  14.806  0.00  0.00    +0.000 OA
ATOM     24  C   UNL     1       6.989   4.823  13.956  0.00  0.00    +0.000 C 
ENDBRANCH  19  23
BRANCH  20  25
ATOM     25  O   UNL     1       7.778   6.822  16.863  0.00  0.00    +0.000 OA
ATOM     26  C   UNL     1       7.680   8.125  17.436  0.00  0.00    +0.000 C 
ENDBRANCH  20  25
BRANCH  21  27
ATOM     27  O   UNL     1       7.225   5.933  19.523  0.00  0.00    +0.000 OA
ATOM     28  C   UNL     1       8.376   5.189  19.904  0.00  0.00    +0.000 C 
ENDBRANCH  21  27
ENDBRANCH  15  17
ENDBRANCH   1  15
TORSDOF 9
ENDMDL
MODEL 2
REMARK VINA RESULT:      -7.4      1.246      2.844
REMARK  Name = 
REMARK  13 active torsions:
REMARK  status: ('A' for Active; 'I' for Inactive)
REMARK    1  A    between atoms: C_1  and  O_2
REMARK    2  A    between atoms: O_2  and  C_3
REMARK    3  A    between atoms: C_5  and  C_6
REMARK    4  A    between atoms: C_7  and  N_8
REMARK    5  A    between atoms: C_13  and  O_14
REMARK    6  A    between atoms: O_14  and  C_15
REMARK    7  A    between atoms: C_15  and  C_17
REMARK    8  A    between atoms: C_19  and  O_20
REMARK    9  A    between atoms: O_20  and  C_21
REMARK   10  A    between atoms: C_22  and  O_23
REMARK   11  A    between atoms: O_23  and  C_24
REMARK   12  A    between atoms: C_25  and  O_26
REMARK   13  A    between atoms: O_26  and  C_27
REMARK                            x       y       z     vdW  Elec       q    Type
REMARK                         _______ _______ _______ _____ _____    ______ ____
ROOT
ATOM      1  O   UNL     1       2.818   4.391  17.522  0.00  0.00    +0.000 OA
ENDROOT
BRANCH   1   7
ATOM      2  C   UNL     1       1.897   5.206  19.625  0.00  0.00    +0.000 A 
ATOM      3  C   UNL     1       1.633   6.293  20.461  0.00  0.00    +0.000 A 
ATOM      4  C   UNL     1       1.843   7.619  20.040  0.00  0.00    +0.000 A 
ATOM      5  C   UNL     1       2.409   7.836  18.782  0.00  0.00    +0.000 A 
ATOM      6  C   UNL     1       2.707   6.761  17.949  0.00  0.00    +0.000 A 
ATOM      7  C   UNL     1       2.419   5.451  18.352  0.00  0.00    +0.000 A 
BRANCH   2   9
ATOM      8  C   UNL     1       2.164   3.763  21.502  0.00  0.00    +0.000 C 
ATOM      9  O   UNL     1       1.641   3.991  20.201  0.00  0.00    +0.000 OA
ENDBRANCH   2   9
BRANCH   4  10
ATOM     10  C   UNL     1       1.478   8.724  20.936  0.00  0.00    +0.000 C 
ATOM     11  C   UNL     1       0.422   8.669  21.759  0.00  0.00    +0.000 C 
BRANCH  11  12
ATOM     12  N   UNL     1       0.151   9.752  22.662  0.00  0.00    +0.000 N 
ATOM     13  O   UNL     1      -0.307  10.816  22.213  0.00  0.00    +0.000 OA
ATOM     14  O   UNL     1       0.410   9.543  23.855  0.00  0.00    +0.000 OA
ENDBRANCH  11  12
ENDBRANCH   4  10
ENDBRANCH   1   7
BRANCH   1  15
ATOM     15  C   UNL     1       4.049   3.822  17.791  0.00  0.00    +0.000 C 
ATOM     16  O   UNL     1       4.315   3.027  18.677  0.00  0.00    +0.000 OA
BRANCH  15  17
ATOM     17  C   UNL     1       5.031   4.244  16.757  0.00  0.00    +0.000 A 
ATOM     18  C   UNL     1       5.896   5.283  17.091  0.00  0.00    +0.000 A 
ATOM     19  C   UNL     1       6.913   5.671  16.218  0.00  0.00    +0.000 A 
ATOM     20  C   UNL     1       7.056   5.020  14.968  0.00  0.00    +0.000 A 
ATOM     21  C   UNL     1       6.144   4.001  14.607  0.00  0.00    +0.000 A 
ATOM     22  C   UNL     1       5.148   3.615  15.515  0.00  0.00    +0.000 A 
BRANCH  19  23
ATOM     23  O   UNL     1       7.786   6.693  16.520  0.00  0.00    +0.000 OA
ATOM     24  C   UNL     1       7.576   7.339  17.778  0.00  0.00    +0.000 C 
ENDBRANCH  19  23
BRANCH  20  25
ATOM     25  O   UNL     1       8.085   5.481  14.176  0.00  0.00    +0.000 OA
ATOM     26  C   UNL     1       7.856   5.509  12.768  0.00  0.00    +0.000 C 
ENDBRANCH  20  25
BRANCH  21  27
ATOM     27  O   UNL     1       6.255   3.443  13.360  0.00  0.00    +0.000 OA
ATOM     28  C   UNL     1       5.108   3.421  12.519  0.00  0.00    +0.000 C 
ENDBRANCH  21  27
ENDBRANCH  15  17
ENDBRANCH   1  15
TORSDOF 9
ENDMDL
MODEL 3
REMARK VINA RESULT:      -7.2      0.531      2.339
REMARK  Name = 
REMARK  13 active torsions:
REMARK  status: ('A' for Active; 'I' for Inactive)
REMARK    1  A    between atoms: C_1  and  O_2
REMARK    2  A    between atoms: O_2  and  C_3
REMARK    3  A    between atoms: C_5  and  C_6
REMARK    4  A    between atoms: C_7  and  N_8
REMARK    5  A    between atoms: C_13  and  O_14
REMARK    6  A    between atoms: O_14  and  C_15
REMARK    7  A    between atoms: C_15  and  C_17
REMARK    8  A    between atoms: C_19  and  O_20
REMARK    9  A    between atoms: O_20  and  C_21
REMARK   10  A    between atoms: C_22  and  O_23
REMARK   11  A    between atoms: O_23  and  C_24
REMARK   12  A    between atoms: C_25  and  O_26
REMARK   13  A    between atoms: O_26  and  C_27
REMARK                            x       y       z     vdW  Elec       q    Type
REMARK                         _______ _______ _______ _____ _____    ______ ____
ROOT
ATOM      1  O   UNL     1       2.359   3.761  18.048  0.00  0.00    +0.000 OA
ENDROOT
BRANCH   1   7
ATOM      2  C   UNL     1       1.556   4.710  20.144  0.00  0.00    +0.000 A 
ATOM      3  C   UNL     1       1.374   5.844  20.938  0.00  0.00    +0.000 A 
ATOM      4  C   UNL     1       1.628   7.139  20.449  0.00  0.00    +0.000 A 
ATOM      5  C   UNL     1       2.155   7.273  19.163  0.00  0.00    +0.000 A 
ATOM      6  C   UNL     1       2.371   6.150  18.370  0.00  0.00    +0.000 A 
ATOM      7  C   UNL     1       2.040   4.874  18.843  0.00  0.00    +0.000 A 
BRANCH   2   9
ATOM      8  C   UNL     1       2.247   3.020  21.673  0.00  0.00    +0.000 C 
ATOM      9  O   UNL     1       1.267   3.535  20.783  0.00  0.00    +0.000 OA
ENDBRANCH   2   9
BRANCH   4  10
ATOM     10  C   UNL     1       1.349   8.299  21.306  0.00  0.00    +0.000 C 
ATOM     11  C   UNL     1       0.106   8.652  21.662  0.00  0.00    +0.000 C 
BRANCH  11  12
ATOM     12  N   UNL     1      -0.105   9.755  22.556  0.00  0.00    +0.000 N 
ATOM     13  O   UNL     1      -0.810  10.709  22.187  0.00  0.00    +0.000 OA
ATOM     14  O   UNL     1       0.455   9.677  23.658  0.00  0.00    +0.000 OA
ENDBRANCH  11  12
ENDBRANCH   4  10
ENDBRANCH   1   7
BRANCH   1  15
ATOM     15  C   UNL     1       3.607   3.198  18.239  0.00  0.00    +0.000 C 
ATOM     16  O   UNL     1       3.854   2.065  18.619  0.00  0.00    +0.000 OA
BRANCH  15  17
ATOM     17  C   UNL     1       4.658   4.160  17.813  0.00  0.00    +0.000 A 
ATOM     18  C   UNL     1       5.452   4.717  18.812  0.00  0.00    +0.000 A 
ATOM     19  C   UNL     1       6.525   5.548  18.487  0.00  0.00    +0.000 A 
ATOM     20  C   UNL     1       6.799   5.849  17.130  0.00  0.00    +0.000 A 
ATOM     21  C   UNL     1       5.960   5.325  16.119  0.00  0.00    +0.000 A 
ATOM     22  C   UNL     1       4.905   4.473  16.474  0.00  0.00    +0.000 A 
BRANCH  19  23
ATOM     23  O   UNL     1       7.330   6.112  19.452  0.00  0.00    +0.000 OA
ATOM     24  C   UNL     1       8.300   5.243  20.040  0.00  0.00    +0.000 C 
ENDBRANCH  19  23
BRANCH  20  25
ATOM     25  O   UNL     1       7.875   6.683  16.916  0.00  0.00    +0.000 OA
ATOM     26  C   UNL     1       7.732   8.042  17.328  0.00  0.00    +0.000 C 
ENDBRANCH  20  25
BRANCH  21  27
ATOM     27  O   UNL     1       6.199   5.696  14.822  0.00  0.00    +0.000 OA
ATOM     28  C   UNL     1       6.928   4.810  13.983  0.00  0.00    +0.000 C 
ENDBRANCH  21  27
ENDBRANCH  15  17
ENDBRANCH   1  15
TORSDOF 9
ENDMDL
MODEL 4
REMARK VINA RESULT:      -6.9      3.258      7.720
REMARK  Name = 
REMARK  13 active torsions:
REMARK  status: ('A' for Active; 'I' for Inactive)
REMARK    1  A    between atoms: C_1  and  O_2
REMARK    2  A    between atoms: O_2  and  C_3
REMARK    3  A    between atoms: C_5  and  C_6
REMARK    4  A    between atoms: C_7  and  N_8
REMARK    5  A    between atoms: C_13  and  O_14
REMARK    6  A    between atoms: O_14  and  C_15
REMARK    7  A    between atoms: C_15  and  C_17
REMARK    8  A    between atoms: C_19  and  O_20
REMARK    9  A    between atoms: O_20  and  C_21
REMARK   10  A    between atoms: C_22  and  O_23
REMARK   11  A    between atoms: O_23  and  C_24
REMARK   12  A    between atoms: C_25  and  O_26
REMARK   13  A    between atoms: O_26  and  C_27
REMARK                            x       y       z     vdW  Elec       q    Type
REMARK                         _______ _______ _______ _____ _____    ______ ____
ROOT
ATOM      1  O   UNL     1       3.835   6.078  19.448  0.00  0.00    +0.000 OA
ENDROOT
BRANCH   1   7
ATOM      2  C   UNL     1       4.529   4.268  17.973  0.00  0.00    +0.000 A 
ATOM      3  C   UNL     1       5.025   3.878  16.726  0.00  0.00    +0.000 A 
ATOM      4  C   UNL     1       5.468   4.820  15.779  0.00  0.00    +0.000 A 
ATOM      5  C   UNL     1       5.326   6.177  16.073  0.00  0.00    +0.000 A 
ATOM      6  C   UNL     1       4.805   6.582  17.299  0.00  0.00    +0.000 A 
ATOM      7  C   UNL     1       4.440   5.632  18.262  0.00  0.00    +0.000 A 
BRANCH   2   9
ATOM      8  C   UNL     1       3.815   2.000  18.114  0.00  0.00    +0.000 C 
ATOM      9  O   UNL     1       4.139   3.221  18.763  0.00  0.00    +0.000 OA
ENDBRANCH   2   9
BRANCH   4  10
ATOM     10  C   UNL     1       6.048   4.349  14.515  0.00  0.00    +0.000 C 
ATOM     11  C   UNL     1       5.318   3.748  13.565  0.00  0.00    +0.000 C 
BRANCH  11  12
ATOM     12  N   UNL     1       5.922   3.369  12.319  0.00  0.00    +0.000 N 
ATOM     13  O   UNL     1       6.964   3.938  11.952  0.00  0.00    +0.000 OA
ATOM     14  O   UNL     1       5.338   2.484  11.679  0.00  0.00    +0.000 OA
ENDBRANCH  11  12
ENDBRANCH   4  10
ENDBRANCH   1   7
BRANCH   1  15
ATOM     15  C   UNL     1       2.453   6.124  19.460  0.00  0.00    +0.000 C 
ATOM     16  O   UNL     1       1.684   5.190  19.297  0.00  0.00    +0.000 OA
BRANCH  15  17
ATOM     17  C   UNL     1       2.002   7.496  19.809  0.00  0.00    +0.000 A 
ATOM     18  C   UNL     1       1.865   8.405  18.763  0.00  0.00    +0.000 A 
ATOM     19  C   UNL     1       1.349   9.681  18.991  0.00  0.00    +0.000 A 
ATOM     20  C   UNL     1       0.982  10.069  20.303  0.00  0.00    +0.000 A 
ATOM     21  C   UNL     1       1.172   9.165  21.374  0.00  0.00    +0.000 A 
ATOM     22  C   UNL     1       1.668   7.881  21.110  0.00  0.00    +0.000 A 
BRANCH  19  23
ATOM     23  O   UNL     1       1.199  10.601  17.976  0.00  0.00    +0.000 OA
ATOM     24  C   UNL     1       2.252  11.558  17.842  0.00  0.00    +0.000 C 
ENDBRANCH  19  23
BRANCH  20  25
ATOM     25  O   UNL     1       0.491  11.352  20.424  0.00  0.00    +0.000 OA
ATOM     26  C   UNL     1      -0.923  11.514  20.331  0.00  0.00    +0.000 C 
ENDBRANCH  20  25
BRANCH  21  27
ATOM     27  O   UNL     1       0.884   9.594  22.643  0.00  0.00    +0.000 OA
ATOM     28  C   UNL     1      -0.409   9.331  23.175  0.00  0.00    +0.000 C 
ENDBRANCH  21  27
ENDBRANCH  15  17
ENDBRANCH   1  15
TORSDOF 9
ENDMDL
MODEL 5
REMARK VINA RESULT:      -6.9      1.419      2.050
REMARK  Name = 
REMARK  13 active torsions:
REMARK  status: ('A' for Active; 'I' for Inactive)
REMARK    1  A    between atoms: C_1  and  O_2
REMARK    2  A    between atoms: O_2  and  C_3
REMARK    3  A    between atoms: C_5  and  C_6
REMARK    4  A    between atoms: C_7  and  N_8
REMARK    5  A    between atoms: C_13  and  O_14
REMARK    6  A    between atoms: O_14  and  C_15
REMARK    7  A    between atoms: C_15  and  C_17
REMARK    8  A    between atoms: C_19  and  O_20
REMARK    9  A    between atoms: O_20  and  C_21
REMARK   10  A    between atoms: C_22  and  O_23
REMARK   11  A    between atoms: O_23  and  C_24
REMARK   12  A    between atoms: C_25  and  O_26
REMARK   13  A    between atoms: O_26  and  C_27
REMARK                            x       y       z     vdW  Elec       q    Type
REMARK                         _______ _______ _______ _____ _____    ______ ____
ROOT
ATOM      1  O   UNL     1       3.859   4.567  18.745  0.00  0.00    +0.000 OA
ENDROOT
BRANCH   1   7
ATOM      2  C   UNL     1       2.333   5.359  20.471  0.00  0.00    +0.000 A 
ATOM      3  C   UNL     1       1.601   6.420  21.011  0.00  0.00    +0.000 A 
ATOM      4  C   UNL     1       1.501   7.660  20.353  0.00  0.00    +0.000 A 
ATOM      5  C   UNL     1       2.225   7.848  19.174  0.00  0.00    +0.000 A 
ATOM      6  C   UNL     1       2.984   6.811  18.640  0.00  0.00    +0.000 A 
ATOM      7  C   UNL     1       3.010   5.557  19.264  0.00  0.00    +0.000 A 
BRANCH   2   9
ATOM      8  C   UNL     1       1.454   3.179  20.858  0.00  0.00    +0.000 C 
ATOM      9  O   UNL     1       2.326   4.232  21.247  0.00  0.00    +0.000 OA
ENDBRANCH   2   9
BRANCH   4  10
ATOM     10  C   UNL     1       0.659   8.714  20.932  0.00  0.00    +0.000 C 
ATOM     11  C   UNL     1       0.976   9.350  22.068  0.00  0.00    +0.000 C 
BRANCH  11  12
ATOM     12  N   UNL     1       0.150  10.420  22.554  0.00  0.00    +0.000 N 
ATOM     13  O   UNL     1       0.226  11.537  22.015  0.00  0.00    +0.000 OA
ATOM     14  O   UNL     1      -0.590  10.146  23.508  0.00  0.00    +0.000 OA
ENDBRANCH  11  12
ENDBRANCH   4  10
ENDBRANCH   1   7
BRANCH   1  15
ATOM     15  C   UNL     1       3.673   4.224  17.418  0.00  0.00    +0.000 C 
ATOM     16  O   UNL     1       2.642   3.831  16.897  0.00  0.00    +0.000 OA
BRANCH  15  17
ATOM     17  C   UNL     1       4.917   4.498  16.653  0.00  0.00    +0.000 A 
ATOM     18  C   UNL     1       5.113   3.774  15.480  0.00  0.00    +0.000 A 
ATOM     19  C   UNL     1       6.203   4.044  14.650  0.00  0.00    +0.000 A 
ATOM     20  C   UNL     1       7.135   5.047  15.015  0.00  0.00    +0.000 A 
ATOM     21  C   UNL     1       6.965   5.744  16.233  0.00  0.00    +0.000 A 
ATOM     22  C   UNL     1       5.847   5.470  17.032  0.00  0.00    +0.000 A 
BRANCH  19  23
ATOM     23  O   UNL     1       6.423   3.348  13.482  0.00  0.00    +0.000 OA
ATOM     24  C   UNL     1       5.333   3.322  12.558  0.00  0.00    +0.000 C 
ENDBRANCH  19  23
BRANCH  20  25
ATOM     25  O   UNL     1       8.179   5.231  14.133  0.00  0.00    +0.000 OA
ATOM     26  C   UNL     1       7.882   5.900  12.909  0.00  0.00    +0.000 C 
ENDBRANCH  20  25
BRANCH  21  27
ATOM     27  O   UNL     1       7.923   6.653  16.600  0.00  0.00    +0.000 OA
ATOM     28  C   UNL     1       7.582   7.659  17.546  0.00  0.00    +0.000 C 
ENDBRANCH  21  27
ENDBRANCH  15  17
ENDBRANCH   1  15
TORSDOF 9
ENDMDL
MODEL 6
REMARK VINA RESULT:      -6.8      3.088      4.719
REMARK  Name = 
REMARK  13 active torsions:
REMARK  status: ('A' for Active; 'I' for Inactive)
REMARK    1  A    between atoms: C_1  and  O_2
REMARK    2  A    between atoms: O_2  and  C_3
REMARK    3  A    between atoms: C_5  and  C_6
REMARK    4  A    between atoms: C_7  and  N_8
REMARK    5  A    between atoms: C_13  and  O_14
REMARK    6  A    between atoms: O_14  and  C_15
REMARK    7  A    between atoms: C_15  and  C_17
REMARK    8  A    between atoms: C_19  and  O_20
REMARK    9  A    between atoms: O_20  and  C_21
REMARK   10  A    between atoms: C_22  and  O_23
REMARK   11  A    between atoms: O_23  and  C_24
REMARK   12  A    between atoms: C_25  and  O_26
REMARK   13  A    between atoms: O_26  and  C_27
REMARK                            x       y       z     vdW  Elec       q    Type
REMARK                         _______ _______ _______ _____ _____    ______ ____
ROOT
ATOM      1  O   UNL     1       2.537   7.923  19.699  0.00  0.00    +0.000 OA
ENDROOT
BRANCH   1   7
ATOM      2  C   UNL     1       0.622   9.182  20.527  0.00  0.00    +0.000 A 
ATOM      3  C   UNL     1      -0.440  10.045  20.247  0.00  0.00    +0.000 A 
ATOM      4  C   UNL     1      -0.780  10.396  18.928  0.00  0.00    +0.000 A 
ATOM      5  C   UNL     1       0.026   9.931  17.887  0.00  0.00    +0.000 A 
ATOM      6  C   UNL     1       1.107   9.095  18.152  0.00  0.00    +0.000 A 
ATOM      7  C   UNL     1       1.385   8.691  19.464  0.00  0.00    +0.000 A 
BRANCH   2   9
ATOM      8  C   UNL     1      -0.132   9.522  22.761  0.00  0.00    +0.000 C 
ATOM      9  O   UNL     1       0.812   8.955  21.863  0.00  0.00    +0.000 OA
ENDBRANCH   2   9
BRANCH   4  10
ATOM     10  C   UNL     1      -1.952  11.249  18.690  0.00  0.00    +0.000 C 
ATOM     11  C   UNL     1      -3.058  10.803  18.078  0.00  0.00    +0.000 C 
BRANCH  11  12
ATOM     12  N   UNL     1      -4.200  11.661  17.931  0.00  0.00    +0.000 N 
ATOM     13  O   UNL     1      -4.730  12.144  18.946  0.00  0.00    +0.000 OA
ATOM     14  O   UNL     1      -4.590  11.854  16.772  0.00  0.00    +0.000 OA
ENDBRANCH  11  12
ENDBRANCH   4  10
ENDBRANCH   1   7
BRANCH   1  15
ATOM     15  C   UNL     1       2.364   6.554  19.781  0.00  0.00    +0.000 C 
ATOM     16  O   UNL     1       1.578   5.952  20.495  0.00  0.00    +0.000 OA
BRANCH  15  17
ATOM     17  C   UNL     1       3.226   5.881  18.774  0.00  0.00    +0.000 A 
ATOM     18  C   UNL     1       4.169   6.668  18.119  0.00  0.00    +0.000 A 
ATOM     19  C   UNL     1       5.085   6.095  17.236  0.00  0.00    +0.000 A 
ATOM     20  C   UNL     1       5.043   4.702  16.982  0.00  0.00    +0.000 A 
ATOM     21  C   UNL     1       4.050   3.912  17.606  0.00  0.00    +0.000 A 
ATOM     22  C   UNL     1       3.160   4.511  18.508  0.00  0.00    +0.000 A 
BRANCH  19  23
ATOM     23  O   UNL     1       6.032   6.847  16.575  0.00  0.00    +0.000 OA
ATOM     24  C   UNL     1       7.177   7.222  17.345  0.00  0.00    +0.000 C 
ENDBRANCH  19  23
BRANCH  20  25
ATOM     25  O   UNL     1       5.984   4.236  16.089  0.00  0.00    +0.000 OA
ATOM     26  C   UNL     1       5.616   4.219  14.711  0.00  0.00    +0.000 C 
ENDBRANCH  20  25
BRANCH  21  27
ATOM     27  O   UNL     1       3.980   2.582  17.281  0.00  0.00    +0.000 OA
ATOM     28  C   UNL     1       3.481   1.669  18.251  0.00  0.00    +0.000 C 
ENDBRANCH  21  27
ENDBRANCH  15  17
ENDBRANCH   1  15
TORSDOF 9
ENDMDL
MODEL 7
REMARK VINA RESULT:      -6.7      1.090      2.577
REMARK  Name = 
REMARK  13 active torsions:
REMARK  status: ('A' for Active; 'I' for Inactive)
REMARK    1  A    between atoms: C_1  and  O_2
REMARK    2  A    between atoms: O_2  and  C_3
REMARK    3  A    between atoms: C_5  and  C_6
REMARK    4  A    between atoms: C_7  and  N_8
REMARK    5  A    between atoms: C_13  and  O_14
REMARK    6  A    between atoms: O_14  and  C_15
REMARK    7  A    between atoms: C_15  and  C_17
REMARK    8  A    between atoms: C_19  and  O_20
REMARK    9  A    between atoms: O_20  and  C_21
REMARK   10  A    between atoms: C_22  and  O_23
REMARK   11  A    between atoms: O_23  and  C_24
REMARK   12  A    between atoms: C_25  and  O_26
REMARK   13  A    between atoms: O_26  and  C_27
REMARK                            x       y       z     vdW  Elec       q    Type
REMARK                         _______ _______ _______ _____ _____    ______ ____
ROOT
ATOM      1  O   UNL     1       1.915   3.120  17.908  0.00  0.00    +0.000 OA
ENDROOT
BRANCH   1   7
ATOM      2  C   UNL     1       1.365   4.227  20.008  0.00  0.00    +0.000 A 
ATOM      3  C   UNL     1       1.354   5.404  20.760  0.00  0.00    +0.000 A 
ATOM      4  C   UNL     1       1.696   6.646  20.195  0.00  0.00    +0.000 A 
ATOM      5  C   UNL     1       2.138   6.676  18.872  0.00  0.00    +0.000 A 
ATOM      6  C   UNL     1       2.185   5.507  18.118  0.00  0.00    +0.000 A 
ATOM      7  C   UNL     1       1.766   4.290  18.671  0.00  0.00    +0.000 A 
BRANCH   2   9
ATOM      8  C   UNL     1       1.911   2.668  21.724  0.00  0.00    +0.000 C 
ATOM      9  O   UNL     1       1.010   3.113  20.720  0.00  0.00    +0.000 OA
ENDBRANCH   2   9
BRANCH   4  10
ATOM     10  C   UNL     1       1.595   7.861  21.015  0.00  0.00    +0.000 C 
ATOM     11  C   UNL     1       0.430   8.308  21.504  0.00  0.00    +0.000 C 
BRANCH  11  12
ATOM     12  N   UNL     1       0.398   9.464  22.356  0.00  0.00    +0.000 N 
ATOM     13  O   UNL     1       1.342   9.667  23.137  0.00  0.00    +0.000 OA
ATOM     14  O   UNL     1      -0.602  10.187  22.253  0.00  0.00    +0.000 OA
ENDBRANCH  11  12
ENDBRANCH   4  10
ENDBRANCH   1   7
BRANCH   1  15
ATOM     15  C   UNL     1       3.105   2.432  18.055  0.00  0.00    +0.000 C 
ATOM     16  O   UNL     1       3.253   1.301  18.489  0.00  0.00    +0.000 OA
BRANCH  15  17
ATOM     17  C   UNL     1       4.221   3.242  17.501  0.00  0.00    +0.000 A 
ATOM     18  C   UNL     1       5.246   3.592  18.376  0.00  0.00    +0.000 A 
ATOM     19  C   UNL     1       6.380   4.263  17.914  0.00  0.00    +0.000 A 
ATOM     20  C   UNL     1       6.482   4.613  16.545  0.00  0.00    +0.000 A 
ATOM     21  C   UNL     1       5.417   4.305  15.667  0.00  0.00    +0.000 A 
ATOM     22  C   UNL     1       4.303   3.608  16.155  0.00  0.00    +0.000 A 
BRANCH  19  23
ATOM     23  O   UNL     1       7.411   4.620  18.754  0.00  0.00    +0.000 OA
ATOM     24  C   UNL     1       7.128   5.679  19.672  0.00  0.00    +0.000 C 
ENDBRANCH  19  23
BRANCH  20  25
ATOM     25  O   UNL     1       7.635   5.279  16.190  0.00  0.00    +0.000 OA
ATOM     26  C   UNL     1       7.626   6.700  16.314  0.00  0.00    +0.000 C 
ENDBRANCH  20  25
BRANCH  21  27
ATOM     27  O   UNL     1       5.506   4.726  14.366  0.00  0.00    +0.000 OA
ATOM     28  C   UNL     1       6.029   3.829  13.394  0.00  0.00    +0.000 C 
ENDBRANCH  21  27
ENDBRANCH  15  17
ENDBRANCH   1  15
TORSDOF 9
ENDMDL
MODEL 8
REMARK VINA RESULT:      -6.7      3.354      8.558
REMARK  Name = 
REMARK  13 active torsions:
REMARK  status: ('A' for Active; 'I' for Inactive)
REMARK    1  A    between atoms: C_1  and  O_2
REMARK    2  A    between atoms: O_2  and  C_3
REMARK    3  A    between atoms: C_5  and  C_6
REMARK    4  A    between atoms: C_7  and  N_8
REMARK    5  A    between atoms: C_13  and  O_14
REMARK    6  A    between atoms: O_14  and  C_15
REMARK    7  A    between atoms: C_15  and  C_17
REMARK    8  A    between atoms: C_19  and  O_20
REMARK    9  A    between atoms: O_20  and  C_21
REMARK   10  A    between atoms: C_22  and  O_23
REMARK   11  A    between atoms: O_23  and  C_24
REMARK   12  A    between atoms: C_25  and  O_26
REMARK   13  A    between atoms: O_26  and  C_27
REMARK                            x       y       z     vdW  Elec       q    Type
REMARK                         _______ _______ _______ _____ _____    ______ ____
ROOT
ATOM      1  O   UNL     1       0.747   7.886  20.628  0.00  0.00    +0.000 OA
ENDROOT
BRANCH   1   7
ATOM      2  C   UNL     1       2.335   6.108  20.122  0.00  0.00    +0.000 A 
ATOM      3  C   UNL     1       3.308   5.598  19.259  0.00  0.00    +0.000 A 
ATOM      4  C   UNL     1       3.798   6.346  18.172  0.00  0.00    +0.000 A 
ATOM      5  C   UNL     1       3.228   7.593  17.911  0.00  0.00    +0.000 A 
ATOM      6  C   UNL     1       2.235   8.102  18.743  0.00  0.00    +0.000 A 
ATOM      7  C   UNL     1       1.813   7.380  19.867  0.00  0.00    +0.000 A 
BRANCH   2   9
ATOM      8  C   UNL     1       1.669   3.908  20.744  0.00  0.00    +0.000 C 
ATOM      9  O   UNL     1       1.973   5.244  21.119  0.00  0.00    +0.000 OA
ENDBRANCH   2   9
BRANCH   4  10
ATOM     10  C   UNL     1       4.873   5.787  17.343  0.00  0.00    +0.000 C 
ATOM     11  C   UNL     1       6.169   6.051  17.564  0.00  0.00    +0.000 C 
BRANCH  11  12
ATOM     12  N   UNL     1       7.183   5.424  16.764  0.00  0.00    +0.000 N 
ATOM     13  O   UNL     1       7.832   4.478  17.239  0.00  0.00    +0.000 OA
ATOM     14  O   UNL     1       7.347   5.894  15.630  0.00  0.00    +0.000 OA
ENDBRANCH  11  12
ENDBRANCH   4  10
ENDBRANCH   1   7
BRANCH   1  15
ATOM     15  C   UNL     1       1.042   8.912  21.505  0.00  0.00    +0.000 C 
ATOM     16  O   UNL     1       1.954   8.949  22.315  0.00  0.00    +0.000 OA
BRANCH  15  17
ATOM     17  C   UNL     1       0.127  10.058  21.260  0.00  0.00    +0.000 A 
ATOM     18  C   UNL     1      -0.197  10.338  19.935  0.00  0.00    +0.000 A 
ATOM     19  C   UNL     1      -1.129  11.329  19.624  0.00  0.00    +0.000 A 
ATOM     20  C   UNL     1      -1.736  12.077  20.664  0.00  0.00    +0.000 A 
ATOM     21  C   UNL     1      -1.366  11.828  22.006  0.00  0.00    +0.000 A 
ATOM     22  C   UNL     1      -0.447  10.809  22.288  0.00  0.00    +0.000 A 
BRANCH  19  23
ATOM     23  O   UNL     1      -1.473  11.628  18.324  0.00  0.00    +0.000 OA
ATOM     24  C   UNL     1      -2.137  10.589  17.601  0.00  0.00    +0.000 C 
ENDBRANCH  19  23
BRANCH  20  25
ATOM     25  O   UNL     1      -2.636  13.037  20.252  0.00  0.00    +0.000 OA
ATOM     26  C   UNL     1      -4.019  12.692  20.306  0.00  0.00    +0.000 C 
ENDBRANCH  20  25
BRANCH  21  27
ATOM     27  O   UNL     1      -1.908  12.619  22.985  0.00  0.00    +0.000 OA
ATOM     28  C   UNL     1      -1.201  13.787  23.387  0.00  0.00    +0.000 C 
ENDBRANCH  21  27
ENDBRANCH  15  17
ENDBRANCH   1  15
TORSDOF 9
ENDMDL
MODEL 9
REMARK VINA RESULT:      -6.7      3.169      6.095
REMARK  Name = 
REMARK  13 active torsions:
REMARK  status: ('A' for Active; 'I' for Inactive)
REMARK    1  A    between atoms: C_1  and  O_2
REMARK    2  A    between atoms: O_2  and  C_3
REMARK    3  A    between atoms: C_5  and  C_6
REMARK    4  A    between atoms: C_7  and  N_8
REMARK    5  A    between atoms: C_13  and  O_14
REMARK    6  A    between atoms: O_14  and  C_15
REMARK    7  A    between atoms: C_15  and  C_17
REMARK    8  A    between atoms: C_19  and  O_20
REMARK    9  A    between atoms: O_20  and  C_21
REMARK   10  A    between atoms: C_22  and  O_23
REMARK   11  A    between atoms: O_23  and  C_24
REMARK   12  A    between atoms: C_25  and  O_26
REMARK   13  A    between atoms: O_26  and  C_27
REMARK                            x       y       z     vdW  Elec       q    Type
REMARK                         _______ _______ _______ _____ _____    ______ ____
ROOT
ATOM      1  O   UNL     1       1.866  10.125  19.447  0.00  0.00    +0.000 OA
ENDROOT
BRANCH   1   7
ATOM      2  C   UNL     1       0.055  11.591  20.158  0.00  0.00    +0.000 A 
ATOM      3  C   UNL     1      -0.931  11.885  21.103  0.00  0.00    +0.000 A 
ATOM      4  C   UNL     1      -1.027  11.178  22.316  0.00  0.00    +0.000 A 
ATOM      5  C   UNL     1      -0.162  10.104  22.530  0.00  0.00    +0.000 A 
ATOM      6  C   UNL     1       0.806   9.779  21.584  0.00  0.00    +0.000 A 
ATOM      7  C   UNL     1       0.940  10.541  20.417  0.00  0.00    +0.000 A 
BRANCH   2   9
ATOM      8  C   UNL     1      -1.224  12.376  18.308  0.00  0.00    +0.000 C 
ATOM      9  O   UNL     1      -0.005  12.373  19.037  0.00  0.00    +0.000 OA
ENDBRANCH   2   9
BRANCH   4  10
ATOM     10  C   UNL     1      -2.037  11.579  23.304  0.00  0.00    +0.000 C 
ATOM     11  C   UNL     1      -2.870  12.611  23.107  0.00  0.00    +0.000 C 
BRANCH  11  12
ATOM     12  N   UNL     1      -3.884  12.917  24.077  0.00  0.00    +0.000 N 
ATOM     13  O   UNL     1      -4.624  12.008  24.488  0.00  0.00    +0.000 OA
ATOM     14  O   UNL     1      -3.954  14.101  24.434  0.00  0.00    +0.000 OA
ENDBRANCH  11  12
ENDBRANCH   4  10
ENDBRANCH   1   7
BRANCH   1  15
ATOM     15  C   UNL     1       1.428   9.185  18.532  0.00  0.00    +0.000 C 
ATOM     16  O   UNL     1       0.514   9.306  17.733  0.00  0.00    +0.000 OA
BRANCH  15  17
ATOM     17  C   UNL     1       2.313   7.992  18.581  0.00  0.00    +0.000 A 
ATOM     18  C   UNL     1       2.077   7.068  19.596  0.00  0.00    +0.000 A 
ATOM     19  C   UNL     1       2.794   5.872  19.651  0.00  0.00    +0.000 A 
ATOM     20  C   UNL     1       3.790   5.602  18.680  0.00  0.00    +0.000 A 
ATOM     21  C   UNL     1       4.066   6.564  17.681  0.00  0.00    +0.000 A 
ATOM     22  C   UNL     1       3.312   7.745  17.636  0.00  0.00    +0.000 A 
BRANCH  19  23
ATOM     23  O   UNL     1       2.582   4.937  20.640  0.00  0.00    +0.000 OA
ATOM     24  C   UNL     1       1.352   4.214  20.560  0.00  0.00    +0.000 C 
ENDBRANCH  19  23
BRANCH  20  25
ATOM     25  O   UNL     1       4.446   4.398  18.826  0.00  0.00    +0.000 OA
ATOM     26  C   UNL     1       4.048   3.335  17.963  0.00  0.00    +0.000 C 
ENDBRANCH  20  25
BRANCH  21  27
ATOM     27  O   UNL     1       5.088   6.313  16.803  0.00  0.00    +0.000 OA
ATOM     28  C   UNL     1       6.380   6.831  17.095  0.00  0.00    +0.000 C 
ENDBRANCH  21  27
ENDBRANCH  15  17
ENDBRANCH   1  15
TORSDOF 9
ENDMDL
