MODEL 1
REMARK VINA RESULT:      -7.3      0.000      0.000
REMARK  Name = 
REMARK  14 active torsions:
REMARK  status: ('A' for Active; 'I' for Inactive)
REMARK    1  A    between atoms: C_1  and  C_2
REMARK    2  A    between atoms: C_2  and  C_3
REMARK    3  A    between atoms: C_5  and  C_6
REMARK    4  A    between atoms: C_6  and  C_7
REMARK    5  A    between atoms: C_9  and  O_10
REMARK    6  A    between atoms: C_12  and  O_13
REMARK    7  A    between atoms: O_13  and  C_14
REMARK    8  A    between atoms: C_14  and  C_15
REMARK    9  A    between atoms: C_19  and  C_20
REMARK   10  A    between atoms: N_22  and  C_23
REMARK   11  A    between atoms: N_22  and  C_25
REMARK   12  A    between atoms: C_23  and  C_24
REMARK   13  A    between atoms: C_25  and  C_26
REMARK   14  A    between atoms: C_26  and  O_27
REMARK                            x       y       z     vdW  Elec       q    Type
REMARK                         _______ _______ _______ _____ _____    ______ ____
ROOT
ATOM      1  C   UNL     1       1.308   6.270  20.696  0.00  0.00    +0.000 C 
ENDROOT
BRANCH   1   2
ATOM      2  C   UNL     1       2.126   5.127  20.123  0.00  0.00    +0.000 A 
ATOM      3  C   UNL     1       1.656   3.821  20.241  0.00  0.00    +0.000 A 
ATOM      4  C   UNL     1       2.529   2.773  19.997  0.00  0.00    +0.000 A 
ATOM      5  C   UNL     1       3.836   3.059  19.616  0.00  0.00    +0.000 A 
ATOM      6  C   UNL     1       4.237   4.387  19.461  0.00  0.00    +0.000 A 
ATOM      7  N   UNL     1       3.405   5.422  19.730  0.00  0.00    +0.000 NA
BRANCH   6   8
ATOM      8  C   UNL     1       5.640   4.624  18.949  0.00  0.00    +0.000 C 
ATOM      9  O   UNL     1       6.514   4.782  19.819  0.00  0.00    +0.000 OA
ATOM     10  N   UNL     1       6.005   4.702  17.594  0.00  0.00    +0.000 N 
BRANCH  10  11
ATOM     11  C   UNL     1       5.149   4.472  16.426  0.00  0.00    +0.000 C 
ATOM     12  C   UNL     1       5.940   4.252  15.145  0.00  0.00    +0.000 C 
ENDBRANCH  10  11
BRANCH  10  13
ATOM     13  C   UNL     1       7.385   5.143  17.308  0.00  0.00    +0.000 C 
BRANCH  13  14
ATOM     14  C   UNL     1       7.660   6.606  17.672  0.00  0.00    +0.000 C 
BRANCH  14  15
ATOM     15  O   UNL     1       7.119   7.501  16.703  0.00  0.00    +0.000 OA
ATOM     16  H   UNL     1       6.597   8.152  17.203  0.00  0.00    +0.000 HD
ENDBRANCH  14  15
ENDBRANCH  13  14
ENDBRANCH  10  13
ENDBRANCH   6   8
ENDBRANCH   1   2
BRANCH   1  17
ATOM     17  O   UNL     1       1.683   7.570  20.213  0.00  0.00    +0.000 OA
BRANCH  17  23
ATOM     18  C   UNL     1       0.520   9.635  19.938  0.00  0.00    +0.000 A 
ATOM     19  C   UNL     1      -0.158  10.749  20.486  0.00  0.00    +0.000 A 
ATOM     20  C   UNL     1      -0.356  10.882  21.864  0.00  0.00    +0.000 A 
ATOM     21  C   UNL     1       0.125   9.854  22.690  0.00  0.00    +0.000 A 
ATOM     22  C   UNL     1       0.780   8.741  22.161  0.00  0.00    +0.000 A 
ATOM     23  C   UNL     1       1.009   8.627  20.789  0.00  0.00    +0.000 A 
BRANCH  20  24
ATOM     24  C   UNL     1      -1.023  12.061  22.490  0.00  0.00    +0.000 C 
ATOM     25  C   UNL     1      -0.499  13.460  22.311  0.00  0.00    +0.000 C 
ATOM     26  O   UNL     1      -2.028  11.873  23.183  0.00  0.00    +0.000 OA
ENDBRANCH  20  24
BRANCH  18  28
ATOM     27  C   UNL     1       1.968  10.517  18.108  0.00  0.00    +0.000 C 
ATOM     28  C   UNL     1       0.782   9.625  18.446  0.00  0.00    +0.000 C 
ENDBRANCH  18  28
BRANCH  21  29
ATOM     29  O   UNL     1       0.012   9.853  24.057  0.00  0.00    +0.000 OA
ATOM     30  H   UNL     1       0.724  10.427  24.411  0.00  0.00    +0.000 HD
ENDBRANCH  21  29
ENDBRANCH  17  23
ENDBRANCH   1  17
TORSDOF 11
ENDMDL
MODEL 2
REMARK VINA RESULT:      -7.2      1.713      2.742
REMARK  Name = 
REMARK  14 active torsions:
REMARK  status: ('A' for Active; 'I' for Inactive)
REMARK    1  A    between atoms: C_1  and  C_2
REMARK    2  A    between atoms: C_2  and  C_3
REMARK    3  A    between atoms: C_5  and  C_6
REMARK    4  A    between atoms: C_6  and  C_7
REMARK    5  A    between atoms: C_9  and  O_10
REMARK    6  A    between atoms: C_12  and  O_13
REMARK    7  A    between atoms: O_13  and  C_14
REMARK    8  A    between atoms: C_14  and  C_15
REMARK    9  A    between atoms: C_19  and  C_20
REMARK   10  A    between atoms: N_22  and  C_23
REMARK   11  A    between atoms: N_22  and  C_25
REMARK   12  A    between atoms: C_23  and  C_24
REMARK   13  A    between atoms: C_25  and  C_26
REMARK   14  A    between atoms: C_26  and  O_27
REMARK                            x       y       z     vdW  Elec       q    Type
REMARK                         _______ _______ _______ _____ _____    ______ ____
ROOT
ATOM      1  C   UNL     1       1.074   5.945  20.677  0.00  0.00    +0.000 C 
ENDROOT
BRANCH   1   2
ATOM      2  C   UNL     1       1.926   4.886  20.001  0.00  0.00    +0.000 A 
ATOM      3  C   UNL     1       1.462   3.574  19.934  0.00  0.00    +0.000 A 
ATOM      4  C   UNL     1       2.354   2.567  19.599  0.00  0.00    +0.000 A 
ATOM      5  C   UNL     1       3.674   2.903  19.315  0.00  0.00    +0.000 A 
ATOM      6  C   UNL     1       4.070   4.241  19.347  0.00  0.00    +0.000 A 
ATOM      7  N   UNL     1       3.218   5.232  19.706  0.00  0.00    +0.000 NA
BRANCH   6   8
ATOM      8  C   UNL     1       5.492   4.545  18.931  0.00  0.00    +0.000 C 
ATOM      9  O   UNL     1       6.297   4.738  19.858  0.00  0.00    +0.000 OA
ATOM     10  N   UNL     1       5.943   4.648  17.604  0.00  0.00    +0.000 N 
BRANCH  10  11
ATOM     11  C   UNL     1       5.180   4.387  16.380  0.00  0.00    +0.000 C 
ATOM     12  C   UNL     1       6.064   4.066  15.185  0.00  0.00    +0.000 C 
ENDBRANCH  10  11
BRANCH  10  13
ATOM     13  C   UNL     1       7.318   5.153  17.413  0.00  0.00    +0.000 C 
BRANCH  13  14
ATOM     14  C   UNL     1       7.483   6.645  17.722  0.00  0.00    +0.000 C 
BRANCH  14  15
ATOM     15  O   UNL     1       6.973   7.461  16.670  0.00  0.00    +0.000 OA
ATOM     16  H   UNL     1       6.856   8.348  17.053  0.00  0.00    +0.000 HD
ENDBRANCH  14  15
ENDBRANCH  13  14
ENDBRANCH  10  13
ENDBRANCH   6   8
ENDBRANCH   1   2
BRANCH   1  17
ATOM     17  O   UNL     1       1.776   7.157  20.999  0.00  0.00    +0.000 OA
BRANCH  17  23
ATOM     18  C   UNL     1       0.282   9.016  21.016  0.00  0.00    +0.000 A 
ATOM     19  C   UNL     1      -0.248  10.176  20.401  0.00  0.00    +0.000 A 
ATOM     20  C   UNL     1       0.216  10.626  19.161  0.00  0.00    +0.000 A 
ATOM     21  C   UNL     1       1.249   9.897  18.552  0.00  0.00    +0.000 A 
ATOM     22  C   UNL     1       1.792   8.762  19.154  0.00  0.00    +0.000 A 
ATOM     23  C   UNL     1       1.304   8.292  20.375  0.00  0.00    +0.000 A 
BRANCH  20  24
ATOM     24  C   UNL     1      -0.345  11.815  18.455  0.00  0.00    +0.000 C 
ATOM     25  C   UNL     1      -1.740  11.820  17.890  0.00  0.00    +0.000 C 
ATOM     26  O   UNL     1       0.367  12.816  18.326  0.00  0.00    +0.000 OA
ENDBRANCH  20  24
BRANCH  18  28
ATOM     27  C   UNL     1      -0.142   9.567  23.411  0.00  0.00    +0.000 C 
ATOM     28  C   UNL     1      -0.352   8.542  22.307  0.00  0.00    +0.000 C 
ENDBRANCH  18  28
BRANCH  21  29
ATOM     29  O   UNL     1       1.795  10.214  17.335  0.00  0.00    +0.000 OA
ATOM     30  H   UNL     1       1.456   9.565  16.682  0.00  0.00    +0.000 HD
ENDBRANCH  21  29
ENDBRANCH  17  23
ENDBRANCH   1  17
TORSDOF 11
ENDMDL
MODEL 3
REMARK VINA RESULT:      -7.0      3.443      8.269
REMARK  Name = 
REMARK  14 active torsions:
REMARK  status: ('A' for Active; 'I' for Inactive)
REMARK    1  A    between atoms: C_1  and  C_2
REMARK    2  A    between atoms: C_2  and  C_3
REMARK    3  A    between atoms: C_5  and  C_6
REMARK    4  A    between atoms: C_6  and  C_7
REMARK    5  A    between atoms: C_9  and  O_10
REMARK    6  A    between atoms: C_12  and  O_13
REMARK    7  A    between atoms: O_13  and  C_14
REMARK    8  A    between atoms: C_14  and  C_15
REMARK    9  A    between atoms: C_19  and  C_20
REMARK   10  A    between atoms: N_22  and  C_23
REMARK   11  A    between atoms: N_22  and  C_25
REMARK   12  A    between atoms: C_23  and  C_24
REMARK   13  A    between atoms: C_25  and  C_26
REMARK   14  A    between atoms: C_26  and  O_27
REMARK                            x       y       z     vdW  Elec       q    Type
REMARK                         _______ _______ _______ _____ _____    ______ ____
ROOT
ATOM      1  C   UNL     1       0.983   8.155  21.737  0.00  0.00    +0.000 C 
ENDROOT
BRANCH   1   2
ATOM      2  C   UNL     1       0.507   9.585  21.915  0.00  0.00    +0.000 A 
ATOM      3  C   UNL     1      -0.352   9.896  22.967  0.00  0.00    +0.000 A 
ATOM      4  C   UNL     1      -1.017  11.111  22.949  0.00  0.00    +0.000 A 
ATOM      5  C   UNL     1      -0.785  11.991  21.897  0.00  0.00    +0.000 A 
ATOM      6  C   UNL     1       0.127  11.649  20.896  0.00  0.00    +0.000 A 
ATOM      7  N   UNL     1       0.758  10.450  20.884  0.00  0.00    +0.000 NA
BRANCH   6   8
ATOM      8  C   UNL     1       0.406  12.692  19.837  0.00  0.00    +0.000 C 
ATOM      9  O   UNL     1      -0.197  12.544  18.761  0.00  0.00    +0.000 OA
ATOM     10  N   UNL     1       1.298  13.769  19.978  0.00  0.00    +0.000 N 
BRANCH  10  11
ATOM     11  C   UNL     1       2.043  14.160  21.178  0.00  0.00    +0.000 C 
ATOM     12  C   UNL     1       1.343  15.242  21.986  0.00  0.00    +0.000 C 
ENDBRANCH  10  11
BRANCH  10  13
ATOM     13  C   UNL     1       1.580  14.553  18.757  0.00  0.00    +0.000 C 
BRANCH  13  14
ATOM     14  C   UNL     1       2.840  14.107  18.008  0.00  0.00    +0.000 C 
BRANCH  14  15
ATOM     15  O   UNL     1       2.634  12.877  17.315  0.00  0.00    +0.000 OA
ATOM     16  H   UNL     1       1.951  12.399  17.817  0.00  0.00    +0.000 HD
ENDBRANCH  14  15
ENDBRANCH  13  14
ENDBRANCH  10  13
ENDBRANCH   6   8
ENDBRANCH   1   2
BRANCH   1  17
ATOM     17  O   UNL     1       1.864   7.956  20.620  0.00  0.00    +0.000 OA
BRANCH  17  23
ATOM     18  C   UNL     1       2.427   6.493  18.822  0.00  0.00    +0.000 A 
ATOM     19  C   UNL     1       2.442   5.201  18.243  0.00  0.00    +0.000 A 
ATOM     20  C   UNL     1       1.918   4.091  18.914  0.00  0.00    +0.000 A 
ATOM     21  C   UNL     1       1.393   4.298  20.198  0.00  0.00    +0.000 A 
ATOM     22  C   UNL     1       1.387   5.563  20.788  0.00  0.00    +0.000 A 
ATOM     23  C   UNL     1       1.878   6.677  20.104  0.00  0.00    +0.000 A 
BRANCH  20  24
ATOM     24  C   UNL     1       1.871   2.721  18.323  0.00  0.00    +0.000 C 
ATOM     25  C   UNL     1       3.111   2.020  17.840  0.00  0.00    +0.000 C 
ATOM     26  O   UNL     1       0.776   2.158  18.222  0.00  0.00    +0.000 OA
ENDBRANCH  20  24
BRANCH  18  28
ATOM     27  C   UNL     1       4.174   7.264  17.218  0.00  0.00    +0.000 C 
ATOM     28  C   UNL     1       2.919   7.654  17.983  0.00  0.00    +0.000 C 
ENDBRANCH  18  28
BRANCH  21  29
ATOM     29  O   UNL     1       0.839   3.307  20.968  0.00  0.00    +0.000 OA
ATOM     30  H   UNL     1       1.567   2.877  21.463  0.00  0.00    +0.000 HD
ENDBRANCH  21  29
ENDBRANCH  17  23
ENDBRANCH   1  17
TORSDOF 11
ENDMDL
MODEL 4
REMARK VINA RESULT:      -7.0      1.385      1.761
REMARK  Name = 
REMARK  14 active torsions:
REMARK  status: ('A' for Active; 'I' for Inactive)
REMARK    1  A    between atoms: C_1  and  C_2
REMARK    2  A    between atoms: C_2  and  C_3
REMARK    3  A    between atoms: C_5  and  C_6
REMARK    4  A    between atoms: C_6  and  C_7
REMARK    5  A    between atoms: C_9  and  O_10
REMARK    6  A    between atoms: C_12  and  O_13
REMARK    7  A    between atoms: O_13  and  C_14
REMARK    8  A    between atoms: C_14  and  C_15
REMARK    9  A    between atoms: C_19  and  C_20
REMARK   10  A    between atoms: N_22  and  C_23
REMARK   11  A    between atoms: N_22  and  C_25
REMARK   12  A    between atoms: C_23  and  C_24
REMARK   13  A    between atoms: C_25  and  C_26
REMARK   14  A    between atoms: C_26  and  O_27
REMARK                            x       y       z     vdW  Elec       q    Type
REMARK                         _______ _______ _______ _____ _____    ______ ____
ROOT
ATOM      1  C   UNL     1       1.538   5.991  20.757  0.00  0.00    +0.000 C 
ENDROOT
BRANCH   1   2
ATOM      2  C   UNL     1       2.298   4.769  20.275  0.00  0.00    +0.000 A 
ATOM      3  C   UNL     1       2.362   3.638  21.086  0.00  0.00    +0.000 A 
ATOM      4  C   UNL     1       3.293   2.655  20.789  0.00  0.00    +0.000 A 
ATOM      5  C   UNL     1       4.114   2.817  19.677  0.00  0.00    +0.000 A 
ATOM      6  C   UNL     1       3.969   3.947  18.869  0.00  0.00    +0.000 A 
ATOM      7  N   UNL     1       3.087   4.932  19.167  0.00  0.00    +0.000 NA
BRANCH   6   8
ATOM      8  C   UNL     1       4.823   4.012  17.623  0.00  0.00    +0.000 C 
ATOM      9  O   UNL     1       4.533   3.201  16.727  0.00  0.00    +0.000 OA
ATOM     10  N   UNL     1       5.907   4.885  17.429  0.00  0.00    +0.000 N 
BRANCH  10  11
ATOM     11  C   UNL     1       6.360   5.956  18.321  0.00  0.00    +0.000 C 
ATOM     12  C   UNL     1       7.717   5.674  18.947  0.00  0.00    +0.000 C 
ENDBRANCH  10  11
BRANCH  10  13
ATOM     13  C   UNL     1       6.736   4.649  16.229  0.00  0.00    +0.000 C 
BRANCH  13  14
ATOM     14  C   UNL     1       6.163   5.261  14.946  0.00  0.00    +0.000 C 
BRANCH  14  15
ATOM     15  O   UNL     1       5.483   4.289  14.155  0.00  0.00    +0.000 OA
ATOM     16  H   UNL     1       4.634   4.694  13.905  0.00  0.00    +0.000 HD
ENDBRANCH  14  15
ENDBRANCH  13  14
ENDBRANCH  10  13
ENDBRANCH   6   8
ENDBRANCH   1   2
BRANCH   1  17
ATOM     17  O   UNL     1       1.931   7.222  20.129  0.00  0.00    +0.000 OA
BRANCH  17  23
ATOM     18  C   UNL     1       1.008   9.384  19.726  0.00  0.00    +0.000 A 
ATOM     19  C   UNL     1       0.408  10.575  20.199  0.00  0.00    +0.000 A 
ATOM     20  C   UNL     1       0.124  10.764  21.556  0.00  0.00    +0.000 A 
ATOM     21  C   UNL     1       0.435   9.716  22.436  0.00  0.00    +0.000 A 
ATOM     22  C   UNL     1       1.011   8.530  21.980  0.00  0.00    +0.000 A 
ATOM     23  C   UNL     1       1.327   8.356  20.631  0.00  0.00    +0.000 A 
BRANCH  20  24
ATOM     24  C   UNL     1      -0.464  12.021  22.106  0.00  0.00    +0.000 C 
ATOM     25  C   UNL     1       0.077  13.377  21.745  0.00  0.00    +0.000 C 
ATOM     26  O   UNL     1      -1.417  11.935  22.888  0.00  0.00    +0.000 OA
ENDBRANCH  20  24
BRANCH  18  28
ATOM     27  C   UNL     1       2.155  10.546  17.841  0.00  0.00    +0.000 C 
ATOM     28  C   UNL     1       1.377   9.307  18.259  0.00  0.00    +0.000 C 
ENDBRANCH  18  28
BRANCH  21  29
ATOM     29  O   UNL     1       0.223   9.764  23.790  0.00  0.00    +0.000 OA
ATOM     30  H   UNL     1       0.796   9.084  24.201  0.00  0.00    +0.000 HD
ENDBRANCH  21  29
ENDBRANCH  17  23
ENDBRANCH   1  17
TORSDOF 11
ENDMDL
MODEL 5
REMARK VINA RESULT:      -7.0      1.547      1.983
REMARK  Name = 
REMARK  14 active torsions:
REMARK  status: ('A' for Active; 'I' for Inactive)
REMARK    1  A    between atoms: C_1  and  C_2
REMARK    2  A    between atoms: C_2  and  C_3
REMARK    3  A    between atoms: C_5  and  C_6
REMARK    4  A    between atoms: C_6  and  C_7
REMARK    5  A    between atoms: C_9  and  O_10
REMARK    6  A    between atoms: C_12  and  O_13
REMARK    7  A    between atoms: O_13  and  C_14
REMARK    8  A    between atoms: C_14  and  C_15
REMARK    9  A    between atoms: C_19  and  C_20
REMARK   10  A    between atoms: N_22  and  C_23
REMARK   11  A    between atoms: N_22  and  C_25
REMARK   12  A    between atoms: C_23  and  C_24
REMARK   13  A    between atoms: C_25  and  C_26
REMARK   14  A    between atoms: C_26  and  O_27
REMARK                            x       y       z     vdW  Elec       q    Type
REMARK                         _______ _______ _______ _____ _____    ______ ____
ROOT
ATOM      1  C   UNL     1       2.108   6.805  20.463  0.00  0.00    +0.000 C 
ENDROOT
BRANCH   1   2
ATOM      2  C   UNL     1       2.219   5.545  19.624  0.00  0.00    +0.000 A 
ATOM      3  C   UNL     1       1.363   4.476  19.878  0.00  0.00    +0.000 A 
ATOM      4  C   UNL     1       1.660   3.238  19.330  0.00  0.00    +0.000 A 
ATOM      5  C   UNL     1       2.787   3.111  18.524  0.00  0.00    +0.000 A 
ATOM      6  C   UNL     1       3.580   4.229  18.261  0.00  0.00    +0.000 A 
ATOM      7  N   UNL     1       3.320   5.437  18.817  0.00  0.00    +0.000 NA
BRANCH   6   8
ATOM      8  C   UNL     1       4.731   4.043  17.298  0.00  0.00    +0.000 C 
ATOM      9  O   UNL     1       4.670   3.036  16.571  0.00  0.00    +0.000 OA
ATOM     10  N   UNL     1       5.845   4.893  17.193  0.00  0.00    +0.000 N 
BRANCH  10  11
ATOM     11  C   UNL     1       6.070   6.159  17.898  0.00  0.00    +0.000 C 
ATOM     12  C   UNL     1       7.520   6.359  18.311  0.00  0.00    +0.000 C 
ENDBRANCH  10  11
BRANCH  10  13
ATOM     13  C   UNL     1       6.954   4.423  16.337  0.00  0.00    +0.000 C 
BRANCH  13  14
ATOM     14  C   UNL     1       6.752   4.706  14.845  0.00  0.00    +0.000 C 
BRANCH  14  15
ATOM     15  O   UNL     1       6.365   3.532  14.133  0.00  0.00    +0.000 OA
ATOM     16  H   UNL     1       6.897   2.807  14.504  0.00  0.00    +0.000 HD
ENDBRANCH  14  15
ENDBRANCH  13  14
ENDBRANCH  10  13
ENDBRANCH   6   8
ENDBRANCH   1   2
BRANCH   1  17
ATOM     17  O   UNL     1       1.716   7.976  19.729  0.00  0.00    +0.000 OA
BRANCH  17  23
ATOM     18  C   UNL     1       0.257   9.863  19.729  0.00  0.00    +0.000 A 
ATOM     19  C   UNL     1      -0.480  10.850  20.425  0.00  0.00    +0.000 A 
ATOM     20  C   UNL     1      -0.493  10.906  21.822  0.00  0.00    +0.000 A 
ATOM     21  C   UNL     1       0.236   9.929  22.517  0.00  0.00    +0.000 A 
ATOM     22  C   UNL     1       0.953   8.939  21.844  0.00  0.00    +0.000 A 
ATOM     23  C   UNL     1       0.995   8.906  20.448  0.00  0.00    +0.000 A 
BRANCH  20  24
ATOM     24  C   UNL     1      -1.218  11.956  22.597  0.00  0.00    +0.000 C 
ATOM     25  C   UNL     1      -2.691  12.205  22.416  0.00  0.00    +0.000 C 
ATOM     26  O   UNL     1      -0.579  12.644  23.400  0.00  0.00    +0.000 OA
ENDBRANCH  20  24
BRANCH  18  28
ATOM     27  C   UNL     1      -1.108  10.043  17.649  0.00  0.00    +0.000 C 
ATOM     28  C   UNL     1       0.300   9.942  18.217  0.00  0.00    +0.000 C 
ENDBRANCH  18  28
BRANCH  21  29
ATOM     29  O   UNL     1       0.322   9.865  23.884  0.00  0.00    +0.000 OA
ATOM     30  H   UNL     1       0.008   8.977  24.158  0.00  0.00    +0.000 HD
ENDBRANCH  21  29
ENDBRANCH  17  23
ENDBRANCH   1  17
TORSDOF 11
ENDMDL
MODEL 6
REMARK VINA RESULT:      -7.0      1.875      2.949
REMARK  Name = 
REMARK  14 active torsions:
REMARK  status: ('A' for Active; 'I' for Inactive)
REMARK    1  A    between atoms: C_1  and  C_2
REMARK    2  A    between atoms: C_2  and  C_3
REMARK    3  A    between atoms: C_5  and  C_6
REMARK    4  A    between atoms: C_6  and  C_7
REMARK    5  A    between atoms: C_9  and  O_10
REMARK    6  A    between atoms: C_12  and  O_13
REMARK    7  A    between atoms: O_13  and  C_14
REMARK    8  A    between atoms: C_14  and  C_15
REMARK    9  A    between atoms: C_19  and  C_20
REMARK   10  A    between atoms: N_22  and  C_23
REMARK   11  A    between atoms: N_22  and  C_25
REMARK   12  A    between atoms: C_23  and  C_24
REMARK   13  A    between atoms: C_25  and  C_26
REMARK   14  A    between atoms: C_26  and  O_27
REMARK                            x       y       z     vdW  Elec       q    Type
REMARK                         _______ _______ _______ _____ _____    ______ ____
ROOT
ATOM      1  C   UNL     1       0.782   6.165  20.669  0.00  0.00    +0.000 C 
ENDROOT
BRANCH   1   2
ATOM      2  C   UNL     1       1.571   4.923  20.296  0.00  0.00    +0.000 A 
ATOM      3  C   UNL     1       1.121   3.673  20.715  0.00  0.00    +0.000 A 
ATOM      4  C   UNL     1       1.986   2.593  20.640  0.00  0.00    +0.000 A 
ATOM      5  C   UNL     1       3.263   2.786  20.123  0.00  0.00    +0.000 A 
ATOM      6  C   UNL     1       3.642   4.050  19.669  0.00  0.00    +0.000 A 
ATOM      7  N   UNL     1       2.819   5.122  19.768  0.00  0.00    +0.000 NA
BRANCH   6   8
ATOM      8  C   UNL     1       5.007   4.168  19.028  0.00  0.00    +0.000 C 
ATOM      9  O   UNL     1       5.938   3.612  19.635  0.00  0.00    +0.000 OA
ATOM     10  N   UNL     1       5.287   4.867  17.841  0.00  0.00    +0.000 N 
BRANCH  10  11
ATOM     11  C   UNL     1       4.329   5.521  16.944  0.00  0.00    +0.000 C 
ATOM     12  C   UNL     1       4.260   7.027  17.145  0.00  0.00    +0.000 C 
ENDBRANCH  10  11
BRANCH  10  13
ATOM     13  C   UNL     1       6.714   5.033  17.496  0.00  0.00    +0.000 C 
BRANCH  13  14
ATOM     14  C   UNL     1       7.077   4.535  16.094  0.00  0.00    +0.000 C 
BRANCH  14  15
ATOM     15  O   UNL     1       7.592   5.585  15.278  0.00  0.00    +0.000 OA
ATOM     16  H   UNL     1       8.389   5.225  14.850  0.00  0.00    +0.000 HD
ENDBRANCH  14  15
ENDBRANCH  13  14
ENDBRANCH  10  13
ENDBRANCH   6   8
ENDBRANCH   1   2
BRANCH   1  17
ATOM     17  O   UNL     1       1.580   7.246  21.176  0.00  0.00    +0.000 OA
BRANCH  17  23
ATOM     18  C   UNL     1       0.777   9.487  21.338  0.00  0.00    +0.000 A 
ATOM     19  C   UNL     1       0.520  10.749  20.750  0.00  0.00    +0.000 A 
ATOM     20  C   UNL     1       0.837  11.013  19.414  0.00  0.00    +0.000 A 
ATOM     21  C   UNL     1       1.443   9.986  18.675  0.00  0.00    +0.000 A 
ATOM     22  C   UNL     1       1.717   8.742  19.246  0.00  0.00    +0.000 A 
ATOM     23  C   UNL     1       1.368   8.467  20.570  0.00  0.00    +0.000 A 
BRANCH  20  24
ATOM     24  C   UNL     1       0.542  12.312  18.740  0.00  0.00    +0.000 C 
ATOM     25  C   UNL     1      -0.864  12.824  18.580  0.00  0.00    +0.000 C 
ATOM     26  O   UNL     1       1.485  12.974  18.294  0.00  0.00    +0.000 OA
ENDBRANCH  20  24
BRANCH  18  28
ATOM     27  C   UNL     1      -0.752  10.279  23.142  0.00  0.00    +0.000 C 
ATOM     28  C   UNL     1       0.306   9.254  22.758  0.00  0.00    +0.000 C 
ENDBRANCH  18  28
BRANCH  21  29
ATOM     29  O   UNL     1       1.799  10.098  17.355  0.00  0.00    +0.000 OA
ATOM     30  H   UNL     1       2.187   9.240  17.082  0.00  0.00    +0.000 HD
ENDBRANCH  21  29
ENDBRANCH  17  23
ENDBRANCH   1  17
TORSDOF 11
ENDMDL
MODEL 7
REMARK VINA RESULT:      -7.0      2.232      3.086
REMARK  Name = 
REMARK  14 active torsions:
REMARK  status: ('A' for Active; 'I' for Inactive)
REMARK    1  A    between atoms: C_1  and  C_2
REMARK    2  A    between atoms: C_2  and  C_3
REMARK    3  A    between atoms: C_5  and  C_6
REMARK    4  A    between atoms: C_6  and  C_7
REMARK    5  A    between atoms: C_9  and  O_10
REMARK    6  A    between atoms: C_12  and  O_13
REMARK    7  A    between atoms: O_13  and  C_14
REMARK    8  A    between atoms: C_14  and  C_15
REMARK    9  A    between atoms: C_19  and  C_20
REMARK   10  A    between atoms: N_22  and  C_23
REMARK   11  A    between atoms: N_22  and  C_25
REMARK   12  A    between atoms: C_23  and  C_24
REMARK   13  A    between atoms: C_25  and  C_26
REMARK   14  A    between atoms: C_26  and  O_27
REMARK                            x       y       z     vdW  Elec       q    Type
REMARK                         _______ _______ _______ _____ _____    ______ ____
ROOT
ATOM      1  C   UNL     1       1.995   9.301  18.015  0.00  0.00    +0.000 C 
ENDROOT
BRANCH   1   2
ATOM      2  C   UNL     1       2.386   7.884  18.391  0.00  0.00    +0.000 A 
ATOM      3  C   UNL     1       2.057   7.394  19.652  0.00  0.00    +0.000 A 
ATOM      4  C   UNL     1       2.670   6.234  20.099  0.00  0.00    +0.000 A 
ATOM      5  C   UNL     1       3.572   5.583  19.263  0.00  0.00    +0.000 A 
ATOM      6  C   UNL     1       3.824   6.091  17.987  0.00  0.00    +0.000 A 
ATOM      7  N   UNL     1       3.258   7.242  17.551  0.00  0.00    +0.000 NA
BRANCH   6   8
ATOM      8  C   UNL     1       4.736   5.281  17.095  0.00  0.00    +0.000 C 
ATOM      9  O   UNL     1       4.233   4.265  16.585  0.00  0.00    +0.000 OA
ATOM     10  N   UNL     1       6.085   5.578  16.833  0.00  0.00    +0.000 N 
BRANCH  10  11
ATOM     11  C   UNL     1       6.840   6.756  17.271  0.00  0.00    +0.000 C 
ATOM     12  C   UNL     1       7.733   6.477  18.469  0.00  0.00    +0.000 C 
ENDBRANCH  10  11
BRANCH  10  13
ATOM     13  C   UNL     1       6.856   4.550  16.102  0.00  0.00    +0.000 C 
BRANCH  13  14
ATOM     14  C   UNL     1       6.895   4.763  14.585  0.00  0.00    +0.000 C 
BRANCH  14  15
ATOM     15  O   UNL     1       8.051   5.495  14.185  0.00  0.00    +0.000 OA
ATOM     16  H   UNL     1       7.738   6.166  13.553  0.00  0.00    +0.000 HD
ENDBRANCH  14  15
ENDBRANCH  13  14
ENDBRANCH  10  13
ENDBRANCH   6   8
ENDBRANCH   1   2
BRANCH   1  17
ATOM     17  O   UNL     1       0.583   9.501  17.836  0.00  0.00    +0.000 OA
BRANCH  17  23
ATOM     18  C   UNL     1      -1.303  10.839  18.421  0.00  0.00    +0.000 A 
ATOM     19  C   UNL     1      -1.931  11.775  19.277  0.00  0.00    +0.000 A 
ATOM     20  C   UNL     1      -1.285  12.281  20.410  0.00  0.00    +0.000 A 
ATOM     21  C   UNL     1       0.008  11.809  20.685  0.00  0.00    +0.000 A 
ATOM     22  C   UNL     1       0.632  10.874  19.859  0.00  0.00    +0.000 A 
ATOM     23  C   UNL     1       0.002  10.396  18.709  0.00  0.00    +0.000 A 
BRANCH  20  24
ATOM     24  C   UNL     1      -1.890  13.303  21.314  0.00  0.00    +0.000 C 
ATOM     25  C   UNL     1      -2.334  14.649  20.809  0.00  0.00    +0.000 C 
ATOM     26  O   UNL     1      -2.016  13.032  22.513  0.00  0.00    +0.000 OA
ENDBRANCH  20  24
BRANCH  18  28
ATOM     27  C   UNL     1      -3.259   9.593  17.506  0.00  0.00    +0.000 C 
ATOM     28  C   UNL     1      -2.033  10.425  17.161  0.00  0.00    +0.000 C 
ENDBRANCH  18  28
BRANCH  21  29
ATOM     29  O   UNL     1       0.764  12.223  21.752  0.00  0.00    +0.000 OA
ATOM     30  H   UNL     1       0.148  12.424  22.488  0.00  0.00    +0.000 HD
ENDBRANCH  21  29
ENDBRANCH  17  23
ENDBRANCH   1  17
TORSDOF 11
ENDMDL
MODEL 8
REMARK VINA RESULT:      -6.9      3.761      8.977
REMARK  Name = 
REMARK  14 active torsions:
REMARK  status: ('A' for Active; 'I' for Inactive)
REMARK    1  A    between atoms: C_1  and  C_2
REMARK    2  A    between atoms: C_2  and  C_3
REMARK    3  A    between atoms: C_5  and  C_6
REMARK    4  A    between atoms: C_6  and  C_7
REMARK    5  A    between atoms: C_9  and  O_10
REMARK    6  A    between atoms: C_12  and  O_13
REMARK    7  A    between atoms: O_13  and  C_14
REMARK    8  A    between atoms: C_14  and  C_15
REMARK    9  A    between atoms: C_19  and  C_20
REMARK   10  A    between atoms: N_22  and  C_23
REMARK   11  A    between atoms: N_22  and  C_25
REMARK   12  A    between atoms: C_23  and  C_24
REMARK   13  A    between atoms: C_25  and  C_26
REMARK   14  A    between atoms: C_26  and  O_27
REMARK                            x       y       z     vdW  Elec       q    Type
REMARK                         _______ _______ _______ _____ _____    ______ ____
ROOT
ATOM      1  C   UNL     1       1.866   8.673  17.804  0.00  0.00    +0.000 C 
ENDROOT
BRANCH   1   2
ATOM      2  C   UNL     1       1.003   9.529  18.713  0.00  0.00    +0.000 A 
ATOM      3  C   UNL     1       1.234   9.518  20.087  0.00  0.00    +0.000 A 
ATOM      4  C   UNL     1       0.270  10.048  20.931  0.00  0.00    +0.000 A 
ATOM      5  C   UNL     1      -0.882  10.597  20.377  0.00  0.00    +0.000 A 
ATOM      6  C   UNL     1      -1.036  10.629  18.989  0.00  0.00    +0.000 A 
ATOM      7  N   UNL     1      -0.118  10.084  18.155  0.00  0.00    +0.000 NA
BRANCH   6   8
ATOM      8  C   UNL     1      -2.264  11.329  18.452  0.00  0.00    +0.000 C 
ATOM      9  O   UNL     1      -2.659  12.308  19.108  0.00  0.00    +0.000 OA
ATOM     10  N   UNL     1      -2.982  10.940  17.308  0.00  0.00    +0.000 N 
BRANCH  10  11
ATOM     11  C   UNL     1      -2.644   9.871  16.363  0.00  0.00    +0.000 C 
ATOM     12  C   UNL     1      -2.992  10.219  14.924  0.00  0.00    +0.000 C 
ENDBRANCH  10  11
BRANCH  10  13
ATOM     13  C   UNL     1      -4.267  11.630  17.071  0.00  0.00    +0.000 C 
BRANCH  13  14
ATOM     14  C   UNL     1      -5.454  11.010  17.814  0.00  0.00    +0.000 C 
BRANCH  14  15
ATOM     15  O   UNL     1      -6.686  11.628  17.450  0.00  0.00    +0.000 OA
ATOM     16  H   UNL     1      -6.598  12.566  17.696  0.00  0.00    +0.000 HD
ENDBRANCH  14  15
ENDBRANCH  13  14
ENDBRANCH  10  13
ENDBRANCH   6   8
ENDBRANCH   1   2
BRANCH   1  17
ATOM     17  O   UNL     1       2.949   8.004  18.470  0.00  0.00    +0.000 OA
BRANCH  17  23
ATOM     18  C   UNL     1       3.675   5.877  17.671  0.00  0.00    +0.000 A 
ATOM     19  C   UNL     1       3.587   4.464  17.675  0.00  0.00    +0.000 A 
ATOM     20  C   UNL     1       2.689   3.788  18.507  0.00  0.00    +0.000 A 
ATOM     21  C   UNL     1       1.888   4.560  19.361  0.00  0.00    +0.000 A 
ATOM     22  C   UNL     1       1.975   5.953  19.379  0.00  0.00    +0.000 A 
ATOM     23  C   UNL     1       2.846   6.630  18.523  0.00  0.00    +0.000 A 
BRANCH  20  24
ATOM     24  C   UNL     1       2.530   2.303  18.511  0.00  0.00    +0.000 C 
ATOM     25  C   UNL     1       3.711   1.376  18.404  0.00  0.00    +0.000 C 
ATOM     26  O   UNL     1       1.392   1.831  18.593  0.00  0.00    +0.000 OA
ENDBRANCH  20  24
BRANCH  18  28
ATOM     27  C   UNL     1       5.306   5.473  15.828  0.00  0.00    +0.000 C 
ATOM     28  C   UNL     1       4.598   6.529  16.664  0.00  0.00    +0.000 C 
ENDBRANCH  18  28
BRANCH  21  29
ATOM     29  O   UNL     1       0.958   4.036  20.222  0.00  0.00    +0.000 OA
ATOM     30  H   UNL     1       0.763   3.122  19.924  0.00  0.00    +0.000 HD
ENDBRANCH  21  29
ENDBRANCH  17  23
ENDBRANCH   1  17
TORSDOF 11
ENDMDL
MODEL 9
REMARK VINA RESULT:      -6.9      2.766      4.431
REMARK  Name = 
REMARK  14 active torsions:
REMARK  status: ('A' for Active; 'I' for Inactive)
REMARK    1  A    between atoms: C_1  and  C_2
REMARK    2  A    between atoms: C_2  and  C_3
REMARK    3  A    between atoms: C_5  and  C_6
REMARK    4  A    between atoms: C_6  and  C_7
REMARK    5  A    between atoms: C_9  and  O_10
REMARK    6  A    between atoms: C_12  and  O_13
REMARK    7  A    between atoms: O_13  and  C_14
REMARK    8  A    between atoms: C_14  and  C_15
REMARK    9  A    between atoms: C_19  and  C_20
REMARK   10  A    between atoms: N_22  and  C_23
REMARK   11  A    between atoms: N_22  and  C_25
REMARK   12  A    between atoms: C_23  and  C_24
REMARK   13  A    between atoms: C_25  and  C_26
REMARK   14  A    between atoms: C_26  and  O_27
REMARK                            x       y       z     vdW  Elec       q    Type
REMARK                         _______ _______ _______ _____ _____    ______ ____
ROOT
ATOM      1  C   UNL     1       0.635   8.903  20.852  0.00  0.00    +0.000 C 
ENDROOT
BRANCH   1   2
ATOM      2  C   UNL     1       1.645   8.380  19.847  0.00  0.00    +0.000 A 
ATOM      3  C   UNL     1       1.777   9.016  18.615  0.00  0.00    +0.000 A 
ATOM      4  C   UNL     1       2.464   8.367  17.600  0.00  0.00    +0.000 A 
ATOM      5  C   UNL     1       3.021   7.118  17.853  0.00  0.00    +0.000 A 
ATOM      6  C   UNL     1       2.902   6.552  19.124  0.00  0.00    +0.000 A 
ATOM      7  N   UNL     1       2.204   7.159  20.115  0.00  0.00    +0.000 NA
BRANCH   6   8
ATOM      8  C   UNL     1       3.615   5.240  19.359  0.00  0.00    +0.000 C 
ATOM      9  O   UNL     1       4.851   5.308  19.469  0.00  0.00    +0.000 OA
ATOM     10  N   UNL     1       2.992   3.982  19.432  0.00  0.00    +0.000 N 
BRANCH  10  11
ATOM     11  C   UNL     1       1.555   3.695  19.402  0.00  0.00    +0.000 C 
ATOM     12  C   UNL     1       1.013   3.235  20.747  0.00  0.00    +0.000 C 
ENDBRANCH  10  11
BRANCH  10  13
ATOM     13  C   UNL     1       3.886   2.805  19.462  0.00  0.00    +0.000 C 
BRANCH  13  14
ATOM     14  C   UNL     1       3.581   1.764  18.380  0.00  0.00    +0.000 C 
BRANCH  14  15
ATOM     15  O   UNL     1       4.402   0.606  18.516  0.00  0.00    +0.000 OA
ATOM     16  H   UNL     1       4.580   0.515  19.469  0.00  0.00    +0.000 HD
ENDBRANCH  14  15
ENDBRANCH  13  14
ENDBRANCH  10  13
ENDBRANCH   6   8
ENDBRANCH   1   2
BRANCH   1  17
ATOM     17  O   UNL     1      -0.454   9.640  20.272  0.00  0.00    +0.000 OA
BRANCH  17  23
ATOM     18  C   UNL     1      -0.763  11.579  18.917  0.00  0.00    +0.000 A 
ATOM     19  C   UNL     1      -0.520  12.947  18.651  0.00  0.00    +0.000 A 
ATOM     20  C   UNL     1       0.267  13.731  19.501  0.00  0.00    +0.000 A 
ATOM     21  C   UNL     1       0.793  13.117  20.648  0.00  0.00    +0.000 A 
ATOM     22  C   UNL     1       0.547  11.773  20.931  0.00  0.00    +0.000 A 
ATOM     23  C   UNL     1      -0.209  10.982  20.064  0.00  0.00    +0.000 A 
BRANCH  20  24
ATOM     24  C   UNL     1       0.588  15.164  19.235  0.00  0.00    +0.000 C 
ATOM     25  C   UNL     1      -0.486  16.187  18.981  0.00  0.00    +0.000 C 
ATOM     26  O   UNL     1       1.774  15.511  19.214  0.00  0.00    +0.000 OA
ENDBRANCH  20  24
BRANCH  18  28
ATOM     27  C   UNL     1      -2.993  11.222  17.859  0.00  0.00    +0.000 C 
ATOM     28  C   UNL     1      -1.538  10.781  17.889  0.00  0.00    +0.000 C 
ENDBRANCH  18  28
BRANCH  21  29
ATOM     29  O   UNL     1       1.588  13.757  21.564  0.00  0.00    +0.000 OA
ATOM     30  H   UNL     1       1.139  13.698  22.434  0.00  0.00    +0.000 HD
ENDBRANCH  21  29
ENDBRANCH  17  23
ENDBRANCH   1  17
TORSDOF 11
ENDMDL
