MODEL 1
REMARK VINA RESULT:      -6.4      0.000      0.000
REMARK  Name = 
REMARK  6 active torsions:
REMARK  status: ('A' for Active; 'I' for Inactive)
REMARK    1  A    between atoms: C_1  and  C_2
REMARK    2  A    between atoms: C_2  and  C_3
REMARK    3  A    between atoms: C_2  and  C_4
REMARK    4  A    between atoms: C_4  and  C_5
REMARK    5  A    between atoms: C_15  and  C_16
REMARK    6  A    between atoms: C_25  and  C_27
REMARK                            x       y       z     vdW  Elec       q    Type
REMARK                         _______ _______ _______ _____ _____    ______ ____
ROOT
ATOM      1  C   UNL     1       6.111  11.560  24.833  0.00  0.00    +0.000 C 
ATOM      2  O   UNL     1       5.493  10.813  24.081  0.00  0.00    +0.000 OA
ATOM      3  N   UNL     1       6.628  12.798  24.423  0.00  0.00    +0.000 N 
ATOM      4  C   UNL     1       6.382  13.146  23.031  0.00  0.00    +0.000 C 
ATOM      5  C   UNL     1       6.577  14.625  22.767  0.00  0.00    +0.000 C 
ATOM      6  C   UNL     1       7.936  15.151  23.249  0.00  0.00    +0.000 C 
ATOM      7  C   UNL     1       8.176  14.753  24.702  0.00  0.00    +0.000 C 
ATOM      8  C   UNL     1       7.855  13.311  25.042  0.00  0.00    +0.000 C 
ATOM      9  O   UNL     1       7.756  16.596  23.302  0.00  0.00    +0.000 OA
ATOM     10  C   UNL     1       8.690  17.224  22.430  0.00  0.00    +0.000 C 
ATOM     11  C   UNL     1       9.160  16.147  21.484  0.00  0.00    +0.000 C 
ATOM     12  N   UNL     1       9.021  14.934  22.270  0.00  0.00    +0.000 N 
ATOM     13  C   UNL     1       9.376  13.652  21.867  0.00  0.00    +0.000 C 
ATOM     14  O   UNL     1       9.412  12.712  22.664  0.00  0.00    +0.000 OA
ENDROOT
BRANCH  11  15
ATOM     15  C   UNL     1      10.475  16.626  20.845  0.00  0.00    +0.000 C 
ATOM     16  O   UNL     1      11.517  16.352  21.460  0.00  0.00    +0.000 OA
ATOM     17  N   UNL     1      10.537  17.163  19.578  0.00  0.00    +0.000 N 
ATOM     18  C   UNL     1      11.847  17.230  18.911  0.00  0.00    +0.000 C 
ATOM     19  C   UNL     1      11.855  16.266  17.718  0.00  0.00    +0.000 C 
ATOM     20  O   UNL     1      10.796  16.592  16.799  0.00  0.00    +0.000 OA
ATOM     21  C   UNL     1       9.511  16.512  17.436  0.00  0.00    +0.000 C 
ATOM     22  C   UNL     1       9.430  17.443  18.657  0.00  0.00    +0.000 C 
ENDBRANCH  11  15
BRANCH  13  23
ATOM     23  C   UNL     1       9.789  13.331  20.462  0.00  0.00    +0.000 A 
ATOM     24  C   UNL     1      11.131  12.989  20.220  0.00  0.00    +0.000 A 
ATOM     25  C   UNL     1      11.586  12.745  18.919  0.00  0.00    +0.000 A 
ATOM     26  C   UNL     1      10.699  12.842  17.855  0.00  0.00    +0.000 A 
ATOM     27  F   UNL     1      11.140  12.678  16.602  0.00  0.00    +0.000 F 
ATOM     28  C   UNL     1       9.352  13.082  18.079  0.00  0.00    +0.000 A 
ATOM     29  C   UNL     1       8.893  13.270  19.386  0.00  0.00    +0.000 A 
ENDBRANCH  13  23
BRANCH   1  30
ATOM     30  C   UNL     1       6.322  11.255  26.306  0.00  0.00    +0.000 C 
BRANCH  30  32
ATOM     31  C   UNL     1       5.684   9.767  28.173  0.00  0.00    +0.000 C 
ATOM     32  C   UNL     1       5.129  10.673  27.068  0.00  0.00    +0.000 C 
ATOM     33  C   UNL     1       4.235  11.748  27.687  0.00  0.00    +0.000 C 
ENDBRANCH  30  32
ENDBRANCH   1  30
TORSDOF 4
ENDMDL
MODEL 2
REMARK VINA RESULT:      -6.3      7.456      9.357
REMARK  Name = 
REMARK  6 active torsions:
REMARK  status: ('A' for Active; 'I' for Inactive)
REMARK    1  A    between atoms: C_1  and  C_2
REMARK    2  A    between atoms: C_2  and  C_3
REMARK    3  A    between atoms: C_2  and  C_4
REMARK    4  A    between atoms: C_4  and  C_5
REMARK    5  A    between atoms: C_15  and  C_16
REMARK    6  A    between atoms: C_25  and  C_27
REMARK                            x       y       z     vdW  Elec       q    Type
REMARK                         _______ _______ _______ _____ _____    ______ ____
ROOT
ATOM      1  C   UNL     1       1.979   8.155  19.177  0.00  0.00    +0.000 C 
ATOM      2  O   UNL     1       2.723   8.133  18.202  0.00  0.00    +0.000 OA
ATOM      3  N   UNL     1       1.073   9.198  19.423  0.00  0.00    +0.000 N 
ATOM      4  C   UNL     1       1.073  10.268  18.435  0.00  0.00    +0.000 C 
ATOM      5  C   UNL     1      -0.178  11.120  18.515  0.00  0.00    +0.000 C 
ATOM      6  C   UNL     1      -0.457  11.655  19.927  0.00  0.00    +0.000 C 
ATOM      7  C   UNL     1      -0.427  10.516  20.942  0.00  0.00    +0.000 C 
ATOM      8  C   UNL     1       0.736   9.554  20.805  0.00  0.00    +0.000 C 
ATOM      9  O   UNL     1      -1.857  12.055  19.882  0.00  0.00    +0.000 OA
ATOM     10  C   UNL     1      -1.964  13.445  20.170  0.00  0.00    +0.000 C 
ATOM     11  C   UNL     1      -0.586  14.018  19.954  0.00  0.00    +0.000 C 
ATOM     12  N   UNL     1       0.288  12.893  20.234  0.00  0.00    +0.000 N 
ATOM     13  C   UNL     1       1.678  12.913  20.226  0.00  0.00    +0.000 C 
ATOM     14  O   UNL     1       2.339  11.972  20.670  0.00  0.00    +0.000 OA
ENDROOT
BRANCH  11  15
ATOM     15  C   UNL     1      -0.523  15.373  20.679  0.00  0.00    +0.000 C 
ATOM     16  O   UNL     1      -0.237  15.338  21.886  0.00  0.00    +0.000 OA
ATOM     17  N   UNL     1      -0.590  16.579  20.016  0.00  0.00    +0.000 N 
ATOM     18  C   UNL     1      -0.140  17.790  20.721  0.00  0.00    +0.000 C 
ATOM     19  C   UNL     1       1.134  18.319  20.052  0.00  0.00    +0.000 C 
ATOM     20  O   UNL     1       0.897  18.597  18.660  0.00  0.00    +0.000 OA
ATOM     21  C   UNL     1       0.474  17.416  17.958  0.00  0.00    +0.000 C 
ATOM     22  C   UNL     1      -0.797  16.815  18.583  0.00  0.00    +0.000 C 
ENDBRANCH  11  15
BRANCH  13  23
ATOM     23  C   UNL     1       2.467  14.090  19.735  0.00  0.00    +0.000 A 
ATOM     24  C   UNL     1       2.609  14.269  18.348  0.00  0.00    +0.000 A 
ATOM     25  C   UNL     1       3.389  15.313  17.837  0.00  0.00    +0.000 A 
ATOM     26  C   UNL     1       4.031  16.180  18.711  0.00  0.00    +0.000 A 
ATOM     27  F   UNL     1       4.834  17.137  18.232  0.00  0.00    +0.000 F 
ATOM     28  C   UNL     1       3.827  16.080  20.079  0.00  0.00    +0.000 A 
ATOM     29  C   UNL     1       3.001  15.071  20.582  0.00  0.00    +0.000 A 
ENDBRANCH  13  23
BRANCH   1  30
ATOM     30  C   UNL     1       1.909   7.021  20.185  0.00  0.00    +0.000 C 
BRANCH  30  32
ATOM     31  C   UNL     1       3.630   5.318  19.691  0.00  0.00    +0.000 C 
ATOM     32  C   UNL     1       2.125   5.605  19.646  0.00  0.00    +0.000 C 
ATOM     33  C   UNL     1       1.376   4.540  20.448  0.00  0.00    +0.000 C 
ENDBRANCH  30  32
ENDBRANCH   1  30
TORSDOF 4
ENDMDL
MODEL 3
REMARK VINA RESULT:      -6.2      8.315     10.487
REMARK  Name = 
REMARK  6 active torsions:
REMARK  status: ('A' for Active; 'I' for Inactive)
REMARK    1  A    between atoms: C_1  and  C_2
REMARK    2  A    between atoms: C_2  and  C_3
REMARK    3  A    between atoms: C_2  and  C_4
REMARK    4  A    between atoms: C_4  and  C_5
REMARK    5  A    between atoms: C_15  and  C_16
REMARK    6  A    between atoms: C_25  and  C_27
REMARK                            x       y       z     vdW  Elec       q    Type
REMARK                         _______ _______ _______ _____ _____    ______ ____
ROOT
ATOM      1  C   UNL     1       1.490   8.924  18.555  0.00  0.00    +0.000 C 
ATOM      2  O   UNL     1       1.527   9.180  17.356  0.00  0.00    +0.000 OA
ATOM      3  N   UNL     1       0.710   9.651  19.467  0.00  0.00    +0.000 N 
ATOM      4  C   UNL     1      -0.065  10.742  18.893  0.00  0.00    +0.000 C 
ATOM      5  C   UNL     1      -1.179  11.201  19.812  0.00  0.00    +0.000 C 
ATOM      6  C   UNL     1      -0.693  11.536  21.229  0.00  0.00    +0.000 C 
ATOM      7  C   UNL     1       0.132  10.385  21.796  0.00  0.00    +0.000 C 
ATOM      8  C   UNL     1       1.165   9.801  20.853  0.00  0.00    +0.000 C 
ATOM      9  O   UNL     1      -1.911  11.528  22.030  0.00  0.00    +0.000 OA
ATOM     10  C   UNL     1      -2.099  12.808  22.623  0.00  0.00    +0.000 C 
ATOM     11  C   UNL     1      -1.237  13.760  21.832  0.00  0.00    +0.000 C 
ATOM     12  N   UNL     1      -0.163  12.910  21.349  0.00  0.00    +0.000 N 
ATOM     13  C   UNL     1       0.935  13.321  20.602  0.00  0.00    +0.000 C 
ATOM     14  O   UNL     1       1.897  12.576  20.406  0.00  0.00    +0.000 OA
ENDROOT
BRANCH  11  15
ATOM     15  C   UNL     1      -1.032  15.024  22.683  0.00  0.00    +0.000 C 
ATOM     16  O   UNL     1      -0.049  15.025  23.441  0.00  0.00    +0.000 OA
ATOM     17  N   UNL     1      -1.768  16.175  22.502  0.00  0.00    +0.000 N 
ATOM     18  C   UNL     1      -1.257  17.429  23.076  0.00  0.00    +0.000 C 
ATOM     19  C   UNL     1      -0.852  18.375  21.939  0.00  0.00    +0.000 C 
ATOM     20  O   UNL     1      -1.969  18.629  21.069  0.00  0.00    +0.000 OA
ATOM     21  C   UNL     1      -2.465  17.412  20.489  0.00  0.00    +0.000 C 
ATOM     22  C   UNL     1      -2.880  16.402  21.572  0.00  0.00    +0.000 C 
ENDBRANCH  11  15
BRANCH  13  23
ATOM     23  C   UNL     1       1.054  14.703  20.033  0.00  0.00    +0.000 A 
ATOM     24  C   UNL     1       2.006  15.576  20.589  0.00  0.00    +0.000 A 
ATOM     25  C   UNL     1       2.115  16.898  20.140  0.00  0.00    +0.000 A 
ATOM     26  C   UNL     1       1.271  17.350  19.136  0.00  0.00    +0.000 A 
ATOM     27  F   UNL     1       1.321  18.630  18.749  0.00  0.00    +0.000 F 
ATOM     28  C   UNL     1       0.392  16.481  18.508  0.00  0.00    +0.000 A 
ATOM     29  C   UNL     1       0.328  15.148  18.921  0.00  0.00    +0.000 A 
ENDBRANCH  13  23
BRANCH   1  30
ATOM     30  C   UNL     1       2.232   7.750  19.170  0.00  0.00    +0.000 C 
BRANCH  30  32
ATOM     31  C   UNL     1       3.929   6.665  17.739  0.00  0.00    +0.000 C 
ATOM     32  C   UNL     1       2.493   6.547  18.261  0.00  0.00    +0.000 C 
ATOM     33  C   UNL     1       2.316   5.207  18.978  0.00  0.00    +0.000 C 
ENDBRANCH  30  32
ENDBRANCH   1  30
TORSDOF 4
ENDMDL
MODEL 4
REMARK VINA RESULT:      -6.2      7.721     10.314
REMARK  Name = 
REMARK  6 active torsions:
REMARK  status: ('A' for Active; 'I' for Inactive)
REMARK    1  A    between atoms: C_1  and  C_2
REMARK    2  A    between atoms: C_2  and  C_3
REMARK    3  A    between atoms: C_2  and  C_4
REMARK    4  A    between atoms: C_4  and  C_5
REMARK    5  A    between atoms: C_15  and  C_16
REMARK    6  A    between atoms: C_25  and  C_27
REMARK                            x       y       z     vdW  Elec       q    Type
REMARK                         _______ _______ _______ _____ _____    ______ ____
ROOT
ATOM      1  C   UNL     1       2.211   7.784  19.192  0.00  0.00    +0.000 C 
ATOM      2  O   UNL     1       3.024   7.827  18.274  0.00  0.00    +0.000 OA
ATOM      3  N   UNL     1       1.205   8.747  19.367  0.00  0.00    +0.000 N 
ATOM      4  C   UNL     1       1.187   9.814  18.377  0.00  0.00    +0.000 C 
ATOM      5  C   UNL     1      -0.134  10.558  18.361  0.00  0.00    +0.000 C 
ATOM      6  C   UNL     1      -0.560  11.064  19.746  0.00  0.00    +0.000 C 
ATOM      7  C   UNL     1      -0.509   9.930  20.766  0.00  0.00    +0.000 C 
ATOM      8  C   UNL     1       0.738   9.070  20.719  0.00  0.00    +0.000 C 
ATOM      9  O   UNL     1      -1.982  11.345  19.597  0.00  0.00    +0.000 OA
ATOM     10  C   UNL     1      -2.227  12.720  19.870  0.00  0.00    +0.000 C 
ATOM     11  C   UNL     1      -0.889  13.408  19.754  0.00  0.00    +0.000 C 
ATOM     12  N   UNL     1       0.053  12.360  20.102  0.00  0.00    +0.000 N 
ATOM     13  C   UNL     1       1.434  12.498  20.196  0.00  0.00    +0.000 C 
ATOM     14  O   UNL     1       2.137  11.615  20.691  0.00  0.00    +0.000 OA
ENDROOT
BRANCH  11  15
ATOM     15  C   UNL     1      -0.994  14.762  20.476  0.00  0.00    +0.000 C 
ATOM     16  O   UNL     1      -1.210  15.752  19.759  0.00  0.00    +0.000 OA
ATOM     17  N   UNL     1      -1.038  14.876  21.848  0.00  0.00    +0.000 N 
ATOM     18  C   UNL     1      -1.520  16.138  22.429  0.00  0.00    +0.000 C 
ATOM     19  C   UNL     1      -2.860  15.889  23.134  0.00  0.00    +0.000 C 
ATOM     20  O   UNL     1      -2.717  14.880  24.150  0.00  0.00    +0.000 OA
ATOM     21  C   UNL     1      -2.263  13.638  23.589  0.00  0.00    +0.000 C 
ATOM     22  C   UNL     1      -0.925  13.810  22.849  0.00  0.00    +0.000 C 
ENDBRANCH  11  15
BRANCH  13  23
ATOM     23  C   UNL     1       2.155  13.738  19.760  0.00  0.00    +0.000 A 
ATOM     24  C   UNL     1       2.416  13.913  18.390  0.00  0.00    +0.000 A 
ATOM     25  C   UNL     1       3.143  15.020  17.935  0.00  0.00    +0.000 A 
ATOM     26  C   UNL     1       3.611  15.953  18.849  0.00  0.00    +0.000 A 
ATOM     27  F   UNL     1       4.365  16.977  18.430  0.00  0.00    +0.000 F 
ATOM     28  C   UNL     1       3.283  15.852  20.192  0.00  0.00    +0.000 A 
ATOM     29  C   UNL     1       2.509  14.775  20.633  0.00  0.00    +0.000 A 
ENDBRANCH  13  23
BRANCH   1  30
ATOM     30  C   UNL     1       2.163   6.646  20.197  0.00  0.00    +0.000 C 
BRANCH  30  32
ATOM     31  C   UNL     1       3.501   4.630  19.693  0.00  0.00    +0.000 C 
ATOM     32  C   UNL     1       2.090   5.227  19.629  0.00  0.00    +0.000 C 
ATOM     33  C   UNL     1       1.117   4.327  20.393  0.00  0.00    +0.000 C 
ENDBRANCH  30  32
ENDBRANCH   1  30
TORSDOF 4
ENDMDL
MODEL 5
REMARK VINA RESULT:      -6.0      7.406      9.425
REMARK  Name = 
REMARK  6 active torsions:
REMARK  status: ('A' for Active; 'I' for Inactive)
REMARK    1  A    between atoms: C_1  and  C_2
REMARK    2  A    between atoms: C_2  and  C_3
REMARK    3  A    between atoms: C_2  and  C_4
REMARK    4  A    between atoms: C_4  and  C_5
REMARK    5  A    between atoms: C_15  and  C_16
REMARK    6  A    between atoms: C_25  and  C_27
REMARK                            x       y       z     vdW  Elec       q    Type
REMARK                         _______ _______ _______ _____ _____    ______ ____
ROOT
ATOM      1  C   UNL     1       1.978   7.929  19.415  0.00  0.00    +0.000 C 
ATOM      2  O   UNL     1       2.831   7.930  18.533  0.00  0.00    +0.000 OA
ATOM      3  N   UNL     1       1.060   8.976  19.588  0.00  0.00    +0.000 N 
ATOM      4  C   UNL     1       1.185  10.077  18.642  0.00  0.00    +0.000 C 
ATOM      5  C   UNL     1      -0.059  10.942  18.604  0.00  0.00    +0.000 C 
ATOM      6  C   UNL     1      -0.496  11.435  19.990  0.00  0.00    +0.000 C 
ATOM      7  C   UNL     1      -0.596  10.264  20.964  0.00  0.00    +0.000 C 
ATOM      8  C   UNL     1       0.567   9.292  20.932  0.00  0.00    +0.000 C 
ATOM      9  O   UNL     1      -1.878  11.854  19.796  0.00  0.00    +0.000 OA
ATOM     10  C   UNL     1      -2.005  13.236  20.115  0.00  0.00    +0.000 C 
ATOM     11  C   UNL     1      -0.606  13.798  20.081  0.00  0.00    +0.000 C 
ATOM     12  N   UNL     1       0.219  12.653  20.424  0.00  0.00    +0.000 N 
ATOM     13  C   UNL     1       1.600  12.656  20.579  0.00  0.00    +0.000 C 
ATOM     14  O   UNL     1       2.196  11.693  21.065  0.00  0.00    +0.000 OA
ENDROOT
BRANCH  11  15
ATOM     15  C   UNL     1      -0.616  15.128  20.852  0.00  0.00    +0.000 C 
ATOM     16  O   UNL     1      -0.406  15.057  22.074  0.00  0.00    +0.000 OA
ATOM     17  N   UNL     1      -0.665  16.355  20.227  0.00  0.00    +0.000 N 
ATOM     18  C   UNL     1      -0.285  17.548  20.999  0.00  0.00    +0.000 C 
ATOM     19  C   UNL     1       1.018  18.123  20.430  0.00  0.00    +0.000 C 
ATOM     20  O   UNL     1       0.864  18.443  19.036  0.00  0.00    +0.000 OA
ATOM     21  C   UNL     1       0.510  17.280  18.270  0.00  0.00    +0.000 C 
ATOM     22  C   UNL     1      -0.785  16.636  18.793  0.00  0.00    +0.000 C 
ENDBRANCH  11  15
BRANCH  13  23
ATOM     23  C   UNL     1       2.452  13.837  20.223  0.00  0.00    +0.000 A 
ATOM     24  C   UNL     1       3.001  14.605  21.265  0.00  0.00    +0.000 A 
ATOM     25  C   UNL     1       3.749  15.756  20.989  0.00  0.00    +0.000 A 
ATOM     26  C   UNL     1       3.949  16.142  19.671  0.00  0.00    +0.000 A 
ATOM     27  F   UNL     1       4.604  17.278  19.401  0.00  0.00    +0.000 F 
ATOM     28  C   UNL     1       3.500  15.349  18.627  0.00  0.00    +0.000 A 
ATOM     29  C   UNL     1       2.802  14.171  18.908  0.00  0.00    +0.000 A 
ENDBRANCH  13  23
BRANCH   1  30
ATOM     30  C   UNL     1       1.781   6.765  20.370  0.00  0.00    +0.000 C 
BRANCH  30  32
ATOM     31  C   UNL     1       2.230   4.464  21.151  0.00  0.00    +0.000 C 
ATOM     32  C   UNL     1       2.446   5.441  19.989  0.00  0.00    +0.000 C 
ATOM     33  C   UNL     1       1.883   4.838  18.702  0.00  0.00    +0.000 C 
ENDBRANCH  30  32
ENDBRANCH   1  30
TORSDOF 4
ENDMDL
MODEL 6
REMARK VINA RESULT:      -5.9      8.106     10.399
REMARK  Name = 
REMARK  6 active torsions:
REMARK  status: ('A' for Active; 'I' for Inactive)
REMARK    1  A    between atoms: C_1  and  C_2
REMARK    2  A    between atoms: C_2  and  C_3
REMARK    3  A    between atoms: C_2  and  C_4
REMARK    4  A    between atoms: C_4  and  C_5
REMARK    5  A    between atoms: C_15  and  C_16
REMARK    6  A    between atoms: C_25  and  C_27
REMARK                            x       y       z     vdW  Elec       q    Type
REMARK                         _______ _______ _______ _____ _____    ______ ____
ROOT
ATOM      1  C   UNL     1       1.895   9.099  18.428  0.00  0.00    +0.000 C 
ATOM      2  O   UNL     1       2.322   9.547  17.369  0.00  0.00    +0.000 OA
ATOM      3  N   UNL     1       0.933   9.763  19.205  0.00  0.00    +0.000 N 
ATOM      4  C   UNL     1       0.467  11.033  18.667  0.00  0.00    +0.000 C 
ATOM      5  C   UNL     1      -0.835  11.480  19.299  0.00  0.00    +0.000 C 
ATOM      6  C   UNL     1      -0.786  11.500  20.834  0.00  0.00    +0.000 C 
ATOM      7  C   UNL     1      -0.274  10.165  21.367  0.00  0.00    +0.000 C 
ATOM      8  C   UNL     1       0.948   9.611  20.663  0.00  0.00    +0.000 C 
ATOM      9  O   UNL     1      -2.189  11.527  21.230  0.00  0.00    +0.000 OA
ATOM     10  C   UNL     1      -2.445  12.702  21.992  0.00  0.00    +0.000 C 
ATOM     11  C   UNL     1      -1.305  13.643  21.694  0.00  0.00    +0.000 C 
ATOM     12  N   UNL     1      -0.208  12.746  21.378  0.00  0.00    +0.000 N 
ATOM     13  C   UNL     1       1.097  13.120  21.080  0.00  0.00    +0.000 C 
ATOM     14  O   UNL     1       2.007  12.291  21.022  0.00  0.00    +0.000 OA
ENDROOT
BRANCH  11  15
ATOM     15  C   UNL     1      -1.271  14.704  22.807  0.00  0.00    +0.000 C 
ATOM     16  O   UNL     1      -0.645  14.402  23.836  0.00  0.00    +0.000 OA
ATOM     17  N   UNL     1      -1.736  15.989  22.630  0.00  0.00    +0.000 N 
ATOM     18  C   UNL     1      -1.319  17.022  23.591  0.00  0.00    +0.000 C 
ATOM     19  C   UNL     1      -0.406  18.030  22.881  0.00  0.00    +0.000 C 
ATOM     20  O   UNL     1      -1.083  18.621  21.757  0.00  0.00    +0.000 OA
ATOM     21  C   UNL     1      -1.479  17.621  20.804  0.00  0.00    +0.000 C 
ATOM     22  C   UNL     1      -2.388  16.561  21.447  0.00  0.00    +0.000 C 
ENDBRANCH  11  15
BRANCH  13  23
ATOM     23  C   UNL     1       1.499  14.548  20.864  0.00  0.00    +0.000 A 
ATOM     24  C   UNL     1       1.160  15.162  19.646  0.00  0.00    +0.000 A 
ATOM     25  C   UNL     1       1.568  16.472  19.365  0.00  0.00    +0.000 A 
ATOM     26  C   UNL     1       2.317  17.170  20.301  0.00  0.00    +0.000 A 
ATOM     27  F   UNL     1       2.770  18.396  20.014  0.00  0.00    +0.000 F 
ATOM     28  C   UNL     1       2.581  16.620  21.546  0.00  0.00    +0.000 A 
ATOM     29  C   UNL     1       2.122  15.333  21.843  0.00  0.00    +0.000 A 
ENDBRANCH  13  23
BRANCH   1  30
ATOM     30  C   UNL     1       2.311   7.745  18.978  0.00  0.00    +0.000 C 
BRANCH  30  32
ATOM     31  C   UNL     1       4.192   6.574  17.886  0.00  0.00    +0.000 C 
ATOM     32  C   UNL     1       2.664   6.664  17.954  0.00  0.00    +0.000 C 
ATOM     33  C   UNL     1       2.084   5.294  18.309  0.00  0.00    +0.000 C 
ENDBRANCH  30  32
ENDBRANCH   1  30
TORSDOF 4
ENDMDL
MODEL 7
REMARK VINA RESULT:      -5.8      8.105     11.018
REMARK  Name = 
REMARK  6 active torsions:
REMARK  status: ('A' for Active; 'I' for Inactive)
REMARK    1  A    between atoms: C_1  and  C_2
REMARK    2  A    between atoms: C_2  and  C_3
REMARK    3  A    between atoms: C_2  and  C_4
REMARK    4  A    between atoms: C_4  and  C_5
REMARK    5  A    between atoms: C_15  and  C_16
REMARK    6  A    between atoms: C_25  and  C_27
REMARK                            x       y       z     vdW  Elec       q    Type
REMARK                         _______ _______ _______ _____ _____    ______ ____
ROOT
ATOM      1  C   UNL     1       2.231   8.558  18.451  0.00  0.00    +0.000 C 
ATOM      2  O   UNL     1       3.046   8.911  17.605  0.00  0.00    +0.000 OA
ATOM      3  N   UNL     1       1.125   9.340  18.818  0.00  0.00    +0.000 N 
ATOM      4  C   UNL     1       1.004  10.613  18.122  0.00  0.00    +0.000 C 
ATOM      5  C   UNL     1      -0.389  11.199  18.238  0.00  0.00    +0.000 C 
ATOM      6  C   UNL     1      -0.884  11.298  19.687  0.00  0.00    +0.000 C 
ATOM      7  C   UNL     1      -0.724   9.957  20.398  0.00  0.00    +0.000 C 
ATOM      8  C   UNL     1       0.609   9.267  20.189  0.00  0.00    +0.000 C 
ATOM      9  O   UNL     1      -2.327  11.461  19.556  0.00  0.00    +0.000 OA
ATOM     10  C   UNL     1      -2.722  12.693  20.150  0.00  0.00    +0.000 C 
ATOM     11  C   UNL     1      -1.466  13.520  20.259  0.00  0.00    +0.000 C 
ATOM     12  N   UNL     1      -0.420  12.520  20.375  0.00  0.00    +0.000 N 
ATOM     13  C   UNL     1       0.936  12.769  20.555  0.00  0.00    +0.000 C 
ATOM     14  O   UNL     1       1.725  11.867  20.844  0.00  0.00    +0.000 OA
ENDROOT
BRANCH  11  15
ATOM     15  C   UNL     1      -1.725  14.634  21.288  0.00  0.00    +0.000 C 
ATOM     16  O   UNL     1      -1.916  15.772  20.830  0.00  0.00    +0.000 OA
ATOM     17  N   UNL     1      -1.927  14.382  22.627  0.00  0.00    +0.000 N 
ATOM     18  C   UNL     1      -2.540  15.434  23.452  0.00  0.00    +0.000 C 
ATOM     19  C   UNL     1      -3.934  14.975  23.900  0.00  0.00    +0.000 C 
ATOM     20  O   UNL     1      -3.848  13.739  24.631  0.00  0.00    +0.000 OA
ATOM     21  C   UNL     1      -3.265  12.699  23.828  0.00  0.00    +0.000 C 
ATOM     22  C   UNL     1      -1.866  13.094  23.326  0.00  0.00    +0.000 C 
ENDBRANCH  11  15
BRANCH  13  23
ATOM     23  C   UNL     1       1.524  14.146  20.466  0.00  0.00    +0.000 A 
ATOM     24  C   UNL     1       1.691  14.721  19.194  0.00  0.00    +0.000 A 
ATOM     25  C   UNL     1       2.296  15.976  19.049  0.00  0.00    +0.000 A 
ATOM     26  C   UNL     1       2.735  16.658  20.175  0.00  0.00    +0.000 A 
ATOM     27  F   UNL     1       3.375  17.825  20.041  0.00  0.00    +0.000 F 
ATOM     28  C   UNL     1       2.493  16.153  21.444  0.00  0.00    +0.000 A 
ATOM     29  C   UNL     1       1.839  14.927  21.586  0.00  0.00    +0.000 A 
ENDBRANCH  13  23
BRANCH   1  30
ATOM     30  C   UNL     1       2.294   7.207  19.142  0.00  0.00    +0.000 C 
BRANCH  30  32
ATOM     31  C   UNL     1       4.155   5.771  18.381  0.00  0.00    +0.000 C 
ATOM     32  C   UNL     1       2.644   6.001  18.268  0.00  0.00    +0.000 C 
ATOM     33  C   UNL     1       1.900   4.730  18.679  0.00  0.00    +0.000 C 
ENDBRANCH  30  32
ENDBRANCH   1  30
TORSDOF 4
ENDMDL
MODEL 8
REMARK VINA RESULT:      -5.7      9.779     12.900
REMARK  Name = 
REMARK  6 active torsions:
REMARK  status: ('A' for Active; 'I' for Inactive)
REMARK    1  A    between atoms: C_1  and  C_2
REMARK    2  A    between atoms: C_2  and  C_3
REMARK    3  A    between atoms: C_2  and  C_4
REMARK    4  A    between atoms: C_4  and  C_5
REMARK    5  A    between atoms: C_15  and  C_16
REMARK    6  A    between atoms: C_25  and  C_27
REMARK                            x       y       z     vdW  Elec       q    Type
REMARK                         _______ _______ _______ _____ _____    ______ ____
ROOT
ATOM      1  C   UNL     1       1.383  10.249  18.115  0.00  0.00    +0.000 C 
ATOM      2  O   UNL     1       2.335  11.021  18.138  0.00  0.00    +0.000 OA
ATOM      3  N   UNL     1       0.053  10.672  18.265  0.00  0.00    +0.000 N 
ATOM      4  C   UNL     1      -0.126  12.106  18.451  0.00  0.00    +0.000 C 
ATOM      5  C   UNL     1      -1.552  12.544  18.184  0.00  0.00    +0.000 C 
ATOM      6  C   UNL     1      -2.591  11.737  18.975  0.00  0.00    +0.000 C 
ATOM      7  C   UNL     1      -2.365  10.240  18.779  0.00  0.00    +0.000 C 
ATOM      8  C   UNL     1      -0.925   9.781  18.897  0.00  0.00    +0.000 C 
ATOM      9  O   UNL     1      -3.845  12.000  18.280  0.00  0.00    +0.000 OA
ATOM     10  C   UNL     1      -4.768  12.607  19.179  0.00  0.00    +0.000 C 
ATOM     11  C   UNL     1      -3.941  13.139  20.323  0.00  0.00    +0.000 C 
ATOM     12  N   UNL     1      -2.796  12.245  20.347  0.00  0.00    +0.000 N 
ATOM     13  C   UNL     1      -1.751  12.277  21.263  0.00  0.00    +0.000 C 
ATOM     14  O   UNL     1      -0.928  11.363  21.333  0.00  0.00    +0.000 OA
ENDROOT
BRANCH  11  15
ATOM     15  C   UNL     1      -4.886  13.378  21.513  0.00  0.00    +0.000 C 
ATOM     16  O   UNL     1      -5.104  12.401  22.246  0.00  0.00    +0.000 OA
ATOM     17  N   UNL     1      -5.328  14.631  21.876  0.00  0.00    +0.000 N 
ATOM     18  C   UNL     1      -5.895  14.809  23.221  0.00  0.00    +0.000 C 
ATOM     19  C   UNL     1      -4.957  15.695  24.050  0.00  0.00    +0.000 C 
ATOM     20  O   UNL     1      -4.762  16.967  23.406  0.00  0.00    +0.000 OA
ATOM     21  C   UNL     1      -4.192  16.804  22.097  0.00  0.00    +0.000 C 
ATOM     22  C   UNL     1      -5.072  15.911  21.207  0.00  0.00    +0.000 C 
ENDBRANCH  11  15
BRANCH  13  23
ATOM     23  C   UNL     1      -1.581  13.386  22.258  0.00  0.00    +0.000 A 
ATOM     24  C   UNL     1      -1.004  14.592  21.824  0.00  0.00    +0.000 A 
ATOM     25  C   UNL     1      -0.761  15.635  22.725  0.00  0.00    +0.000 A 
ATOM     26  C   UNL     1      -1.095  15.475  24.063  0.00  0.00    +0.000 A 
ATOM     27  F   UNL     1      -0.804  16.440  24.943  0.00  0.00    +0.000 F 
ATOM     28  C   UNL     1      -1.753  14.333  24.494  0.00  0.00    +0.000 A 
ATOM     29  C   UNL     1      -2.044  13.318  23.578  0.00  0.00    +0.000 A 
ENDBRANCH  13  23
BRANCH   1  30
ATOM     30  C   UNL     1       1.534   8.760  17.855  0.00  0.00    +0.000 C 
BRANCH  30  32
ATOM     31  C   UNL     1       1.855   7.914  20.154  0.00  0.00    +0.000 C 
ATOM     32  C   UNL     1       2.498   7.995  18.765  0.00  0.00    +0.000 C 
ATOM     33  C   UNL     1       2.805   6.585  18.258  0.00  0.00    +0.000 C 
ENDBRANCH  30  32
ENDBRANCH   1  30
TORSDOF 4
ENDMDL
MODEL 9
REMARK VINA RESULT:      -5.7      9.466     12.664
REMARK  Name = 
REMARK  6 active torsions:
REMARK  status: ('A' for Active; 'I' for Inactive)
REMARK    1  A    between atoms: C_1  and  C_2
REMARK    2  A    between atoms: C_2  and  C_3
REMARK    3  A    between atoms: C_2  and  C_4
REMARK    4  A    between atoms: C_4  and  C_5
REMARK    5  A    between atoms: C_15  and  C_16
REMARK    6  A    between atoms: C_25  and  C_27
REMARK                            x       y       z     vdW  Elec       q    Type
REMARK                         _______ _______ _______ _____ _____    ______ ____
ROOT
ATOM      1  C   UNL     1       1.073   9.252  19.912  0.00  0.00    +0.000 C 
ATOM      2  O   UNL     1       0.984   8.481  20.862  0.00  0.00    +0.000 OA
ATOM      3  N   UNL     1       0.861  10.634  20.029  0.00  0.00    +0.000 N 
ATOM      4  C   UNL     1       0.526  11.102  21.367  0.00  0.00    +0.000 C 
ATOM      5  C   UNL     1       0.726  12.596  21.519  0.00  0.00    +0.000 C 
ATOM      6  C   UNL     1       0.008  13.415  20.437  0.00  0.00    +0.000 C 
ATOM      7  C   UNL     1       0.360  12.889  19.049  0.00  0.00    +0.000 C 
ATOM      8  C   UNL     1       0.311  11.381  18.894  0.00  0.00    +0.000 C 
ATOM      9  O   UNL     1       0.653  14.720  20.497  0.00  0.00    +0.000 OA
ATOM     10  C   UNL     1      -0.316  15.717  20.804  0.00  0.00    +0.000 C 
ATOM     11  C   UNL     1      -1.497  14.978  21.383  0.00  0.00    +0.000 C 
ATOM     12  N   UNL     1      -1.412  13.673  20.754  0.00  0.00    +0.000 N 
ATOM     13  C   UNL     1      -2.311  12.625  20.916  0.00  0.00    +0.000 C 
ATOM     14  O   UNL     1      -2.275  11.627  20.193  0.00  0.00    +0.000 OA
ENDROOT
BRANCH  11  15
ATOM     15  C   UNL     1      -2.718  15.909  21.300  0.00  0.00    +0.000 C 
ATOM     16  O   UNL     1      -3.389  15.844  20.257  0.00  0.00    +0.000 OA
ATOM     17  N   UNL     1      -3.174  16.643  22.373  0.00  0.00    +0.000 N 
ATOM     18  C   UNL     1      -4.539  17.188  22.319  0.00  0.00    +0.000 C 
ATOM     19  C   UNL     1      -5.407  16.477  23.365  0.00  0.00    +0.000 C 
ATOM     20  O   UNL     1      -4.846  16.636  24.680  0.00  0.00    +0.000 OA
ATOM     21  C   UNL     1      -3.518  16.091  24.748  0.00  0.00    +0.000 C 
ATOM     22  C   UNL     1      -2.588  16.746  23.714  0.00  0.00    +0.000 C 
ENDBRANCH  11  15
BRANCH  13  23
ATOM     23  C   UNL     1      -3.413  12.654  21.932  0.00  0.00    +0.000 A 
ATOM     24  C   UNL     1      -4.734  12.821  21.482  0.00  0.00    +0.000 A 
ATOM     25  C   UNL     1      -5.794  12.921  22.392  0.00  0.00    +0.000 A 
ATOM     26  C   UNL     1      -5.534  12.856  23.754  0.00  0.00    +0.000 A 
ATOM     27  F   UNL     1      -6.531  13.019  24.632  0.00  0.00    +0.000 F 
ATOM     28  C   UNL     1      -4.253  12.595  24.216  0.00  0.00    +0.000 A 
ATOM     29  C   UNL     1      -3.209  12.439  23.302  0.00  0.00    +0.000 A 
ENDBRANCH  13  23
BRANCH   1  30
ATOM     30  C   UNL     1       1.489   8.803  18.522  0.00  0.00    +0.000 C 
BRANCH  30  32
ATOM     31  C   UNL     1       1.909   6.385  18.230  0.00  0.00    +0.000 C 
ATOM     32  C   UNL     1       2.589   7.743  18.441  0.00  0.00    +0.000 C 
ATOM     33  C   UNL     1       3.583   8.000  17.307  0.00  0.00    +0.000 C 
ENDBRANCH  30  32
ENDBRANCH   1  30
TORSDOF 4
ENDMDL
