MODEL 1
REMARK VINA RESULT:      -6.9      0.000      0.000
REMARK  Name = 
REMARK  9 active torsions:
REMARK  status: ('A' for Active; 'I' for Inactive)
REMARK    1  A    between atoms: N_2  and  C_4
REMARK    2  A    between atoms: C_7  and  S_8
REMARK    3  A    between atoms: S_8  and  C_10
REMARK    4  A    between atoms: C_10  and  C_11
REMARK    5  A    between atoms: C_11  and  C_12
REMARK    6  A    between atoms: C_12  and  C_13
REMARK    7  A    between atoms: C_13  and  C_14
REMARK    8  A    between atoms: C_14  and  C_15
REMARK    9  A    between atoms: C_15  and  O_16
REMARK                            x       y       z     vdW  Elec       q    Type
REMARK                         _______ _______ _______ _____ _____    ______ ____
ROOT
ATOM      1  C   UNL     1       6.795   6.099  17.901  0.00  0.00    +0.000 A 
ATOM      2  C   UNL     1       6.010   5.746  19.009  0.00  0.00    +0.000 A 
ATOM      3  C   UNL     1       5.094   4.666  18.942  0.00  0.00    +0.000 A 
ATOM      4  C   UNL     1       4.893   3.879  17.779  0.00  0.00    +0.000 A 
ATOM      5  C   UNL     1       5.723   4.210  16.681  0.00  0.00    +0.000 A 
ATOM      6  N   UNL     1       5.826   3.641  15.476  0.00  0.00    +0.000 NA
ATOM      7  O   UNL     1       6.791   4.356  14.790  0.00  0.00    +0.000 OA
ATOM      8  N   UNL     1       7.307   5.384  15.552  0.00  0.00    +0.000 NA
ATOM      9  C   UNL     1       6.683   5.327  16.735  0.00  0.00    +0.000 A 
ENDROOT
BRANCH   1  11
ATOM     10  O   UNL     1       7.578   8.048  17.025  0.00  0.00    +0.000 OA
ATOM     11  N   UNL     1       7.680   7.226  17.946  0.00  0.00    +0.000 N 
ATOM     12  O   UNL     1       8.530   7.244  18.839  0.00  0.00    +0.000 OA
ENDBRANCH   1  11
BRANCH   4  13
ATOM     13  S   UNL     1       3.774   2.484  17.741  0.00  0.00    +0.000 S 
ATOM     14  O   UNL     1       3.900   1.777  19.139  0.00  0.00    +0.000 OA
BRANCH  13  15
ATOM     15  C   UNL     1       2.163   3.351  17.719  0.00  0.00    +0.000 C 
BRANCH  15  16
ATOM     16  C   UNL     1       1.120   2.482  18.423  0.00  0.00    +0.000 C 
BRANCH  16  17
ATOM     17  C   UNL     1       0.612   3.122  19.712  0.00  0.00    +0.000 C 
BRANCH  17  18
ATOM     18  C   UNL     1       1.345   4.436  19.982  0.00  0.00    +0.000 C 
BRANCH  18  19
ATOM     19  C   UNL     1       2.201   4.341  21.239  0.00  0.00    +0.000 C 
BRANCH  19  20
ATOM     20  C   UNL     1       1.993   3.007  21.940  0.00  0.00    +0.000 C 
BRANCH  20  21
ATOM     21  O   UNL     1       3.199   2.258  21.915  0.00  0.00    +0.000 OA
ATOM     22  H   UNL     1       3.172   1.687  21.129  0.00  0.00    +0.000 HD
ENDBRANCH  20  21
ENDBRANCH  19  20
ENDBRANCH  18  19
ENDBRANCH  17  18
ENDBRANCH  16  17
ENDBRANCH  15  16
ENDBRANCH  13  15
ENDBRANCH   4  13
TORSDOF 9
ENDMDL
MODEL 2
REMARK VINA RESULT:      -6.6      2.250      3.521
REMARK  Name = 
REMARK  9 active torsions:
REMARK  status: ('A' for Active; 'I' for Inactive)
REMARK    1  A    between atoms: N_2  and  C_4
REMARK    2  A    between atoms: C_7  and  S_8
REMARK    3  A    between atoms: S_8  and  C_10
REMARK    4  A    between atoms: C_10  and  C_11
REMARK    5  A    between atoms: C_11  and  C_12
REMARK    6  A    between atoms: C_12  and  C_13
REMARK    7  A    between atoms: C_13  and  C_14
REMARK    8  A    between atoms: C_14  and  C_15
REMARK    9  A    between atoms: C_15  and  O_16
REMARK                            x       y       z     vdW  Elec       q    Type
REMARK                         _______ _______ _______ _____ _____    ______ ____
ROOT
ATOM      1  C   UNL     1       6.212   5.246  15.959  0.00  0.00    +0.000 A 
ATOM      2  C   UNL     1       4.927   5.775  15.771  0.00  0.00    +0.000 A 
ATOM      3  C   UNL     1       4.103   6.105  16.877  0.00  0.00    +0.000 A 
ATOM      4  C   UNL     1       4.495   5.924  18.228  0.00  0.00    +0.000 A 
ATOM      5  C   UNL     1       5.811   5.434  18.410  0.00  0.00    +0.000 A 
ATOM      6  N   UNL     1       6.498   5.207  19.533  0.00  0.00    +0.000 NA
ATOM      7  O   UNL     1       7.737   4.736  19.141  0.00  0.00    +0.000 OA
ATOM      8  N   UNL     1       7.847   4.658  17.768  0.00  0.00    +0.000 NA
ATOM      9  C   UNL     1       6.682   5.090  17.272  0.00  0.00    +0.000 A 
ENDROOT
BRANCH   1  11
ATOM     10  O   UNL     1       7.950   5.623  14.538  0.00  0.00    +0.000 OA
ATOM     11  N   UNL     1       7.027   4.857  14.844  0.00  0.00    +0.000 N 
ATOM     12  O   UNL     1       6.692   3.844  14.225  0.00  0.00    +0.000 OA
ENDBRANCH   1  11
BRANCH   4  13
ATOM     13  S   UNL     1       3.458   6.404  19.604  0.00  0.00    +0.000 S 
ATOM     14  O   UNL     1       2.224   7.157  18.987  0.00  0.00    +0.000 OA
BRANCH  13  15
ATOM     15  C   UNL     1       2.866   4.766  20.163  0.00  0.00    +0.000 C 
BRANCH  15  16
ATOM     16  C   UNL     1       1.478   4.511  19.575  0.00  0.00    +0.000 C 
BRANCH  16  17
ATOM     17  C   UNL     1       1.547   3.922  18.169  0.00  0.00    +0.000 C 
BRANCH  17  18
ATOM     18  C   UNL     1       1.791   2.414  18.231  0.00  0.00    +0.000 C 
BRANCH  18  19
ATOM     19  C   UNL     1       3.230   2.073  17.862  0.00  0.00    +0.000 C 
BRANCH  19  20
ATOM     20  C   UNL     1       3.964   1.457  19.043  0.00  0.00    +0.000 C 
BRANCH  20  21
ATOM     21  O   UNL     1       5.065   2.276  19.405  0.00  0.00    +0.000 OA
ATOM     22  H   UNL     1       4.815   2.763  20.209  0.00  0.00    +0.000 HD
ENDBRANCH  20  21
ENDBRANCH  19  20
ENDBRANCH  18  19
ENDBRANCH  17  18
ENDBRANCH  16  17
ENDBRANCH  15  16
ENDBRANCH  13  15
ENDBRANCH   4  13
TORSDOF 9
ENDMDL
MODEL 3
REMARK VINA RESULT:      -6.5      2.300      3.619
REMARK  Name = 
REMARK  9 active torsions:
REMARK  status: ('A' for Active; 'I' for Inactive)
REMARK    1  A    between atoms: N_2  and  C_4
REMARK    2  A    between atoms: C_7  and  S_8
REMARK    3  A    between atoms: S_8  and  C_10
REMARK    4  A    between atoms: C_10  and  C_11
REMARK    5  A    between atoms: C_11  and  C_12
REMARK    6  A    between atoms: C_12  and  C_13
REMARK    7  A    between atoms: C_13  and  C_14
REMARK    8  A    between atoms: C_14  and  C_15
REMARK    9  A    between atoms: C_15  and  O_16
REMARK                            x       y       z     vdW  Elec       q    Type
REMARK                         _______ _______ _______ _____ _____    ______ ____
ROOT
ATOM      1  C   UNL     1       6.351   5.310  15.438  0.00  0.00    +0.000 A 
ATOM      2  C   UNL     1       5.137   6.010  15.379  0.00  0.00    +0.000 A 
ATOM      3  C   UNL     1       4.421   6.332  16.560  0.00  0.00    +0.000 A 
ATOM      4  C   UNL     1       4.855   5.974  17.863  0.00  0.00    +0.000 A 
ATOM      5  C   UNL     1       6.104   5.309  17.916  0.00  0.00    +0.000 A 
ATOM      6  N   UNL     1       6.813   4.891  18.969  0.00  0.00    +0.000 NA
ATOM      7  O   UNL     1       7.959   4.310  18.459  0.00  0.00    +0.000 OA
ATOM      8  N   UNL     1       7.987   4.352  17.080  0.00  0.00    +0.000 NA
ATOM      9  C   UNL     1       6.864   4.971  16.699  0.00  0.00    +0.000 A 
ENDROOT
BRANCH   1  11
ATOM     10  O   UNL     1       6.626   3.933  13.646  0.00  0.00    +0.000 OA
ATOM     11  N   UNL     1       7.050   4.932  14.243  0.00  0.00    +0.000 N 
ATOM     12  O   UNL     1       8.064   5.571  13.955  0.00  0.00    +0.000 OA
ENDBRANCH   1  11
BRANCH   4  13
ATOM     13  S   UNL     1       3.961   6.445  19.339  0.00  0.00    +0.000 S 
ATOM     14  O   UNL     1       2.630   7.123  18.852  0.00  0.00    +0.000 OA
BRANCH  13  15
ATOM     15  C   UNL     1       3.518   4.798  19.998  0.00  0.00    +0.000 C 
BRANCH  15  16
ATOM     16  C   UNL     1       2.115   4.866  20.605  0.00  0.00    +0.000 C 
BRANCH  16  17
ATOM     17  C   UNL     1       1.489   3.483  20.762  0.00  0.00    +0.000 C 
BRANCH  17  18
ATOM     18  C   UNL     1       0.571   3.173  19.579  0.00  0.00    +0.000 C 
BRANCH  18  19
ATOM     19  C   UNL     1       1.069   1.962  18.799  0.00  0.00    +0.000 C 
BRANCH  19  20
ATOM     20  C   UNL     1       2.295   2.315  17.970  0.00  0.00    +0.000 C 
BRANCH  20  21
ATOM     21  O   UNL     1       1.983   3.373  17.077  0.00  0.00    +0.000 OA
ATOM     22  H   UNL     1       2.772   3.938  17.006  0.00  0.00    +0.000 HD
ENDBRANCH  20  21
ENDBRANCH  19  20
ENDBRANCH  18  19
ENDBRANCH  17  18
ENDBRANCH  16  17
ENDBRANCH  15  16
ENDBRANCH  13  15
ENDBRANCH   4  13
TORSDOF 9
ENDMDL
MODEL 4
REMARK VINA RESULT:      -6.5      2.256      3.500
REMARK  Name = 
REMARK  9 active torsions:
REMARK  status: ('A' for Active; 'I' for Inactive)
REMARK    1  A    between atoms: N_2  and  C_4
REMARK    2  A    between atoms: C_7  and  S_8
REMARK    3  A    between atoms: S_8  and  C_10
REMARK    4  A    between atoms: C_10  and  C_11
REMARK    5  A    between atoms: C_11  and  C_12
REMARK    6  A    between atoms: C_12  and  C_13
REMARK    7  A    between atoms: C_13  and  C_14
REMARK    8  A    between atoms: C_14  and  C_15
REMARK    9  A    between atoms: C_15  and  O_16
REMARK                            x       y       z     vdW  Elec       q    Type
REMARK                         _______ _______ _______ _____ _____    ______ ____
ROOT
ATOM      1  C   UNL     1       6.029   5.068  16.232  0.00  0.00    +0.000 A 
ATOM      2  C   UNL     1       4.675   5.362  16.014  0.00  0.00    +0.000 A 
ATOM      3  C   UNL     1       3.793   5.597  17.099  0.00  0.00    +0.000 A 
ATOM      4  C   UNL     1       4.193   5.544  18.460  0.00  0.00    +0.000 A 
ATOM      5  C   UNL     1       5.571   5.293  18.670  0.00  0.00    +0.000 A 
ATOM      6  N   UNL     1       6.272   5.236  19.806  0.00  0.00    +0.000 NA
ATOM      7  O   UNL     1       7.578   4.965  19.442  0.00  0.00    +0.000 OA
ATOM      8  N   UNL     1       7.717   4.847  18.074  0.00  0.00    +0.000 NA
ATOM      9  C   UNL     1       6.502   5.053  17.553  0.00  0.00    +0.000 A 
ENDROOT
BRANCH   1  11
ATOM     10  O   UNL     1       7.801   5.605  14.908  0.00  0.00    +0.000 OA
ATOM     11  N   UNL     1       6.911   4.774  15.140  0.00  0.00    +0.000 N 
ATOM     12  O   UNL     1       6.664   3.772  14.466  0.00  0.00    +0.000 OA
ENDBRANCH   1  11
BRANCH   4  13
ATOM     13  S   UNL     1       3.072   5.901  19.807  0.00  0.00    +0.000 S 
ATOM     14  O   UNL     1       2.575   7.376  19.591  0.00  0.00    +0.000 OA
BRANCH  13  15
ATOM     15  C   UNL     1       1.679   4.795  19.384  0.00  0.00    +0.000 C 
BRANCH  15  16
ATOM     16  C   UNL     1       1.263   4.017  20.633  0.00  0.00    +0.000 C 
BRANCH  16  17
ATOM     17  C   UNL     1       1.716   2.561  20.583  0.00  0.00    +0.000 C 
BRANCH  17  18
ATOM     18  C   UNL     1       3.117   2.415  21.177  0.00  0.00    +0.000 C 
BRANCH  18  19
ATOM     19  C   UNL     1       4.157   2.189  20.087  0.00  0.00    +0.000 C 
BRANCH  19  20
ATOM     20  C   UNL     1       3.500   1.735  18.792  0.00  0.00    +0.000 C 
BRANCH  20  21
ATOM     21  O   UNL     1       4.315   2.095  17.687  0.00  0.00    +0.000 OA
ATOM     22  H   UNL     1       5.185   2.351  18.038  0.00  0.00    +0.000 HD
ENDBRANCH  20  21
ENDBRANCH  19  20
ENDBRANCH  18  19
ENDBRANCH  17  18
ENDBRANCH  16  17
ENDBRANCH  15  16
ENDBRANCH  13  15
ENDBRANCH   4  13
TORSDOF 9
ENDMDL
MODEL 5
REMARK VINA RESULT:      -6.4      3.917      7.141
REMARK  Name = 
REMARK  9 active torsions:
REMARK  status: ('A' for Active; 'I' for Inactive)
REMARK    1  A    between atoms: N_2  and  C_4
REMARK    2  A    between atoms: C_7  and  S_8
REMARK    3  A    between atoms: S_8  and  C_10
REMARK    4  A    between atoms: C_10  and  C_11
REMARK    5  A    between atoms: C_11  and  C_12
REMARK    6  A    between atoms: C_12  and  C_13
REMARK    7  A    between atoms: C_13  and  C_14
REMARK    8  A    between atoms: C_14  and  C_15
REMARK    9  A    between atoms: C_15  and  O_16
REMARK                            x       y       z     vdW  Elec       q    Type
REMARK                         _______ _______ _______ _____ _____    ______ ____
ROOT
ATOM      1  C   UNL     1       2.881   3.481  19.944  0.00  0.00    +0.000 A 
ATOM      2  C   UNL     1       3.746   2.751  19.115  0.00  0.00    +0.000 A 
ATOM      3  C   UNL     1       4.419   3.372  18.033  0.00  0.00    +0.000 A 
ATOM      4  C   UNL     1       4.271   4.744  17.701  0.00  0.00    +0.000 A 
ATOM      5  C   UNL     1       3.434   5.484  18.571  0.00  0.00    +0.000 A 
ATOM      6  N   UNL     1       3.131   6.785  18.574  0.00  0.00    +0.000 NA
ATOM      7  O   UNL     1       2.275   6.982  19.641  0.00  0.00    +0.000 OA
ATOM      8  N   UNL     1       2.025   5.808  20.323  0.00  0.00    +0.000 NA
ATOM      9  C   UNL     1       2.730   4.855  19.703  0.00  0.00    +0.000 A 
ENDROOT
BRANCH   1  11
ATOM     10  O   UNL     1       0.929   2.737  20.849  0.00  0.00    +0.000 OA
ATOM     11  N   UNL     1       2.154   2.845  21.004  0.00  0.00    +0.000 N 
ATOM     12  O   UNL     1       2.784   2.539  22.019  0.00  0.00    +0.000 OA
ENDBRANCH   1  11
BRANCH   4  13
ATOM     13  S   UNL     1       5.178   5.514  16.366  0.00  0.00    +0.000 S 
ATOM     14  O   UNL     1       6.217   6.483  17.038  0.00  0.00    +0.000 OA
BRANCH  13  15
ATOM     15  C   UNL     1       6.115   4.079  15.727  0.00  0.00    +0.000 C 
BRANCH  15  16
ATOM     16  C   UNL     1       6.577   4.380  14.301  0.00  0.00    +0.000 C 
BRANCH  16  17
ATOM     17  C   UNL     1       5.580   3.887  13.256  0.00  0.00    +0.000 C 
BRANCH  17  18
ATOM     18  C   UNL     1       6.313   3.266  12.067  0.00  0.00    +0.000 C 
BRANCH  18  19
ATOM     19  C   UNL     1       5.599   2.013  11.574  0.00  0.00    +0.000 C 
BRANCH  19  20
ATOM     20  C   UNL     1       6.595   0.988  11.053  0.00  0.00    +0.000 C 
BRANCH  20  21
ATOM     21  O   UNL     1       6.160  -0.320  11.391  0.00  0.00    +0.000 OA
ATOM     22  H   UNL     1       6.904  -0.772  11.823  0.00  0.00    +0.000 HD
ENDBRANCH  20  21
ENDBRANCH  19  20
ENDBRANCH  18  19
ENDBRANCH  17  18
ENDBRANCH  16  17
ENDBRANCH  15  16
ENDBRANCH  13  15
ENDBRANCH   4  13
TORSDOF 9
ENDMDL
MODEL 6
REMARK VINA RESULT:      -6.3      2.292      3.580
REMARK  Name = 
REMARK  9 active torsions:
REMARK  status: ('A' for Active; 'I' for Inactive)
REMARK    1  A    between atoms: N_2  and  C_4
REMARK    2  A    between atoms: C_7  and  S_8
REMARK    3  A    between atoms: S_8  and  C_10
REMARK    4  A    between atoms: C_10  and  C_11
REMARK    5  A    between atoms: C_11  and  C_12
REMARK    6  A    between atoms: C_12  and  C_13
REMARK    7  A    between atoms: C_13  and  C_14
REMARK    8  A    between atoms: C_14  and  C_15
REMARK    9  A    between atoms: C_15  and  O_16
REMARK                            x       y       z     vdW  Elec       q    Type
REMARK                         _______ _______ _______ _____ _____    ______ ____
ROOT
ATOM      1  C   UNL     1       6.272   5.440  15.565  0.00  0.00    +0.000 A 
ATOM      2  C   UNL     1       5.108   6.184  15.324  0.00  0.00    +0.000 A 
ATOM      3  C   UNL     1       4.262   6.584  16.390  0.00  0.00    +0.000 A 
ATOM      4  C   UNL     1       4.510   6.265  17.750  0.00  0.00    +0.000 A 
ATOM      5  C   UNL     1       5.711   5.555  17.989  0.00  0.00    +0.000 A 
ATOM      6  N   UNL     1       6.260   5.154  19.140  0.00  0.00    +0.000 NA
ATOM      7  O   UNL     1       7.435   4.507  18.804  0.00  0.00    +0.000 OA
ATOM      8  N   UNL     1       7.641   4.490  17.439  0.00  0.00    +0.000 NA
ATOM      9  C   UNL     1       6.604   5.136  16.894  0.00  0.00    +0.000 A 
ENDROOT
BRANCH   1  11
ATOM     10  O   UNL     1       6.790   3.903  13.968  0.00  0.00    +0.000 OA
ATOM     11  N   UNL     1       7.100   4.985  14.486  0.00  0.00    +0.000 N 
ATOM     12  O   UNL     1       8.101   5.654  14.220  0.00  0.00    +0.000 OA
ENDBRANCH   1  11
BRANCH   4  13
ATOM     13  S   UNL     1       3.456   6.832  19.079  0.00  0.00    +0.000 S 
ATOM     14  O   UNL     1       2.629   8.039  18.505  0.00  0.00    +0.000 OA
BRANCH  13  15
ATOM     15  C   UNL     1       2.311   5.414  19.225  0.00  0.00    +0.000 C 
BRANCH  15  16
ATOM     16  C   UNL     1       2.100   5.094  20.706  0.00  0.00    +0.000 C 
BRANCH  16  17
ATOM     17  C   UNL     1       1.530   3.694  20.917  0.00  0.00    +0.000 C 
BRANCH  17  18
ATOM     18  C   UNL     1       2.623   2.639  20.743  0.00  0.00    +0.000 C 
BRANCH  18  19
ATOM     19  C   UNL     1       2.547   1.990  19.366  0.00  0.00    +0.000 C 
BRANCH  19  20
ATOM     20  C   UNL     1       3.898   2.036  18.668  0.00  0.00    +0.000 C 
BRANCH  20  21
ATOM     21  O   UNL     1       4.863   2.626  19.526  0.00  0.00    +0.000 OA
ATOM     22  H   UNL     1       4.643   3.570  19.607  0.00  0.00    +0.000 HD
ENDBRANCH  20  21
ENDBRANCH  19  20
ENDBRANCH  18  19
ENDBRANCH  17  18
ENDBRANCH  16  17
ENDBRANCH  15  16
ENDBRANCH  13  15
ENDBRANCH   4  13
TORSDOF 9
ENDMDL
MODEL 7
REMARK VINA RESULT:      -6.1      3.264      6.680
REMARK  Name = 
REMARK  9 active torsions:
REMARK  status: ('A' for Active; 'I' for Inactive)
REMARK    1  A    between atoms: N_2  and  C_4
REMARK    2  A    between atoms: C_7  and  S_8
REMARK    3  A    between atoms: S_8  and  C_10
REMARK    4  A    between atoms: C_10  and  C_11
REMARK    5  A    between atoms: C_11  and  C_12
REMARK    6  A    between atoms: C_12  and  C_13
REMARK    7  A    between atoms: C_13  and  C_14
REMARK    8  A    between atoms: C_14  and  C_15
REMARK    9  A    between atoms: C_15  and  O_16
REMARK                            x       y       z     vdW  Elec       q    Type
REMARK                         _______ _______ _______ _____ _____    ______ ____
ROOT
ATOM      1  C   UNL     1       2.282   4.068  18.900  0.00  0.00    +0.000 A 
ATOM      2  C   UNL     1       2.316   5.135  17.990  0.00  0.00    +0.000 A 
ATOM      3  C   UNL     1       3.547   5.707  17.580  0.00  0.00    +0.000 A 
ATOM      4  C   UNL     1       4.811   5.268  18.050  0.00  0.00    +0.000 A 
ATOM      5  C   UNL     1       4.771   4.160  18.931  0.00  0.00    +0.000 A 
ATOM      6  N   UNL     1       5.767   3.477  19.503  0.00  0.00    +0.000 NA
ATOM      7  O   UNL     1       5.173   2.489  20.266  0.00  0.00    +0.000 OA
ATOM      8  N   UNL     1       3.796   2.538  20.187  0.00  0.00    +0.000 NA
ATOM      9  C   UNL     1       3.501   3.550  19.364  0.00  0.00    +0.000 A 
ENDROOT
BRANCH   1  11
ATOM     10  O   UNL     1       0.545   2.613  18.680  0.00  0.00    +0.000 OA
ATOM     11  N   UNL     1       1.038   3.523  19.361  0.00  0.00    +0.000 N 
ATOM     12  O   UNL     1       0.514   4.059  20.340  0.00  0.00    +0.000 OA
ENDBRANCH   1  11
BRANCH   4  13
ATOM     13  S   UNL     1       6.351   5.970  17.471  0.00  0.00    +0.000 S 
ATOM     14  O   UNL     1       7.273   6.118  18.735  0.00  0.00    +0.000 OA
BRANCH  13  15
ATOM     15  C   UNL     1       7.005   4.573  16.488  0.00  0.00    +0.000 C 
BRANCH  15  16
ATOM     16  C   UNL     1       5.837   3.838  15.828  0.00  0.00    +0.000 C 
BRANCH  16  17
ATOM     17  C   UNL     1       5.490   4.417  14.460  0.00  0.00    +0.000 C 
BRANCH  17  18
ATOM     18  C   UNL     1       6.761   4.688  13.655  0.00  0.00    +0.000 C 
BRANCH  18  19
ATOM     19  C   UNL     1       6.897   3.711  12.494  0.00  0.00    +0.000 C 
BRANCH  19  20
ATOM     20  C   UNL     1       5.541   3.149  12.094  0.00  0.00    +0.000 C 
BRANCH  20  21
ATOM     21  O   UNL     1       5.696   1.830  11.593  0.00  0.00    +0.000 OA
ATOM     22  H   UNL     1       6.501   1.458  11.995  0.00  0.00    +0.000 HD
ENDBRANCH  20  21
ENDBRANCH  19  20
ENDBRANCH  18  19
ENDBRANCH  17  18
ENDBRANCH  16  17
ENDBRANCH  15  16
ENDBRANCH  13  15
ENDBRANCH   4  13
TORSDOF 9
ENDMDL
MODEL 8
REMARK VINA RESULT:      -6.1      3.254      6.818
REMARK  Name = 
REMARK  9 active torsions:
REMARK  status: ('A' for Active; 'I' for Inactive)
REMARK    1  A    between atoms: N_2  and  C_4
REMARK    2  A    between atoms: C_7  and  S_8
REMARK    3  A    between atoms: S_8  and  C_10
REMARK    4  A    between atoms: C_10  and  C_11
REMARK    5  A    between atoms: C_11  and  C_12
REMARK    6  A    between atoms: C_12  and  C_13
REMARK    7  A    between atoms: C_13  and  C_14
REMARK    8  A    between atoms: C_14  and  C_15
REMARK    9  A    between atoms: C_15  and  O_16
REMARK                            x       y       z     vdW  Elec       q    Type
REMARK                         _______ _______ _______ _____ _____    ______ ____
ROOT
ATOM      1  C   UNL     1       2.204   3.878  18.815  0.00  0.00    +0.000 A 
ATOM      2  C   UNL     1       2.312   5.011  17.994  0.00  0.00    +0.000 A 
ATOM      3  C   UNL     1       3.570   5.613  17.740  0.00  0.00    +0.000 A 
ATOM      4  C   UNL     1       4.791   5.141  18.287  0.00  0.00    +0.000 A 
ATOM      5  C   UNL     1       4.680   3.970  19.076  0.00  0.00    +0.000 A 
ATOM      6  N   UNL     1       5.627   3.247  19.681  0.00  0.00    +0.000 NA
ATOM      7  O   UNL     1       4.974   2.204  20.312  0.00  0.00    +0.000 OA
ATOM      8  N   UNL     1       3.609   2.257  20.115  0.00  0.00    +0.000 NA
ATOM      9  C   UNL     1       3.381   3.328  19.346  0.00  0.00    +0.000 A 
ENDROOT
BRANCH   1  11
ATOM     10  O   UNL     1       0.383   3.682  20.166  0.00  0.00    +0.000 OA
ATOM     11  N   UNL     1       0.928   3.300  19.121  0.00  0.00    +0.000 N 
ATOM     12  O   UNL     1       0.517   2.409  18.375  0.00  0.00    +0.000 OA
ENDBRANCH   1  11
BRANCH   4  13
ATOM     13  S   UNL     1       6.370   5.885  17.902  0.00  0.00    +0.000 S 
ATOM     14  O   UNL     1       7.199   5.882  19.238  0.00  0.00    +0.000 OA
BRANCH  13  15
ATOM     15  C   UNL     1       7.090   4.600  16.819  0.00  0.00    +0.000 C 
BRANCH  15  16
ATOM     16  C   UNL     1       7.143   5.129  15.385  0.00  0.00    +0.000 C 
BRANCH  16  17
ATOM     17  C   UNL     1       5.811   4.961  14.659  0.00  0.00    +0.000 C 
BRANCH  17  18
ATOM     18  C   UNL     1       5.698   3.557  14.065  0.00  0.00    +0.000 C 
BRANCH  18  19
ATOM     19  C   UNL     1       5.472   3.612  12.559  0.00  0.00    +0.000 C 
BRANCH  19  20
ATOM     20  C   UNL     1       6.755   3.298  11.803  0.00  0.00    +0.000 C 
BRANCH  20  21
ATOM     21  O   UNL     1       6.873   1.895  11.621  0.00  0.00    +0.000 OA
ATOM     22  H   UNL     1       6.516   1.684  10.740  0.00  0.00    +0.000 HD
ENDBRANCH  20  21
ENDBRANCH  19  20
ENDBRANCH  18  19
ENDBRANCH  17  18
ENDBRANCH  16  17
ENDBRANCH  15  16
ENDBRANCH  13  15
ENDBRANCH   4  13
TORSDOF 9
ENDMDL
MODEL 9
REMARK VINA RESULT:      -6.0      4.191      5.368
REMARK  Name = 
REMARK  9 active torsions:
REMARK  status: ('A' for Active; 'I' for Inactive)
REMARK    1  A    between atoms: N_2  and  C_4
REMARK    2  A    between atoms: C_7  and  S_8
REMARK    3  A    between atoms: S_8  and  C_10
REMARK    4  A    between atoms: C_10  and  C_11
REMARK    5  A    between atoms: C_11  and  C_12
REMARK    6  A    between atoms: C_12  and  C_13
REMARK    7  A    between atoms: C_13  and  C_14
REMARK    8  A    between atoms: C_14  and  C_15
REMARK    9  A    between atoms: C_15  and  O_16
REMARK                            x       y       z     vdW  Elec       q    Type
REMARK                         _______ _______ _______ _____ _____    ______ ____
ROOT
ATOM      1  C   UNL     1       1.394   7.837  20.559  0.00  0.00    +0.000 A 
ATOM      2  C   UNL     1       1.971   6.574  20.753  0.00  0.00    +0.000 A 
ATOM      3  C   UNL     1       2.763   5.969  19.745  0.00  0.00    +0.000 A 
ATOM      4  C   UNL     1       3.022   6.568  18.485  0.00  0.00    +0.000 A 
ATOM      5  C   UNL     1       2.474   7.863  18.315  0.00  0.00    +0.000 A 
ATOM      6  N   UNL     1       2.576   8.712  17.288  0.00  0.00    +0.000 NA
ATOM      7  O   UNL     1       1.854   9.837  17.643  0.00  0.00    +0.000 OA
ATOM      8  N   UNL     1       1.288   9.711  18.896  0.00  0.00    +0.000 NA
ATOM      9  C   UNL     1       1.654   8.509  19.355  0.00  0.00    +0.000 A 
ENDROOT
BRANCH   1  11
ATOM     10  O   UNL     1      -0.634   8.052  21.570  0.00  0.00    +0.000 OA
ATOM     11  N   UNL     1       0.546   8.428  21.553  0.00  0.00    +0.000 N 
ATOM     12  O   UNL     1       1.029   9.324  22.249  0.00  0.00    +0.000 OA
ENDBRANCH   1  11
BRANCH   4  13
ATOM     13  S   UNL     1       4.072   5.807  17.254  0.00  0.00    +0.000 S 
ATOM     14  O   UNL     1       5.520   6.366  17.501  0.00  0.00    +0.000 OA
BRANCH  13  15
ATOM     15  C   UNL     1       4.058   4.072  17.831  0.00  0.00    +0.000 C 
BRANCH  15  16
ATOM     16  C   UNL     1       2.816   3.372  17.278  0.00  0.00    +0.000 C 
BRANCH  16  17
ATOM     17  C   UNL     1       2.274   2.317  18.237  0.00  0.00    +0.000 C 
BRANCH  17  18
ATOM     18  C   UNL     1       0.916   2.745  18.794  0.00  0.00    +0.000 C 
BRANCH  18  19
ATOM     19  C   UNL     1       0.968   2.905  20.309  0.00  0.00    +0.000 C 
BRANCH  19  20
ATOM     20  C   UNL     1       2.369   2.638  20.837  0.00  0.00    +0.000 C 
BRANCH  20  21
ATOM     21  O   UNL     1       2.425   2.936  22.224  0.00  0.00    +0.000 OA
ATOM     22  H   UNL     1       1.520   3.144  22.514  0.00  0.00    +0.000 HD
ENDBRANCH  20  21
ENDBRANCH  19  20
ENDBRANCH  18  19
ENDBRANCH  17  18
ENDBRANCH  16  17
ENDBRANCH  15  16
ENDBRANCH  13  15
ENDBRANCH   4  13
TORSDOF 9
ENDMDL
