MODEL 1
REMARK VINA RESULT:      -8.0      0.000      0.000
REMARK  Name = 
REMARK  2 active torsions:
REMARK  status: ('A' for Active; 'I' for Inactive)
REMARK    1  A    between atoms: N_9  and  C_10
REMARK    2  A    between atoms: C_10  and  C_11
REMARK                            x       y       z     vdW  Elec       q    Type
REMARK                         _______ _______ _______ _____ _____    ______ ____
ROOT
ATOM      1  O   UNL     1       5.449   4.335  13.868  0.00  0.00    +0.000 OA
ATOM      2  C   UNL     1       6.002   4.792  14.848  0.00  0.00    +0.000 A 
ATOM      3  N   UNL     1       7.166   5.552  14.860  0.00  0.00    +0.000 N 
ATOM      4  N   UNL     1       7.587   5.758  16.143  0.00  0.00    +0.000 NA
ATOM      5  C   UNL     1       6.668   5.187  16.873  0.00  0.00    +0.000 A 
ATOM      6  N   UNL     1       5.670   4.626  16.170  0.00  0.00    +0.000 N 
ATOM      7  C   UNL     1       4.622   3.753  16.629  0.00  0.00    +0.000 C 
ATOM      8  C   UNL     1       3.786   4.272  17.813  0.00  0.00    +0.000 C 
ATOM      9  N   UNL     1       4.240   5.435  18.608  0.00  0.00    +0.000 NA
ATOM     10  C   UNL     1       5.553   5.223  19.234  0.00  0.00    +0.000 C 
ATOM     11  C   UNL     1       6.796   5.070  18.360  0.00  0.00    +0.000 C 
ATOM     12  H   UNL     1       7.720   5.803  14.053  0.00  0.00    +0.000 HD
ENDROOT
BRANCH   9  13
ATOM     13  C   UNL     1       3.203   5.688  19.652  0.00  0.00    +0.000 C 
BRANCH  13  14
ATOM     14  C   UNL     1       2.443   6.993  19.506  0.00  0.00    +0.000 A 
ATOM     15  C   UNL     1       2.466   7.711  18.301  0.00  0.00    +0.000 A 
ATOM     16  C   UNL     1       1.833   8.954  18.206  0.00  0.00    +0.000 A 
ATOM     17  C   UNL     1       1.139   9.464  19.298  0.00  0.00    +0.000 A 
ATOM     18  F   UNL     1       0.552  10.666  19.186  0.00  0.00    +0.000 F 
ATOM     19  C   UNL     1       1.056   8.739  20.482  0.00  0.00    +0.000 A 
ATOM     20 BR   UNL     1       0.063   9.399  21.949  0.00  0.00    +0.000 Br
ATOM     21  C   UNL     1       1.713   7.511  20.592  0.00  0.00    +0.000 A 
ENDBRANCH  13  14
ENDBRANCH   9  13
TORSDOF 2
ENDMDL
MODEL 2
REMARK VINA RESULT:      -7.3      1.309      1.720
REMARK  Name = 
REMARK  2 active torsions:
REMARK  status: ('A' for Active; 'I' for Inactive)
REMARK    1  A    between atoms: N_9  and  C_10
REMARK    2  A    between atoms: C_10  and  C_11
REMARK                            x       y       z     vdW  Elec       q    Type
REMARK                         _______ _______ _______ _____ _____    ______ ____
ROOT
ATOM      1  O   UNL     1       6.366   3.906  13.677  0.00  0.00    +0.000 OA
ATOM      2  C   UNL     1       6.555   4.539  14.696  0.00  0.00    +0.000 A 
ATOM      3  N   UNL     1       7.452   5.588  14.863  0.00  0.00    +0.000 N 
ATOM      4  N   UNL     1       7.514   5.957  16.177  0.00  0.00    +0.000 NA
ATOM      5  C   UNL     1       6.635   5.189  16.762  0.00  0.00    +0.000 A 
ATOM      6  N   UNL     1       5.995   4.348  15.935  0.00  0.00    +0.000 N 
ATOM      7  C   UNL     1       5.131   3.243  16.262  0.00  0.00    +0.000 C 
ATOM      8  C   UNL     1       3.951   3.565  17.196  0.00  0.00    +0.000 C 
ATOM      9  N   UNL     1       3.905   4.843  17.943  0.00  0.00    +0.000 NA
ATOM     10  C   UNL     1       5.057   5.024  18.837  0.00  0.00    +0.000 C 
ATOM     11  C   UNL     1       6.459   5.177  18.249  0.00  0.00    +0.000 C 
ATOM     12  H   UNL     1       8.086   5.944  14.162  0.00  0.00    +0.000 HD
ENDROOT
BRANCH   9  13
ATOM     13  C   UNL     1       2.635   4.849  18.728  0.00  0.00    +0.000 C 
BRANCH  13  14
ATOM     14  C   UNL     1       2.233   6.197  19.297  0.00  0.00    +0.000 A 
ATOM     15  C   UNL     1       1.799   6.320  20.625  0.00  0.00    +0.000 A 
ATOM     16  C   UNL     1       1.351   7.552  21.112  0.00  0.00    +0.000 A 
ATOM     17  C   UNL     1       1.376   8.673  20.289  0.00  0.00    +0.000 A 
ATOM     18  F   UNL     1       0.926   9.841  20.775  0.00  0.00    +0.000 F 
ATOM     19  C   UNL     1       1.858   8.581  18.987  0.00  0.00    +0.000 A 
ATOM     20 BR   UNL     1       1.951  10.115  17.885  0.00  0.00    +0.000 Br
ATOM     21  C   UNL     1       2.278   7.347  18.487  0.00  0.00    +0.000 A 
ENDBRANCH  13  14
ENDBRANCH   9  13
TORSDOF 2
ENDMDL
MODEL 3
REMARK VINA RESULT:      -7.0      3.189      4.178
REMARK  Name = 
REMARK  2 active torsions:
REMARK  status: ('A' for Active; 'I' for Inactive)
REMARK    1  A    between atoms: N_9  and  C_10
REMARK    2  A    between atoms: C_10  and  C_11
REMARK                            x       y       z     vdW  Elec       q    Type
REMARK                         _______ _______ _______ _____ _____    ______ ____
ROOT
ATOM      1  O   UNL     1       1.196   2.465  20.957  0.00  0.00    +0.000 OA
ATOM      2  C   UNL     1       1.592   2.683  19.829  0.00  0.00    +0.000 A 
ATOM      3  N   UNL     1       1.382   1.884  18.711  0.00  0.00    +0.000 N 
ATOM      4  N   UNL     1       2.103   2.351  17.649  0.00  0.00    +0.000 NA
ATOM      5  C   UNL     1       2.677   3.430  18.108  0.00  0.00    +0.000 A 
ATOM      6  N   UNL     1       2.384   3.713  19.387  0.00  0.00    +0.000 N 
ATOM      7  C   UNL     1       2.989   4.689  20.256  0.00  0.00    +0.000 C 
ATOM      8  C   UNL     1       3.031   6.132  19.722  0.00  0.00    +0.000 C 
ATOM      9  N   UNL     1       2.756   6.418  18.296  0.00  0.00    +0.000 NA
ATOM     10  C   UNL     1       3.682   5.730  17.385  0.00  0.00    +0.000 C 
ATOM     11  C   UNL     1       3.670   4.205  17.297  0.00  0.00    +0.000 C 
ATOM     12  H   UNL     1       0.893   1.000  18.697  0.00  0.00    +0.000 HD
ENDROOT
BRANCH   9  13
ATOM     13  C   UNL     1       2.857   7.897  18.115  0.00  0.00    +0.000 C 
BRANCH  13  14
ATOM     14  C   UNL     1       1.695   8.696  18.675  0.00  0.00    +0.000 A 
ATOM     15  C   UNL     1       0.875   9.464  17.834  0.00  0.00    +0.000 A 
ATOM     16  C   UNL     1      -0.138  10.263  18.371  0.00  0.00    +0.000 A 
ATOM     17  C   UNL     1      -0.366  10.266  19.744  0.00  0.00    +0.000 A 
ATOM     18  F   UNL     1      -1.335  11.053  20.236  0.00  0.00    +0.000 F 
ATOM     19  C   UNL     1       0.400   9.465  20.586  0.00  0.00    +0.000 A 
ATOM     20 BR   UNL     1       0.055   9.418  22.445  0.00  0.00    +0.000 Br
ATOM     21  C   UNL     1       1.433   8.689  20.058  0.00  0.00    +0.000 A 
ENDBRANCH  13  14
ENDBRANCH   9  13
TORSDOF 2
ENDMDL
MODEL 4
REMARK VINA RESULT:      -6.9      2.922      4.041
REMARK  Name = 
REMARK  2 active torsions:
REMARK  status: ('A' for Active; 'I' for Inactive)
REMARK    1  A    between atoms: N_9  and  C_10
REMARK    2  A    between atoms: C_10  and  C_11
REMARK                            x       y       z     vdW  Elec       q    Type
REMARK                         _______ _______ _______ _____ _____    ______ ____
ROOT
ATOM      1  O   UNL     1       5.180   2.186  20.395  0.00  0.00    +0.000 OA
ATOM      2  C   UNL     1       4.056   2.534  20.093  0.00  0.00    +0.000 A 
ATOM      3  N   UNL     1       2.868   1.985  20.561  0.00  0.00    +0.000 N 
ATOM      4  N   UNL     1       1.802   2.513  19.890  0.00  0.00    +0.000 NA
ATOM      5  C   UNL     1       2.338   3.393  19.088  0.00  0.00    +0.000 A 
ATOM      6  N   UNL     1       3.674   3.489  19.184  0.00  0.00    +0.000 N 
ATOM      7  C   UNL     1       4.592   4.191  18.326  0.00  0.00    +0.000 C 
ATOM      8  C   UNL     1       4.286   5.680  18.088  0.00  0.00    +0.000 C 
ATOM      9  N   UNL     1       2.973   6.252  18.462  0.00  0.00    +0.000 NA
ATOM     10  C   UNL     1       1.848   5.598  17.777  0.00  0.00    +0.000 C 
ATOM     11  C   UNL     1       1.529   4.133  18.068  0.00  0.00    +0.000 C 
ATOM     12  H   UNL     1       2.784   1.205  21.197  0.00  0.00    +0.000 HD
ENDROOT
BRANCH   9  13
ATOM     13  C   UNL     1       3.010   7.705  18.122  0.00  0.00    +0.000 C 
BRANCH  13  14
ATOM     14  C   UNL     1       1.861   8.528  18.674  0.00  0.00    +0.000 A 
ATOM     15  C   UNL     1       1.081   9.334  17.832  0.00  0.00    +0.000 A 
ATOM     16  C   UNL     1       0.080  10.152  18.365  0.00  0.00    +0.000 A 
ATOM     17  C   UNL     1      -0.175  10.137  19.732  0.00  0.00    +0.000 A 
ATOM     18  F   UNL     1      -1.130  10.942  20.220  0.00  0.00    +0.000 F 
ATOM     19  C   UNL     1       0.551   9.299  20.574  0.00  0.00    +0.000 A 
ATOM     20 BR   UNL     1       0.168   9.229  22.424  0.00  0.00    +0.000 Br
ATOM     21  C   UNL     1       1.572   8.503  20.051  0.00  0.00    +0.000 A 
ENDBRANCH  13  14
ENDBRANCH   9  13
TORSDOF 2
ENDMDL
MODEL 5
REMARK VINA RESULT:      -6.9      2.096      2.474
REMARK  Name = 
REMARK  2 active torsions:
REMARK  status: ('A' for Active; 'I' for Inactive)
REMARK    1  A    between atoms: N_9  and  C_10
REMARK    2  A    between atoms: C_10  and  C_11
REMARK                            x       y       z     vdW  Elec       q    Type
REMARK                         _______ _______ _______ _____ _____    ______ ____
ROOT
ATOM      1  O   UNL     1       7.854   7.875  17.061  0.00  0.00    +0.000 OA
ATOM      2  C   UNL     1       7.519   7.069  17.906  0.00  0.00    +0.000 A 
ATOM      3  N   UNL     1       8.307   6.582  18.942  0.00  0.00    +0.000 N 
ATOM      4  N   UNL     1       7.660   5.576  19.601  0.00  0.00    +0.000 NA
ATOM      5  C   UNL     1       6.498   5.508  19.010  0.00  0.00    +0.000 A 
ATOM      6  N   UNL     1       6.328   6.396  18.018  0.00  0.00    +0.000 N 
ATOM      7  C   UNL     1       5.273   6.465  17.040  0.00  0.00    +0.000 C 
ATOM      8  C   UNL     1       3.839   6.488  17.598  0.00  0.00    +0.000 C 
ATOM      9  N   UNL     1       3.572   6.145  19.013  0.00  0.00    +0.000 NA
ATOM     10  C   UNL     1       4.013   4.788  19.366  0.00  0.00    +0.000 C 
ATOM     11  C   UNL     1       5.501   4.442  19.344  0.00  0.00    +0.000 C 
ATOM     12  H   UNL     1       9.275   6.817  19.112  0.00  0.00    +0.000 HD
ENDROOT
BRANCH   9  13
ATOM     13  C   UNL     1       2.102   6.284  19.231  0.00  0.00    +0.000 C 
BRANCH  13  14
ATOM     14  C   UNL     1       1.635   7.675  19.618  0.00  0.00    +0.000 A 
ATOM     15  C   UNL     1       1.680   8.734  18.698  0.00  0.00    +0.000 A 
ATOM     16  C   UNL     1       1.328  10.028  19.091  0.00  0.00    +0.000 A 
ATOM     17  C   UNL     1       0.887  10.263  20.389  0.00  0.00    +0.000 A 
ATOM     18  F   UNL     1       0.569  11.517  20.746  0.00  0.00    +0.000 F 
ATOM     19  C   UNL     1       0.781   9.215  21.298  0.00  0.00    +0.000 A 
ATOM     20 BR   UNL     1       0.125   9.518  23.045  0.00  0.00    +0.000 Br
ATOM     21  C   UNL     1       1.160   7.925  20.919  0.00  0.00    +0.000 A 
ENDBRANCH  13  14
ENDBRANCH   9  13
TORSDOF 2
ENDMDL
MODEL 6
REMARK VINA RESULT:      -6.8      2.271      2.934
REMARK  Name = 
REMARK  2 active torsions:
REMARK  status: ('A' for Active; 'I' for Inactive)
REMARK    1  A    between atoms: N_9  and  C_10
REMARK    2  A    between atoms: C_10  and  C_11
REMARK                            x       y       z     vdW  Elec       q    Type
REMARK                         _______ _______ _______ _____ _____    ______ ____
ROOT
ATOM      1  O   UNL     1       8.095   7.533  17.080  0.00  0.00    +0.000 OA
ATOM      2  C   UNL     1       7.595   6.843  17.947  0.00  0.00    +0.000 A 
ATOM      3  N   UNL     1       8.224   6.375  19.095  0.00  0.00    +0.000 N 
ATOM      4  N   UNL     1       7.412   5.501  19.760  0.00  0.00    +0.000 NA
ATOM      5  C   UNL     1       6.311   5.496  19.058  0.00  0.00    +0.000 A 
ATOM      6  N   UNL     1       6.333   6.304  17.986  0.00  0.00    +0.000 N 
ATOM      7  C   UNL     1       5.392   6.390  16.900  0.00  0.00    +0.000 C 
ATOM      8  C   UNL     1       3.921   6.604  17.301  0.00  0.00    +0.000 C 
ATOM      9  N   UNL     1       3.484   6.417  18.703  0.00  0.00    +0.000 NA
ATOM     10  C   UNL     1       3.741   5.060  19.206  0.00  0.00    +0.000 C 
ATOM     11  C   UNL     1       5.177   4.568  19.368  0.00  0.00    +0.000 C 
ATOM     12  H   UNL     1       9.190   6.527  19.346  0.00  0.00    +0.000 HD
ENDROOT
BRANCH   9  13
ATOM     13  C   UNL     1       2.023   6.721  18.754  0.00  0.00    +0.000 C 
BRANCH  13  14
ATOM     14  C   UNL     1       1.642   7.922  19.598  0.00  0.00    +0.000 A 
ATOM     15  C   UNL     1       1.501   7.812  20.989  0.00  0.00    +0.000 A 
ATOM     16  C   UNL     1       1.066   8.905  21.745  0.00  0.00    +0.000 A 
ATOM     17  C   UNL     1       0.813  10.123  21.122  0.00  0.00    +0.000 A 
ATOM     18  F   UNL     1       0.382  11.153  21.867  0.00  0.00    +0.000 F 
ATOM     19  C   UNL     1       1.004  10.266  19.751  0.00  0.00    +0.000 A 
ATOM     20 BR   UNL     1       0.720  11.935  18.908  0.00  0.00    +0.000 Br
ATOM     21  C   UNL     1       1.408   9.169  18.987  0.00  0.00    +0.000 A 
ENDBRANCH  13  14
ENDBRANCH   9  13
TORSDOF 2
ENDMDL
MODEL 7
REMARK VINA RESULT:      -6.8      3.677      4.805
REMARK  Name = 
REMARK  2 active torsions:
REMARK  status: ('A' for Active; 'I' for Inactive)
REMARK    1  A    between atoms: N_9  and  C_10
REMARK    2  A    between atoms: C_10  and  C_11
REMARK                            x       y       z     vdW  Elec       q    Type
REMARK                         _______ _______ _______ _____ _____    ______ ____
ROOT
ATOM      1  O   UNL     1       2.508   2.793  22.226  0.00  0.00    +0.000 OA
ATOM      2  C   UNL     1       1.966   2.991  21.156  0.00  0.00    +0.000 A 
ATOM      3  N   UNL     1       0.847   2.331  20.664  0.00  0.00    +0.000 N 
ATOM      4  N   UNL     1       0.611   2.694  19.368  0.00  0.00    +0.000 NA
ATOM      5  C   UNL     1       1.528   3.589  19.120  0.00  0.00    +0.000 A 
ATOM      6  N   UNL     1       2.346   3.847  20.153  0.00  0.00    +0.000 N 
ATOM      7  C   UNL     1       3.568   4.607  20.169  0.00  0.00    +0.000 C 
ATOM      8  C   UNL     1       3.479   6.036  19.604  0.00  0.00    +0.000 C 
ATOM      9  N   UNL     1       2.299   6.467  18.820  0.00  0.00    +0.000 NA
ATOM     10  C   UNL     1       2.083   5.651  17.617  0.00  0.00    +0.000 C 
ATOM     11  C   UNL     1       1.714   4.176  17.755  0.00  0.00    +0.000 C 
ATOM     12  H   UNL     1       0.351   1.579  21.122  0.00  0.00    +0.000 HD
ENDROOT
BRANCH   9  13
ATOM     13  C   UNL     1       2.516   7.896  18.445  0.00  0.00    +0.000 C 
BRANCH  13  14
ATOM     14  C   UNL     1       1.501   8.873  19.007  0.00  0.00    +0.000 A 
ATOM     15  C   UNL     1       0.886   9.828  18.184  0.00  0.00    +0.000 A 
ATOM     16  C   UNL     1       0.017  10.778  18.730  0.00  0.00    +0.000 A 
ATOM     17  C   UNL     1      -0.274  10.751  20.090  0.00  0.00    +0.000 A 
ATOM     18  F   UNL     1      -1.099  11.683  20.593  0.00  0.00    +0.000 F 
ATOM     19  C   UNL     1       0.282   9.775  20.911  0.00  0.00    +0.000 A 
ATOM     20 BR   UNL     1      -0.158   9.696  22.748  0.00  0.00    +0.000 Br
ATOM     21  C   UNL     1       1.174   8.843  20.376  0.00  0.00    +0.000 A 
ENDBRANCH  13  14
ENDBRANCH   9  13
TORSDOF 2
ENDMDL
MODEL 8
REMARK VINA RESULT:      -6.8      2.371      3.529
REMARK  Name = 
REMARK  2 active torsions:
REMARK  status: ('A' for Active; 'I' for Inactive)
REMARK    1  A    between atoms: N_9  and  C_10
REMARK    2  A    between atoms: C_10  and  C_11
REMARK                            x       y       z     vdW  Elec       q    Type
REMARK                         _______ _______ _______ _____ _____    ______ ____
ROOT
ATOM      1  O   UNL     1       7.127   4.618  18.531  0.00  0.00    +0.000 OA
ATOM      2  C   UNL     1       5.946   4.370  18.675  0.00  0.00    +0.000 A 
ATOM      3  N   UNL     1       5.407   3.305  19.388  0.00  0.00    +0.000 N 
ATOM      4  N   UNL     1       4.055   3.245  19.204  0.00  0.00    +0.000 NA
ATOM      5  C   UNL     1       3.793   4.280  18.453  0.00  0.00    +0.000 A 
ATOM      6  N   UNL     1       4.866   5.019  18.132  0.00  0.00    +0.000 N 
ATOM      7  C   UNL     1       4.972   6.087  17.172  0.00  0.00    +0.000 C 
ATOM      8  C   UNL     1       3.959   7.235  17.328  0.00  0.00    +0.000 C 
ATOM      9  N   UNL     1       2.774   7.085  18.204  0.00  0.00    +0.000 NA
ATOM     10  C   UNL     1       1.907   5.967  17.805  0.00  0.00    +0.000 C 
ATOM     11  C   UNL     1       2.422   4.532  17.903  0.00  0.00    +0.000 C 
ATOM     12  H   UNL     1       5.930   2.581  19.859  0.00  0.00    +0.000 HD
ENDROOT
BRANCH   9  13
ATOM     13  C   UNL     1       2.018   8.371  18.148  0.00  0.00    +0.000 C 
BRANCH  13  14
ATOM     14  C   UNL     1       1.480   8.862  19.479  0.00  0.00    +0.000 A 
ATOM     15  C   UNL     1       1.622   8.092  20.644  0.00  0.00    +0.000 A 
ATOM     16  C   UNL     1       1.047   8.516  21.846  0.00  0.00    +0.000 A 
ATOM     17  C   UNL     1       0.367   9.728  21.901  0.00  0.00    +0.000 A 
ATOM     18  F   UNL     1      -0.189  10.105  23.063  0.00  0.00    +0.000 F 
ATOM     19  C   UNL     1       0.267  10.532  20.769  0.00  0.00    +0.000 A 
ATOM     20 BR   UNL     1      -0.603  12.208  20.853  0.00  0.00    +0.000 Br
ATOM     21  C   UNL     1       0.813  10.099  19.559  0.00  0.00    +0.000 A 
ENDBRANCH  13  14
ENDBRANCH   9  13
TORSDOF 2
ENDMDL
MODEL 9
REMARK VINA RESULT:      -6.8      3.600      4.699
REMARK  Name = 
REMARK  2 active torsions:
REMARK  status: ('A' for Active; 'I' for Inactive)
REMARK    1  A    between atoms: N_9  and  C_10
REMARK    2  A    between atoms: C_10  and  C_11
REMARK                            x       y       z     vdW  Elec       q    Type
REMARK                         _______ _______ _______ _____ _____    ______ ____
ROOT
ATOM      1  O   UNL     1       0.546   3.427  20.393  0.00  0.00    +0.000 OA
ATOM      2  C   UNL     1       1.177   3.716  19.396  0.00  0.00    +0.000 A 
ATOM      3  N   UNL     1       1.304   2.944  18.247  0.00  0.00    +0.000 N 
ATOM      4  N   UNL     1       2.213   3.504  17.395  0.00  0.00    +0.000 NA
ATOM      5  C   UNL     1       2.570   4.607  17.995  0.00  0.00    +0.000 A 
ATOM      6  N   UNL     1       1.961   4.820  19.173  0.00  0.00    +0.000 N 
ATOM      7  C   UNL     1       2.259   5.807  20.177  0.00  0.00    +0.000 C 
ATOM      8  C   UNL     1       2.305   7.267  19.693  0.00  0.00    +0.000 C 
ATOM      9  N   UNL     1       2.351   7.583  18.247  0.00  0.00    +0.000 NA
ATOM     10  C   UNL     1       3.521   7.003  17.572  0.00  0.00    +0.000 C 
ATOM     11  C   UNL     1       3.657   5.486  17.458  0.00  0.00    +0.000 C 
ATOM     12  H   UNL     1       0.909   2.026  18.101  0.00  0.00    +0.000 HD
ENDROOT
BRANCH   9  13
ATOM     13  C   UNL     1       2.366   9.071  18.121  0.00  0.00    +0.000 C 
BRANCH  13  14
ATOM     14  C   UNL     1       1.059   9.762  18.462  0.00  0.00    +0.000 A 
ATOM     15  C   UNL     1       0.944  10.565  19.607  0.00  0.00    +0.000 A 
ATOM     16  C   UNL     1      -0.288  11.126  19.956  0.00  0.00    +0.000 A 
ATOM     17  C   UNL     1      -1.398  10.925  19.142  0.00  0.00    +0.000 A 
ATOM     18  F   UNL     1      -2.572  11.462  19.507  0.00  0.00    +0.000 F 
ATOM     19  C   UNL     1      -1.288  10.180  17.972  0.00  0.00    +0.000 A 
ATOM     20 BR   UNL     1      -2.778   9.955  16.830  0.00  0.00    +0.000 Br
ATOM     21  C   UNL     1      -0.067   9.592  17.634  0.00  0.00    +0.000 A 
ENDBRANCH  13  14
ENDBRANCH   9  13
TORSDOF 2
ENDMDL
