MODEL 1
REMARK VINA RESULT:      -6.6      0.000      0.000
REMARK  Name = 
REMARK  17 active torsions:
REMARK  status: ('A' for Active; 'I' for Inactive)
REMARK    1  A    between atoms: C_1  and  C_2
REMARK    2  A    between atoms: C_2  and  C_3
REMARK    3  A    between atoms: C_3  and  C_4
REMARK    4  A    between atoms: C_4  and  C_5
REMARK    5  A    between atoms: C_5  and  C_6
REMARK    6  A    between atoms: C_6  and  C_7
REMARK    7  A    between atoms: C_7  and  C_8
REMARK    8  A    between atoms: C_8  and  C_9
REMARK    9  A    between atoms: C_9  and  C_10
REMARK   10  A    between atoms: C_10  and  C_11
REMARK   11  A    between atoms: C_11  and  C_12
REMARK   12  A    between atoms: C_12  and  O_13
REMARK   13  A    between atoms: O_13  and  C_14
REMARK   14  A    between atoms: C_17  and  N_18
REMARK   15  A    between atoms: C_19  and  O_21
REMARK   16  A    between atoms: O_21  and  N_22
REMARK   17  A    between atoms: C_23  and  C_24
REMARK                            x       y       z     vdW  Elec       q    Type
REMARK                         _______ _______ _______ _____ _____    ______ ____
ROOT
ATOM      1  C   UNL     1       3.322   2.890  17.845  0.00  0.00    +0.000 A 
ATOM      2  C   UNL     1       4.346   2.957  18.780  0.00  0.00    +0.000 A 
ATOM      3  C   UNL     1       5.385   3.868  18.661  0.00  0.00    +0.000 A 
ATOM      4  C   UNL     1       5.484   4.727  17.573  0.00  0.00    +0.000 A 
ATOM      5  C   UNL     1       4.438   4.682  16.636  0.00  0.00    +0.000 A 
ATOM      6  C   UNL     1       3.366   3.769  16.763  0.00  0.00    +0.000 A 
ENDROOT
BRANCH   4   7
ATOM      7  N   UNL     1       6.603   5.604  17.405  0.00  0.00    +0.000 N 
ATOM      8  C   UNL     1       6.486   7.000  17.257  0.00  0.00    +0.000 C 
ATOM      9  O   UNL     1       5.456   7.624  17.258  0.00  0.00    +0.000 OA
ATOM     10  H   UNL     1       7.531   5.213  17.349  0.00  0.00    +0.000 HD
BRANCH   8  11
ATOM     11  O   UNL     1       7.734   7.607  17.077  0.00  0.00    +0.000 OA
BRANCH  11  12
ATOM     12  N   UNL     1       7.713   8.801  17.843  0.00  0.00    +0.000 NA
ATOM     13  C   UNL     1       8.885   9.328  18.018  0.00  0.00    +0.000 C 
BRANCH  13  14
ATOM     14  C   UNL     1       9.030  10.621  18.756  0.00  0.00    +0.000 A 
ATOM     15  C   UNL     1       9.277  10.652  20.136  0.00  0.00    +0.000 A 
ATOM     16  C   UNL     1       9.360  11.880  20.808  0.00  0.00    +0.000 A 
ATOM     17  C   UNL     1       9.220  13.077  20.105  0.00  0.00    +0.000 A 
ATOM     18  C   UNL     1       8.990  13.048  18.729  0.00  0.00    +0.000 A 
ATOM     19  C   UNL     1       8.895  11.823  18.056  0.00  0.00    +0.000 A 
ENDBRANCH  13  14
ENDBRANCH  11  12
ENDBRANCH   8  11
ENDBRANCH   4   7
BRANCH   1  20
ATOM     20  O   UNL     1       2.287   1.994  18.011  0.00  0.00    +0.000 OA
BRANCH  20  21
ATOM     21  C   UNL     1       1.238   2.487  18.877  0.00  0.00    +0.000 C 
BRANCH  21  22
ATOM     22  C   UNL     1       1.649   2.310  20.323  0.00  0.00    +0.000 C 
BRANCH  22  23
ATOM     23  C   UNL     1       1.201   3.500  21.162  0.00  0.00    +0.000 C 
BRANCH  23  24
ATOM     24  C   UNL     1       2.276   4.577  21.180  0.00  0.00    +0.000 C 
BRANCH  24  25
ATOM     25  C   UNL     1       1.805   5.814  20.429  0.00  0.00    +0.000 C 
BRANCH  25  26
ATOM     26  C   UNL     1       2.922   6.354  19.551  0.00  0.00    +0.000 C 
BRANCH  26  27
ATOM     27  C   UNL     1       2.350   7.243  18.458  0.00  0.00    +0.000 C 
BRANCH  27  28
ATOM     28  C   UNL     1       1.869   8.559  19.048  0.00  0.00    +0.000 C 
BRANCH  28  29
ATOM     29  C   UNL     1       1.507   9.534  17.938  0.00  0.00    +0.000 C 
BRANCH  29  30
ATOM     30  C   UNL     1       1.051  10.860  18.528  0.00  0.00    +0.000 C 
BRANCH  30  32
ATOM     31  C   UNL     1      -0.551  10.925  20.446  0.00  0.00    +0.000 C 
ATOM     32  C   UNL     1      -0.414  10.791  18.941  0.00  0.00    +0.000 C 
ENDBRANCH  30  32
ENDBRANCH  29  30
ENDBRANCH  28  29
ENDBRANCH  27  28
ENDBRANCH  26  27
ENDBRANCH  25  26
ENDBRANCH  24  25
ENDBRANCH  23  24
ENDBRANCH  22  23
ENDBRANCH  21  22
ENDBRANCH  20  21
ENDBRANCH   1  20
TORSDOF 16
ENDMDL
MODEL 2
REMARK VINA RESULT:      -6.6      4.011      7.013
REMARK  Name = 
REMARK  17 active torsions:
REMARK  status: ('A' for Active; 'I' for Inactive)
REMARK    1  A    between atoms: C_1  and  C_2
REMARK    2  A    between atoms: C_2  and  C_3
REMARK    3  A    between atoms: C_3  and  C_4
REMARK    4  A    between atoms: C_4  and  C_5
REMARK    5  A    between atoms: C_5  and  C_6
REMARK    6  A    between atoms: C_6  and  C_7
REMARK    7  A    between atoms: C_7  and  C_8
REMARK    8  A    between atoms: C_8  and  C_9
REMARK    9  A    between atoms: C_9  and  C_10
REMARK   10  A    between atoms: C_10  and  C_11
REMARK   11  A    between atoms: C_11  and  C_12
REMARK   12  A    between atoms: C_12  and  O_13
REMARK   13  A    between atoms: O_13  and  C_14
REMARK   14  A    between atoms: C_17  and  N_18
REMARK   15  A    between atoms: C_19  and  O_21
REMARK   16  A    between atoms: O_21  and  N_22
REMARK   17  A    between atoms: C_23  and  C_24
REMARK                            x       y       z     vdW  Elec       q    Type
REMARK                         _______ _______ _______ _____ _____    ______ ____
ROOT
ATOM      1  C   UNL     1       2.306   7.243  19.354  0.00  0.00    +0.000 A 
ATOM      2  C   UNL     1       2.292   7.814  18.090  0.00  0.00    +0.000 A 
ATOM      3  C   UNL     1       1.698   9.044  17.851  0.00  0.00    +0.000 A 
ATOM      4  C   UNL     1       1.040   9.747  18.855  0.00  0.00    +0.000 A 
ATOM      5  C   UNL     1       1.073   9.186  20.142  0.00  0.00    +0.000 A 
ATOM      6  C   UNL     1       1.695   7.942  20.395  0.00  0.00    +0.000 A 
ENDROOT
BRANCH   4   7
ATOM      7  N   UNL     1       0.352  10.973  18.589  0.00  0.00    +0.000 N 
ATOM      8  C   UNL     1      -1.035  11.056  18.355  0.00  0.00    +0.000 C 
ATOM      9  O   UNL     1      -1.805  10.131  18.355  0.00  0.00    +0.000 OA
ATOM     10  H   UNL     1       0.881  11.830  18.524  0.00  0.00    +0.000 HD
BRANCH   8  11
ATOM     11  O   UNL     1      -1.436  12.371  18.090  0.00  0.00    +0.000 OA
BRANCH  11  12
ATOM     12  N   UNL     1      -0.254  13.156  18.084  0.00  0.00    +0.000 NA
ATOM     13  C   UNL     1      -0.368  14.274  18.731  0.00  0.00    +0.000 C 
BRANCH  13  14
ATOM     14  C   UNL     1       0.805  15.191  18.869  0.00  0.00    +0.000 A 
ATOM     15  C   UNL     1       0.639  16.556  19.144  0.00  0.00    +0.000 A 
ATOM     16  C   UNL     1       1.756  17.400  19.220  0.00  0.00    +0.000 A 
ATOM     17  C   UNL     1       3.040  16.883  19.045  0.00  0.00    +0.000 A 
ATOM     18  C   UNL     1       3.208  15.522  18.786  0.00  0.00    +0.000 A 
ATOM     19  C   UNL     1       2.094  14.678  18.699  0.00  0.00    +0.000 A 
ENDBRANCH  13  14
ENDBRANCH  11  12
ENDBRANCH   8  11
ENDBRANCH   4   7
BRANCH   1  20
ATOM     20  O   UNL     1       2.934   6.033  19.563  0.00  0.00    +0.000 OA
BRANCH  20  21
ATOM     21  C   UNL     1       2.402   5.300  20.692  0.00  0.00    +0.000 C 
BRANCH  21  22
ATOM     22  C   UNL     1       1.102   4.633  20.297  0.00  0.00    +0.000 C 
BRANCH  22  23
ATOM     23  C   UNL     1       1.046   3.204  20.821  0.00  0.00    +0.000 C 
BRANCH  23  24
ATOM     24  C   UNL     1       1.996   2.310  20.037  0.00  0.00    +0.000 C 
BRANCH  24  25
ATOM     25  C   UNL     1       1.538   2.183  18.591  0.00  0.00    +0.000 C 
BRANCH  25  26
ATOM     26  C   UNL     1       2.737   2.185  17.656  0.00  0.00    +0.000 C 
BRANCH  26  27
ATOM     27  C   UNL     1       2.989   3.587  17.125  0.00  0.00    +0.000 C 
BRANCH  27  28
ATOM     28  C   UNL     1       4.478   3.890  17.121  0.00  0.00    +0.000 C 
BRANCH  28  29
ATOM     29  C   UNL     1       4.971   4.100  15.697  0.00  0.00    +0.000 C 
BRANCH  29  30
ATOM     30  C   UNL     1       5.915   5.291  15.635  0.00  0.00    +0.000 C 
BRANCH  30  32
ATOM     31  C   UNL     1       6.170   7.156  17.281  0.00  0.00    +0.000 C 
ATOM     32  C   UNL     1       5.263   6.528  16.240  0.00  0.00    +0.000 C 
ENDBRANCH  30  32
ENDBRANCH  29  30
ENDBRANCH  28  29
ENDBRANCH  27  28
ENDBRANCH  26  27
ENDBRANCH  25  26
ENDBRANCH  24  25
ENDBRANCH  23  24
ENDBRANCH  22  23
ENDBRANCH  21  22
ENDBRANCH  20  21
ENDBRANCH   1  20
TORSDOF 16
ENDMDL
MODEL 3
REMARK VINA RESULT:      -6.4      1.334      1.784
REMARK  Name = 
REMARK  17 active torsions:
REMARK  status: ('A' for Active; 'I' for Inactive)
REMARK    1  A    between atoms: C_1  and  C_2
REMARK    2  A    between atoms: C_2  and  C_3
REMARK    3  A    between atoms: C_3  and  C_4
REMARK    4  A    between atoms: C_4  and  C_5
REMARK    5  A    between atoms: C_5  and  C_6
REMARK    6  A    between atoms: C_6  and  C_7
REMARK    7  A    between atoms: C_7  and  C_8
REMARK    8  A    between atoms: C_8  and  C_9
REMARK    9  A    between atoms: C_9  and  C_10
REMARK   10  A    between atoms: C_10  and  C_11
REMARK   11  A    between atoms: C_11  and  C_12
REMARK   12  A    between atoms: C_12  and  O_13
REMARK   13  A    between atoms: O_13  and  C_14
REMARK   14  A    between atoms: C_17  and  N_18
REMARK   15  A    between atoms: C_19  and  O_21
REMARK   16  A    between atoms: O_21  and  N_22
REMARK   17  A    between atoms: C_23  and  C_24
REMARK                            x       y       z     vdW  Elec       q    Type
REMARK                         _______ _______ _______ _____ _____    ______ ____
ROOT
ATOM      1  C   UNL     1       4.574   3.589  17.901  0.00  0.00    +0.000 A 
ATOM      2  C   UNL     1       5.051   4.453  18.877  0.00  0.00    +0.000 A 
ATOM      3  C   UNL     1       5.719   5.624  18.552  0.00  0.00    +0.000 A 
ATOM      4  C   UNL     1       5.989   5.971  17.233  0.00  0.00    +0.000 A 
ATOM      5  C   UNL     1       5.485   5.115  16.240  0.00  0.00    +0.000 A 
ATOM      6  C   UNL     1       4.787   3.929  16.565  0.00  0.00    +0.000 A 
ENDROOT
BRANCH   4   7
ATOM      7  N   UNL     1       6.753   7.135  16.902  0.00  0.00    +0.000 N 
ATOM      8  C   UNL     1       7.796   7.639  17.702  0.00  0.00    +0.000 C 
ATOM      9  O   UNL     1       8.177   7.166  18.741  0.00  0.00    +0.000 OA
ATOM     10  H   UNL     1       6.519   7.657  16.071  0.00  0.00    +0.000 HD
BRANCH   8  11
ATOM     11  O   UNL     1       8.349   8.805  17.157  0.00  0.00    +0.000 OA
BRANCH  11  12
ATOM     12  N   UNL     1       8.262   9.798  18.166  0.00  0.00    +0.000 NA
ATOM     13  C   UNL     1       9.336  10.517  18.282  0.00  0.00    +0.000 C 
BRANCH  13  14
ATOM     14  C   UNL     1       9.387  11.645  19.263  0.00  0.00    +0.000 A 
ATOM     15  C   UNL     1       9.888  11.466  20.560  0.00  0.00    +0.000 A 
ATOM     16  C   UNL     1       9.879  12.531  21.472  0.00  0.00    +0.000 A 
ATOM     17  C   UNL     1       9.394  13.781  21.086  0.00  0.00    +0.000 A 
ATOM     18  C   UNL     1       8.910  13.966  19.791  0.00  0.00    +0.000 A 
ATOM     19  C   UNL     1       8.907  12.901  18.881  0.00  0.00    +0.000 A 
ENDBRANCH  13  14
ENDBRANCH  11  12
ENDBRANCH   8  11
ENDBRANCH   4   7
BRANCH   1  20
ATOM     20  O   UNL     1       3.887   2.448  18.259  0.00  0.00    +0.000 OA
BRANCH  20  21
ATOM     21  C   UNL     1       3.493   2.431  19.651  0.00  0.00    +0.000 C 
BRANCH  21  22
ATOM     22  C   UNL     1       2.004   2.180  19.755  0.00  0.00    +0.000 C 
BRANCH  22  23
ATOM     23  C   UNL     1       1.249   2.951  18.679  0.00  0.00    +0.000 C 
BRANCH  23  24
ATOM     24  C   UNL     1       1.389   4.451  18.899  0.00  0.00    +0.000 C 
BRANCH  24  25
ATOM     25  C   UNL     1       1.207   4.793  20.371  0.00  0.00    +0.000 C 
BRANCH  25  26
ATOM     26  C   UNL     1       2.202   5.864  20.790  0.00  0.00    +0.000 C 
BRANCH  26  27
ATOM     27  C   UNL     1       1.816   7.205  20.186  0.00  0.00    +0.000 C 
BRANCH  27  28
ATOM     28  C   UNL     1       1.065   8.046  21.207  0.00  0.00    +0.000 C 
BRANCH  28  29
ATOM     29  C   UNL     1       1.044   9.505  20.776  0.00  0.00    +0.000 C 
BRANCH  29  30
ATOM     30  C   UNL     1      -0.256   9.824  20.053  0.00  0.00    +0.000 C 
BRANCH  30  32
ATOM     31  C   UNL     1      -1.251  10.040  17.770  0.00  0.00    +0.000 C 
ATOM     32  C   UNL     1       0.012  10.188  18.598  0.00  0.00    +0.000 C 
ENDBRANCH  30  32
ENDBRANCH  29  30
ENDBRANCH  28  29
ENDBRANCH  27  28
ENDBRANCH  26  27
ENDBRANCH  25  26
ENDBRANCH  24  25
ENDBRANCH  23  24
ENDBRANCH  22  23
ENDBRANCH  21  22
ENDBRANCH  20  21
ENDBRANCH   1  20
TORSDOF 16
ENDMDL
MODEL 4
REMARK VINA RESULT:      -6.3      3.949      8.352
REMARK  Name = 
REMARK  17 active torsions:
REMARK  status: ('A' for Active; 'I' for Inactive)
REMARK    1  A    between atoms: C_1  and  C_2
REMARK    2  A    between atoms: C_2  and  C_3
REMARK    3  A    between atoms: C_3  and  C_4
REMARK    4  A    between atoms: C_4  and  C_5
REMARK    5  A    between atoms: C_5  and  C_6
REMARK    6  A    between atoms: C_6  and  C_7
REMARK    7  A    between atoms: C_7  and  C_8
REMARK    8  A    between atoms: C_8  and  C_9
REMARK    9  A    between atoms: C_9  and  C_10
REMARK   10  A    between atoms: C_10  and  C_11
REMARK   11  A    between atoms: C_11  and  C_12
REMARK   12  A    between atoms: C_12  and  O_13
REMARK   13  A    between atoms: O_13  and  C_14
REMARK   14  A    between atoms: C_17  and  N_18
REMARK   15  A    between atoms: C_19  and  O_21
REMARK   16  A    between atoms: O_21  and  N_22
REMARK   17  A    between atoms: C_23  and  C_24
REMARK                            x       y       z     vdW  Elec       q    Type
REMARK                         _______ _______ _______ _____ _____    ______ ____
ROOT
ATOM      1  C   UNL     1       1.968   5.088  18.446  0.00  0.00    +0.000 A 
ATOM      2  C   UNL     1       2.268   6.396  18.090  0.00  0.00    +0.000 A 
ATOM      3  C   UNL     1       2.291   7.420  19.024  0.00  0.00    +0.000 A 
ATOM      4  C   UNL     1       1.965   7.202  20.358  0.00  0.00    +0.000 A 
ATOM      5  C   UNL     1       1.686   5.876  20.730  0.00  0.00    +0.000 A 
ATOM      6  C   UNL     1       1.680   4.824  19.785  0.00  0.00    +0.000 A 
ENDROOT
BRANCH   4   7
ATOM      7  N   UNL     1       1.904   8.274  21.304  0.00  0.00    +0.000 N 
ATOM      8  C   UNL     1       0.702   8.778  21.837  0.00  0.00    +0.000 C 
ATOM      9  O   UNL     1      -0.404   8.379  21.579  0.00  0.00    +0.000 OA
ATOM     10  H   UNL     1       2.758   8.731  21.585  0.00  0.00    +0.000 HD
BRANCH   8  11
ATOM     11  O   UNL     1       0.932   9.847  22.711  0.00  0.00    +0.000 OA
BRANCH  11  12
ATOM     12  N   UNL     1      -0.337  10.416  22.991  0.00  0.00    +0.000 NA
ATOM     13  C   UNL     1      -0.600  11.473  22.285  0.00  0.00    +0.000 C 
BRANCH  13  14
ATOM     14  C   UNL     1      -1.922  12.160  22.418  0.00  0.00    +0.000 A 
ATOM     15  C   UNL     1      -2.521  12.809  21.329  0.00  0.00    +0.000 A 
ATOM     16  C   UNL     1      -3.738  13.486  21.497  0.00  0.00    +0.000 A 
ATOM     17  C   UNL     1      -4.370  13.498  22.741  0.00  0.00    +0.000 A 
ATOM     18  C   UNL     1      -3.782  12.839  23.821  0.00  0.00    +0.000 A 
ATOM     19  C   UNL     1      -2.562  12.171  23.661  0.00  0.00    +0.000 A 
ENDBRANCH  13  14
ENDBRANCH  11  12
ENDBRANCH   8  11
ENDBRANCH   4   7
BRANCH   1  20
ATOM     20  O   UNL     1       1.985   4.088  17.497  0.00  0.00    +0.000 OA
BRANCH  20  21
ATOM     21  C   UNL     1       2.919   3.026  17.802  0.00  0.00    +0.000 C 
BRANCH  21  22
ATOM     22  C   UNL     1       4.262   3.337  17.177  0.00  0.00    +0.000 C 
BRANCH  22  23
ATOM     23  C   UNL     1       5.369   3.293  18.223  0.00  0.00    +0.000 C 
BRANCH  23  24
ATOM     24  C   UNL     1       5.218   4.442  19.210  0.00  0.00    +0.000 C 
BRANCH  24  25
ATOM     25  C   UNL     1       6.415   5.379  19.125  0.00  0.00    +0.000 C 
BRANCH  25  26
ATOM     26  C   UNL     1       6.113   6.535  18.186  0.00  0.00    +0.000 C 
BRANCH  26  27
ATOM     27  C   UNL     1       7.020   6.475  16.967  0.00  0.00    +0.000 C 
BRANCH  27  28
ATOM     28  C   UNL     1       6.274   5.885  15.782  0.00  0.00    +0.000 C 
BRANCH  28  29
ATOM     29  C   UNL     1       7.093   4.774  15.142  0.00  0.00    +0.000 C 
BRANCH  29  30
ATOM     30  C   UNL     1       6.785   4.679  13.656  0.00  0.00    +0.000 C 
BRANCH  30  32
ATOM     31  C   UNL     1       5.250   3.501  12.073  0.00  0.00    +0.000 C 
ATOM     32  C   UNL     1       6.085   3.365  13.332  0.00  0.00    +0.000 C 
ENDBRANCH  30  32
ENDBRANCH  29  30
ENDBRANCH  28  29
ENDBRANCH  27  28
ENDBRANCH  26  27
ENDBRANCH  25  26
ENDBRANCH  24  25
ENDBRANCH  23  24
ENDBRANCH  22  23
ENDBRANCH  21  22
ENDBRANCH  20  21
ENDBRANCH   1  20
TORSDOF 16
ENDMDL
MODEL 5
REMARK VINA RESULT:      -6.3      3.710      6.847
REMARK  Name = 
REMARK  17 active torsions:
REMARK  status: ('A' for Active; 'I' for Inactive)
REMARK    1  A    between atoms: C_1  and  C_2
REMARK    2  A    between atoms: C_2  and  C_3
REMARK    3  A    between atoms: C_3  and  C_4
REMARK    4  A    between atoms: C_4  and  C_5
REMARK    5  A    between atoms: C_5  and  C_6
REMARK    6  A    between atoms: C_6  and  C_7
REMARK    7  A    between atoms: C_7  and  C_8
REMARK    8  A    between atoms: C_8  and  C_9
REMARK    9  A    between atoms: C_9  and  C_10
REMARK   10  A    between atoms: C_10  and  C_11
REMARK   11  A    between atoms: C_11  and  C_12
REMARK   12  A    between atoms: C_12  and  O_13
REMARK   13  A    between atoms: O_13  and  C_14
REMARK   14  A    between atoms: C_17  and  N_18
REMARK   15  A    between atoms: C_19  and  O_21
REMARK   16  A    between atoms: O_21  and  N_22
REMARK   17  A    between atoms: C_23  and  C_24
REMARK                            x       y       z     vdW  Elec       q    Type
REMARK                         _______ _______ _______ _____ _____    ______ ____
ROOT
ATOM      1  C   UNL     1       2.485   6.294  19.585  0.00  0.00    +0.000 A 
ATOM      2  C   UNL     1       2.799   7.202  18.582  0.00  0.00    +0.000 A 
ATOM      3  C   UNL     1       3.764   6.927  17.625  0.00  0.00    +0.000 A 
ATOM      4  C   UNL     1       4.503   5.749  17.647  0.00  0.00    +0.000 A 
ATOM      5  C   UNL     1       4.172   4.816  18.643  0.00  0.00    +0.000 A 
ATOM      6  C   UNL     1       3.175   5.083  19.610  0.00  0.00    +0.000 A 
ENDROOT
BRANCH   4   7
ATOM      7  N   UNL     1       5.558   5.505  16.712  0.00  0.00    +0.000 N 
ATOM      8  C   UNL     1       6.831   6.101  16.795  0.00  0.00    +0.000 C 
ATOM      9  O   UNL     1       7.192   6.871  17.647  0.00  0.00    +0.000 OA
ATOM     10  H   UNL     1       5.384   4.903  15.921  0.00  0.00    +0.000 HD
BRANCH   8  11
ATOM     11  O   UNL     1       7.655   5.711  15.733  0.00  0.00    +0.000 OA
BRANCH  11  12
ATOM     12  N   UNL     1       6.905   4.783  14.966  0.00  0.00    +0.000 NA
ATOM     13  C   UNL     1       7.141   4.849  13.692  0.00  0.00    +0.000 C 
BRANCH  13  14
ATOM     14  C   UNL     1       6.474   3.899  12.749  0.00  0.00    +0.000 A 
ATOM     15  C   UNL     1       5.086   3.921  12.548  0.00  0.00    +0.000 A 
ATOM     16  C   UNL     1       4.484   2.987  11.694  0.00  0.00    +0.000 A 
ATOM     17  C   UNL     1       5.263   2.045  11.021  0.00  0.00    +0.000 A 
ATOM     18  C   UNL     1       6.646   2.031  11.208  0.00  0.00    +0.000 A 
ATOM     19  C   UNL     1       7.250   2.956  12.069  0.00  0.00    +0.000 A 
ENDBRANCH  13  14
ENDBRANCH  11  12
ENDBRANCH   8  11
ENDBRANCH   4   7
BRANCH   1  20
ATOM     20  O   UNL     1       1.498   6.587  20.502  0.00  0.00    +0.000 OA
BRANCH  20  21
ATOM     21  C   UNL     1       1.676   7.873  21.142  0.00  0.00    +0.000 C 
BRANCH  21  22
ATOM     22  C   UNL     1       0.566   8.809  20.715  0.00  0.00    +0.000 C 
BRANCH  22  23
ATOM     23  C   UNL     1      -0.575   8.791  21.725  0.00  0.00    +0.000 C 
BRANCH  23  24
ATOM     24  C   UNL     1      -0.333   9.818  22.822  0.00  0.00    +0.000 C 
BRANCH  24  25
ATOM     25  C   UNL     1      -0.251  11.219  22.234  0.00  0.00    +0.000 C 
BRANCH  25  26
ATOM     26  C   UNL     1      -1.632  11.853  22.188  0.00  0.00    +0.000 C 
BRANCH  26  27
ATOM     27  C   UNL     1      -1.995  12.222  20.758  0.00  0.00    +0.000 C 
BRANCH  27  28
ATOM     28  C   UNL     1      -0.766  12.147  19.866  0.00  0.00    +0.000 C 
BRANCH  28  29
ATOM     29  C   UNL     1      -1.125  11.530  18.523  0.00  0.00    +0.000 C 
BRANCH  29  30
ATOM     30  C   UNL     1      -2.633  11.368  18.402  0.00  0.00    +0.000 C 
BRANCH  30  32
ATOM     31  C   UNL     1      -2.962   9.926  16.386  0.00  0.00    +0.000 C 
ATOM     32  C   UNL     1      -2.987   9.972  17.902  0.00  0.00    +0.000 C 
ENDBRANCH  30  32
ENDBRANCH  29  30
ENDBRANCH  28  29
ENDBRANCH  27  28
ENDBRANCH  26  27
ENDBRANCH  25  26
ENDBRANCH  24  25
ENDBRANCH  23  24
ENDBRANCH  22  23
ENDBRANCH  21  22
ENDBRANCH  20  21
ENDBRANCH   1  20
TORSDOF 16
ENDMDL
MODEL 6
REMARK VINA RESULT:      -6.3      4.125      8.706
REMARK  Name = 
REMARK  17 active torsions:
REMARK  status: ('A' for Active; 'I' for Inactive)
REMARK    1  A    between atoms: C_1  and  C_2
REMARK    2  A    between atoms: C_2  and  C_3
REMARK    3  A    between atoms: C_3  and  C_4
REMARK    4  A    between atoms: C_4  and  C_5
REMARK    5  A    between atoms: C_5  and  C_6
REMARK    6  A    between atoms: C_6  and  C_7
REMARK    7  A    between atoms: C_7  and  C_8
REMARK    8  A    between atoms: C_8  and  C_9
REMARK    9  A    between atoms: C_9  and  C_10
REMARK   10  A    between atoms: C_10  and  C_11
REMARK   11  A    between atoms: C_11  and  C_12
REMARK   12  A    between atoms: C_12  and  O_13
REMARK   13  A    between atoms: O_13  and  C_14
REMARK   14  A    between atoms: C_17  and  N_18
REMARK   15  A    between atoms: C_19  and  O_21
REMARK   16  A    between atoms: O_21  and  N_22
REMARK   17  A    between atoms: C_23  and  C_24
REMARK                            x       y       z     vdW  Elec       q    Type
REMARK                         _______ _______ _______ _____ _____    ______ ____
ROOT
ATOM      1  C   UNL     1       2.411   7.027  19.601  0.00  0.00    +0.000 A 
ATOM      2  C   UNL     1       2.522   7.423  18.276  0.00  0.00    +0.000 A 
ATOM      3  C   UNL     1       1.935   8.590  17.812  0.00  0.00    +0.000 A 
ATOM      4  C   UNL     1       1.163   9.400  18.637  0.00  0.00    +0.000 A 
ATOM      5  C   UNL     1       1.069   9.019  19.986  0.00  0.00    +0.000 A 
ATOM      6  C   UNL     1       1.682   7.839  20.469  0.00  0.00    +0.000 A 
ENDROOT
BRANCH   4   7
ATOM      7  N   UNL     1       0.486  10.558  18.137  0.00  0.00    +0.000 N 
ATOM      8  C   UNL     1       0.346  11.757  18.863  0.00  0.00    +0.000 C 
ATOM      9  O   UNL     1       0.774  11.962  19.969  0.00  0.00    +0.000 OA
ATOM     10  H   UNL     1       0.044  10.516  17.231  0.00  0.00    +0.000 HD
BRANCH   8  11
ATOM     11  O   UNL     1      -0.389  12.710  18.149  0.00  0.00    +0.000 OA
BRANCH  11  12
ATOM     12  N   UNL     1      -1.681  12.738  18.733  0.00  0.00    +0.000 NA
ATOM     13  C   UNL     1      -2.520  11.918  18.179  0.00  0.00    +0.000 C 
BRANCH  13  14
ATOM     14  C   UNL     1      -3.911  11.784  18.713  0.00  0.00    +0.000 A 
ATOM     15  C   UNL     1      -4.315  12.452  19.878  0.00  0.00    +0.000 A 
ATOM     16  C   UNL     1      -5.611  12.268  20.381  0.00  0.00    +0.000 A 
ATOM     17  C   UNL     1      -6.512  11.439  19.713  0.00  0.00    +0.000 A 
ATOM     18  C   UNL     1      -6.117  10.786  18.546  0.00  0.00    +0.000 A 
ATOM     19  C   UNL     1      -4.820  10.958  18.046  0.00  0.00    +0.000 A 
ENDBRANCH  13  14
ENDBRANCH  11  12
ENDBRANCH   8  11
ENDBRANCH   4   7
BRANCH   1  20
ATOM     20  O   UNL     1       3.033   5.876  20.037  0.00  0.00    +0.000 OA
BRANCH  20  21
ATOM     21  C   UNL     1       2.229   5.106  20.962  0.00  0.00    +0.000 C 
BRANCH  21  22
ATOM     22  C   UNL     1       2.697   3.667  20.965  0.00  0.00    +0.000 C 
BRANCH  22  23
ATOM     23  C   UNL     1       1.533   2.718  20.709  0.00  0.00    +0.000 C 
BRANCH  23  24
ATOM     24  C   UNL     1       0.626   3.269  19.618  0.00  0.00    +0.000 C 
BRANCH  24  25
ATOM     25  C   UNL     1       1.364   3.324  18.288  0.00  0.00    +0.000 C 
BRANCH  25  26
ATOM     26  C   UNL     1       2.287   2.125  18.147  0.00  0.00    +0.000 C 
BRANCH  26  27
ATOM     27  C   UNL     1       3.465   2.471  17.250  0.00  0.00    +0.000 C 
BRANCH  27  28
ATOM     28  C   UNL     1       3.707   3.971  17.252  0.00  0.00    +0.000 C 
BRANCH  28  29
ATOM     29  C   UNL     1       4.925   4.311  16.406  0.00  0.00    +0.000 C 
BRANCH  29  30
ATOM     30  C   UNL     1       5.357   5.748  16.656  0.00  0.00    +0.000 C 
BRANCH  30  32
ATOM     31  C   UNL     1       7.428   4.972  17.823  0.00  0.00    +0.000 C 
ATOM     32  C   UNL     1       6.192   5.846  17.927  0.00  0.00    +0.000 C 
ENDBRANCH  30  32
ENDBRANCH  29  30
ENDBRANCH  28  29
ENDBRANCH  27  28
ENDBRANCH  26  27
ENDBRANCH  25  26
ENDBRANCH  24  25
ENDBRANCH  23  24
ENDBRANCH  22  23
ENDBRANCH  21  22
ENDBRANCH  20  21
ENDBRANCH   1  20
TORSDOF 16
ENDMDL
MODEL 7
REMARK VINA RESULT:      -6.3      4.844      9.868
REMARK  Name = 
REMARK  17 active torsions:
REMARK  status: ('A' for Active; 'I' for Inactive)
REMARK    1  A    between atoms: C_1  and  C_2
REMARK    2  A    between atoms: C_2  and  C_3
REMARK    3  A    between atoms: C_3  and  C_4
REMARK    4  A    between atoms: C_4  and  C_5
REMARK    5  A    between atoms: C_5  and  C_6
REMARK    6  A    between atoms: C_6  and  C_7
REMARK    7  A    between atoms: C_7  and  C_8
REMARK    8  A    between atoms: C_8  and  C_9
REMARK    9  A    between atoms: C_9  and  C_10
REMARK   10  A    between atoms: C_10  and  C_11
REMARK   11  A    between atoms: C_11  and  C_12
REMARK   12  A    between atoms: C_12  and  O_13
REMARK   13  A    between atoms: O_13  and  C_14
REMARK   14  A    between atoms: C_17  and  N_18
REMARK   15  A    between atoms: C_19  and  O_21
REMARK   16  A    between atoms: O_21  and  N_22
REMARK   17  A    between atoms: C_23  and  C_24
REMARK                            x       y       z     vdW  Elec       q    Type
REMARK                         _______ _______ _______ _____ _____    ______ ____
ROOT
ATOM      1  C   UNL     1       2.161   7.731  18.918  0.00  0.00    +0.000 A 
ATOM      2  C   UNL     1       1.983   7.550  20.282  0.00  0.00    +0.000 A 
ATOM      3  C   UNL     1       1.347   8.500  21.067  0.00  0.00    +0.000 A 
ATOM      4  C   UNL     1       0.899   9.706  20.540  0.00  0.00    +0.000 A 
ATOM      5  C   UNL     1       1.053   9.883  19.154  0.00  0.00    +0.000 A 
ATOM      6  C   UNL     1       1.683   8.910  18.346  0.00  0.00    +0.000 A 
ENDROOT
BRANCH   4   7
ATOM      7  N   UNL     1       0.322  10.722  21.366  0.00  0.00    +0.000 N 
ATOM      8  C   UNL     1      -0.301  10.464  22.602  0.00  0.00    +0.000 C 
ATOM      9  O   UNL     1      -0.422   9.382  23.117  0.00  0.00    +0.000 OA
ATOM     10  H   UNL     1       0.319  11.677  21.041  0.00  0.00    +0.000 HD
BRANCH   8  11
ATOM     11  O   UNL     1      -0.806  11.634  23.181  0.00  0.00    +0.000 OA
BRANCH  11  12
ATOM     12  N   UNL     1      -2.210  11.609  22.974  0.00  0.00    +0.000 NA
ATOM     13  C   UNL     1      -2.825  12.647  23.451  0.00  0.00    +0.000 C 
BRANCH  13  14
ATOM     14  C   UNL     1      -4.301  12.801  23.267  0.00  0.00    +0.000 A 
ATOM     15  C   UNL     1      -5.190  12.680  24.344  0.00  0.00    +0.000 A 
ATOM     16  C   UNL     1      -6.572  12.783  24.131  0.00  0.00    +0.000 A 
ATOM     17  C   UNL     1      -7.069  13.029  22.851  0.00  0.00    +0.000 A 
ATOM     18  C   UNL     1      -6.185  13.165  21.780  0.00  0.00    +0.000 A 
ATOM     19  C   UNL     1      -4.805  13.052  21.987  0.00  0.00    +0.000 A 
ENDBRANCH  13  14
ENDBRANCH  11  12
ENDBRANCH   8  11
ENDBRANCH   4   7
BRANCH   1  20
ATOM     20  O   UNL     1       2.770   6.752  18.161  0.00  0.00    +0.000 OA
BRANCH  20  21
ATOM     21  C   UNL     1       3.840   6.074  18.858  0.00  0.00    +0.000 C 
BRANCH  21  22
ATOM     22  C   UNL     1       3.962   4.656  18.344  0.00  0.00    +0.000 C 
BRANCH  22  23
ATOM     23  C   UNL     1       5.248   4.007  18.843  0.00  0.00    +0.000 C 
BRANCH  23  24
ATOM     24  C   UNL     1       6.242   5.069  19.291  0.00  0.00    +0.000 C 
BRANCH  24  25
ATOM     25  C   UNL     1       7.429   5.124  18.340  0.00  0.00    +0.000 C 
BRANCH  25  26
ATOM     26  C   UNL     1       7.329   6.349  17.444  0.00  0.00    +0.000 C 
BRANCH  26  27
ATOM     27  C   UNL     1       6.736   5.968  16.097  0.00  0.00    +0.000 C 
BRANCH  27  28
ATOM     28  C   UNL     1       7.115   4.540  15.739  0.00  0.00    +0.000 C 
BRANCH  28  29
ATOM     29  C   UNL     1       5.890   3.772  15.265  0.00  0.00    +0.000 C 
BRANCH  29  30
ATOM     30  C   UNL     1       5.480   4.236  13.875  0.00  0.00    +0.000 C 
BRANCH  30  32
ATOM     31  C   UNL     1       7.165   4.245  12.028  0.00  0.00    +0.000 C 
ATOM     32  C   UNL     1       6.170   3.402  12.803  0.00  0.00    +0.000 C 
ENDBRANCH  30  32
ENDBRANCH  29  30
ENDBRANCH  28  29
ENDBRANCH  27  28
ENDBRANCH  26  27
ENDBRANCH  25  26
ENDBRANCH  24  25
ENDBRANCH  23  24
ENDBRANCH  22  23
ENDBRANCH  21  22
ENDBRANCH  20  21
ENDBRANCH   1  20
TORSDOF 16
ENDMDL
MODEL 8
REMARK VINA RESULT:      -6.2      0.829      1.322
REMARK  Name = 
REMARK  17 active torsions:
REMARK  status: ('A' for Active; 'I' for Inactive)
REMARK    1  A    between atoms: C_1  and  C_2
REMARK    2  A    between atoms: C_2  and  C_3
REMARK    3  A    between atoms: C_3  and  C_4
REMARK    4  A    between atoms: C_4  and  C_5
REMARK    5  A    between atoms: C_5  and  C_6
REMARK    6  A    between atoms: C_6  and  C_7
REMARK    7  A    between atoms: C_7  and  C_8
REMARK    8  A    between atoms: C_8  and  C_9
REMARK    9  A    between atoms: C_9  and  C_10
REMARK   10  A    between atoms: C_10  and  C_11
REMARK   11  A    between atoms: C_11  and  C_12
REMARK   12  A    between atoms: C_12  and  O_13
REMARK   13  A    between atoms: O_13  and  C_14
REMARK   14  A    between atoms: C_17  and  N_18
REMARK   15  A    between atoms: C_19  and  O_21
REMARK   16  A    between atoms: O_21  and  N_22
REMARK   17  A    between atoms: C_23  and  C_24
REMARK                            x       y       z     vdW  Elec       q    Type
REMARK                         _______ _______ _______ _____ _____    ______ ____
ROOT
ATOM      1  C   UNL     1       3.911   2.948  18.749  0.00  0.00    +0.000 A 
ATOM      2  C   UNL     1       4.054   3.277  17.408  0.00  0.00    +0.000 A 
ATOM      3  C   UNL     1       5.066   4.115  16.966  0.00  0.00    +0.000 A 
ATOM      4  C   UNL     1       5.961   4.711  17.848  0.00  0.00    +0.000 A 
ATOM      5  C   UNL     1       5.838   4.362  19.203  0.00  0.00    +0.000 A 
ATOM      6  C   UNL     1       4.820   3.492  19.657  0.00  0.00    +0.000 A 
ENDROOT
BRANCH   4   7
ATOM      7  N   UNL     1       6.950   5.645  17.402  0.00  0.00    +0.000 N 
ATOM      8  C   UNL     1       6.704   7.021  17.227  0.00  0.00    +0.000 C 
ATOM      9  O   UNL     1       5.658   7.579  17.431  0.00  0.00    +0.000 OA
ATOM     10  H   UNL     1       7.869   5.308  17.157  0.00  0.00    +0.000 HD
BRANCH   8  11
ATOM     11  O   UNL     1       7.837   7.691  16.750  0.00  0.00    +0.000 OA
BRANCH  11  12
ATOM     12  N   UNL     1       7.847   8.959  17.386  0.00  0.00    +0.000 NA
ATOM     13  C   UNL     1       8.867   9.141  18.167  0.00  0.00    +0.000 C 
BRANCH  13  14
ATOM     14  C   UNL     1       9.058  10.448  18.870  0.00  0.00    +0.000 A 
ATOM     15  C   UNL     1       9.292  10.509  20.251  0.00  0.00    +0.000 A 
ATOM     16  C   UNL     1       9.418  11.751  20.889  0.00  0.00    +0.000 A 
ATOM     17  C   UNL     1       9.336  12.932  20.150  0.00  0.00    +0.000 A 
ATOM     18  C   UNL     1       9.119  12.872  18.773  0.00  0.00    +0.000 A 
ATOM     19  C   UNL     1       8.981  11.634  18.134  0.00  0.00    +0.000 A 
ENDBRANCH  13  14
ENDBRANCH  11  12
ENDBRANCH   8  11
ENDBRANCH   4   7
BRANCH   1  20
ATOM     20  O   UNL     1       2.912   2.086  19.150  0.00  0.00    +0.000 OA
BRANCH  20  21
ATOM     21  C   UNL     1       2.671   2.117  20.577  0.00  0.00    +0.000 C 
BRANCH  21  22
ATOM     22  C   UNL     1       1.246   2.554  20.841  0.00  0.00    +0.000 C 
BRANCH  22  23
ATOM     23  C   UNL     1       0.807   3.607  19.832  0.00  0.00    +0.000 C 
BRANCH  23  24
ATOM     24  C   UNL     1       1.243   4.994  20.283  0.00  0.00    +0.000 C 
BRANCH  24  25
ATOM     25  C   UNL     1       1.815   5.781  19.112  0.00  0.00    +0.000 C 
BRANCH  25  26
ATOM     26  C   UNL     1       2.922   6.706  19.590  0.00  0.00    +0.000 C 
BRANCH  26  27
ATOM     27  C   UNL     1       2.706   8.110  19.047  0.00  0.00    +0.000 C 
BRANCH  27  28
ATOM     28  C   UNL     1       1.865   8.062  17.782  0.00  0.00    +0.000 C 
BRANCH  28  29
ATOM     29  C   UNL     1       0.891   9.230  17.750  0.00  0.00    +0.000 C 
BRANCH  29  30
ATOM     30  C   UNL     1       0.516   9.643  19.166  0.00  0.00    +0.000 C 
BRANCH  30  32
ATOM     31  C   UNL     1      -1.488  10.286  17.816  0.00  0.00    +0.000 C 
ATOM     32  C   UNL     1      -0.828  10.362  19.179  0.00  0.00    +0.000 C 
ENDBRANCH  30  32
ENDBRANCH  29  30
ENDBRANCH  28  29
ENDBRANCH  27  28
ENDBRANCH  26  27
ENDBRANCH  25  26
ENDBRANCH  24  25
ENDBRANCH  23  24
ENDBRANCH  22  23
ENDBRANCH  21  22
ENDBRANCH  20  21
ENDBRANCH   1  20
TORSDOF 16
ENDMDL
MODEL 9
REMARK VINA RESULT:      -6.2      3.814      8.233
REMARK  Name = 
REMARK  17 active torsions:
REMARK  status: ('A' for Active; 'I' for Inactive)
REMARK    1  A    between atoms: C_1  and  C_2
REMARK    2  A    between atoms: C_2  and  C_3
REMARK    3  A    between atoms: C_3  and  C_4
REMARK    4  A    between atoms: C_4  and  C_5
REMARK    5  A    between atoms: C_5  and  C_6
REMARK    6  A    between atoms: C_6  and  C_7
REMARK    7  A    between atoms: C_7  and  C_8
REMARK    8  A    between atoms: C_8  and  C_9
REMARK    9  A    between atoms: C_9  and  C_10
REMARK   10  A    between atoms: C_10  and  C_11
REMARK   11  A    between atoms: C_11  and  C_12
REMARK   12  A    between atoms: C_12  and  O_13
REMARK   13  A    between atoms: O_13  and  C_14
REMARK   14  A    between atoms: C_17  and  N_18
REMARK   15  A    between atoms: C_19  and  O_21
REMARK   16  A    between atoms: O_21  and  N_22
REMARK   17  A    between atoms: C_23  and  C_24
REMARK                            x       y       z     vdW  Elec       q    Type
REMARK                         _______ _______ _______ _____ _____    ______ ____
ROOT
ATOM      1  C   UNL     1       2.357   7.211  19.551  0.00  0.00    +0.000 A 
ATOM      2  C   UNL     1       1.713   7.724  20.669  0.00  0.00    +0.000 A 
ATOM      3  C   UNL     1       1.008   8.917  20.622  0.00  0.00    +0.000 A 
ATOM      4  C   UNL     1       0.951   9.688  19.466  0.00  0.00    +0.000 A 
ATOM      5  C   UNL     1       1.578   9.162  18.325  0.00  0.00    +0.000 A 
ATOM      6  C   UNL     1       2.282   7.936  18.362  0.00  0.00    +0.000 A 
ENDROOT
BRANCH   4   7
ATOM      7  N   UNL     1       0.298  10.962  19.442  0.00  0.00    +0.000 N 
ATOM      8  C   UNL     1       0.956  12.173  19.151  0.00  0.00    +0.000 C 
ATOM      9  O   UNL     1       2.124  12.292  18.884  0.00  0.00    +0.000 OA
ATOM     10  H   UNL     1      -0.680  11.017  19.683  0.00  0.00    +0.000 HD
BRANCH   8  11
ATOM     11  O   UNL     1       0.085  13.266  19.231  0.00  0.00    +0.000 OA
BRANCH  11  12
ATOM     12  N   UNL     1      -0.410  13.286  20.560  0.00  0.00    +0.000 NA
ATOM     13  C   UNL     1      -1.657  13.632  20.646  0.00  0.00    +0.000 C 
BRANCH  13  14
ATOM     14  C   UNL     1      -2.347  13.648  21.973  0.00  0.00    +0.000 A 
ATOM     15  C   UNL     1      -2.051  14.620  22.940  0.00  0.00    +0.000 A 
ATOM     16  C   UNL     1      -2.681  14.580  24.193  0.00  0.00    +0.000 A 
ATOM     17  C   UNL     1      -3.621  13.589  24.475  0.00  0.00    +0.000 A 
ATOM     18  C   UNL     1      -3.927  12.630  23.509  0.00  0.00    +0.000 A 
ATOM     19  C   UNL     1      -3.293  12.660  22.261  0.00  0.00    +0.000 A 
ENDBRANCH  13  14
ENDBRANCH  11  12
ENDBRANCH   8  11
ENDBRANCH   4   7
BRANCH   1  20
ATOM     20  O   UNL     1       3.022   6.005  19.625  0.00  0.00    +0.000 OA
BRANCH  20  21
ATOM     21  C   UNL     1       2.304   5.001  20.380  0.00  0.00    +0.000 C 
BRANCH  21  22
ATOM     22  C   UNL     1       1.428   4.195  19.446  0.00  0.00    +0.000 C 
BRANCH  22  23
ATOM     23  C   UNL     1       2.226   3.080  18.781  0.00  0.00    +0.000 C 
BRANCH  23  24
ATOM     24  C   UNL     1       2.721   3.522  17.411  0.00  0.00    +0.000 C 
BRANCH  24  25
ATOM     25  C   UNL     1       4.242   3.503  17.360  0.00  0.00    +0.000 C 
BRANCH  25  26
ATOM     26  C   UNL     1       4.726   3.797  15.950  0.00  0.00    +0.000 C 
BRANCH  26  27
ATOM     27  C   UNL     1       5.869   4.800  15.984  0.00  0.00    +0.000 C 
BRANCH  27  28
ATOM     28  C   UNL     1       5.329   6.218  15.888  0.00  0.00    +0.000 C 
BRANCH  28  29
ATOM     29  C   UNL     1       5.643   6.990  17.161  0.00  0.00    +0.000 C 
BRANCH  29  30
ATOM     30  C   UNL     1       6.617   6.205  18.028  0.00  0.00    +0.000 C 
BRANCH  30  32
ATOM     31  C   UNL     1       7.775   8.395  17.687  0.00  0.00    +0.000 C 
ATOM     32  C   UNL     1       7.916   6.980  18.216  0.00  0.00    +0.000 C 
ENDBRANCH  30  32
ENDBRANCH  29  30
ENDBRANCH  28  29
ENDBRANCH  27  28
ENDBRANCH  26  27
ENDBRANCH  25  26
ENDBRANCH  24  25
ENDBRANCH  23  24
ENDBRANCH  22  23
ENDBRANCH  21  22
ENDBRANCH  20  21
ENDBRANCH   1  20
TORSDOF 16
ENDMDL
