MODEL 1
REMARK VINA RESULT:      -7.3      0.000      0.000
REMARK  Name = 
REMARK  3 active torsions:
REMARK  status: ('A' for Active; 'I' for Inactive)
REMARK    1  A    between atoms: C_2  and  C_3
REMARK    2  A    between atoms: C_4  and  O_5
REMARK    3  A    between atoms: C_9  and  O_10
REMARK                            x       y       z     vdW  Elec       q    Type
REMARK                         _______ _______ _______ _____ _____    ______ ____
ROOT
ATOM      1  C   UNL     1       6.576   5.150  16.196  0.00  0.00    +0.000 A 
ATOM      2  C   UNL     1       6.387   6.366  16.864  0.00  0.00    +0.000 A 
ATOM      3  C   UNL     1       5.337   6.525  17.767  0.00  0.00    +0.000 A 
ATOM      4  C   UNL     1       4.469   5.456  18.025  0.00  0.00    +0.000 A 
ATOM      5  C   UNL     1       4.655   4.235  17.371  0.00  0.00    +0.000 A 
ATOM      6  C   UNL     1       5.708   4.082  16.450  0.00  0.00    +0.000 A 
ATOM      7  C   UNL     1       3.749   3.108  17.659  0.00  0.00    +0.000 C 
ATOM      8  O   UNL     1       3.920   2.040  17.079  0.00  0.00    +0.000 OA
ATOM      9  C   UNL     1       2.658   3.270  18.633  0.00  0.00    +0.000 A 
ATOM     10  C   UNL     1       1.813   2.187  18.902  0.00  0.00    +0.000 A 
ATOM     11  C   UNL     1       0.776   2.327  19.824  0.00  0.00    +0.000 A 
ATOM     12  C   UNL     1       0.584   3.546  20.475  0.00  0.00    +0.000 A 
ATOM     13  C   UNL     1       1.429   4.626  20.206  0.00  0.00    +0.000 A 
ATOM     14  C   UNL     1       2.470   4.487  19.281  0.00  0.00    +0.000 A 
ATOM     15  C   UNL     1       3.367   5.627  18.997  0.00  0.00    +0.000 C 
ATOM     16  O   UNL     1       3.200   6.701  19.564  0.00  0.00    +0.000 OA
ENDROOT
BRANCH   1  18
ATOM     17  O   UNL     1       7.670   5.587  14.164  0.00  0.00    +0.000 OA
ATOM     18  C   UNL     1       7.682   4.981  15.233  0.00  0.00    +0.000 C 
ENDBRANCH   1  18
BRANCH   2  19
ATOM     19  O   UNL     1       7.206   7.447  16.687  0.00  0.00    +0.000 OA
ATOM     20  H   UNL     1       7.532   7.739  17.571  0.00  0.00    +0.000 HD
ENDBRANCH   2  19
BRANCH   6  21
ATOM     21  O   UNL     1       5.922   2.899  15.787  0.00  0.00    +0.000 OA
ATOM     22  H   UNL     1       6.733   2.984  15.232  0.00  0.00    +0.000 HD
ENDBRANCH   6  21
TORSDOF 3
ENDMDL
MODEL 2
REMARK VINA RESULT:      -7.1      1.031      1.031
REMARK  Name = 
REMARK  3 active torsions:
REMARK  status: ('A' for Active; 'I' for Inactive)
REMARK    1  A    between atoms: C_2  and  C_3
REMARK    2  A    between atoms: C_4  and  O_5
REMARK    3  A    between atoms: C_9  and  O_10
REMARK                            x       y       z     vdW  Elec       q    Type
REMARK                         _______ _______ _______ _____ _____    ______ ____
ROOT
ATOM      1  C   UNL     1       5.668   4.941  15.474  0.00  0.00    +0.000 A 
ATOM      2  C   UNL     1       5.247   6.239  15.789  0.00  0.00    +0.000 A 
ATOM      3  C   UNL     1       4.354   6.463  16.835  0.00  0.00    +0.000 A 
ATOM      4  C   UNL     1       3.881   5.383  17.593  0.00  0.00    +0.000 A 
ATOM      5  C   UNL     1       4.303   4.086  17.295  0.00  0.00    +0.000 A 
ATOM      6  C   UNL     1       5.195   3.862  16.229  0.00  0.00    +0.000 A 
ATOM      7  C   UNL     1       3.815   2.955  18.106  0.00  0.00    +0.000 C 
ATOM      8  O   UNL     1       4.191   1.819  17.835  0.00  0.00    +0.000 OA
ATOM      9  C   UNL     1       2.894   3.197  19.227  0.00  0.00    +0.000 A 
ATOM     10  C   UNL     1       2.449   2.113  19.995  0.00  0.00    +0.000 A 
ATOM     11  C   UNL     1       1.576   2.329  21.061  0.00  0.00    +0.000 A 
ATOM     12  C   UNL     1       1.149   3.623  21.359  0.00  0.00    +0.000 A 
ATOM     13  C   UNL     1       1.594   4.704  20.593  0.00  0.00    +0.000 A 
ATOM     14  C   UNL     1       2.470   4.489  19.522  0.00  0.00    +0.000 A 
ATOM     15  C   UNL     1       2.946   5.631  18.713  0.00  0.00    +0.000 C 
ATOM     16  O   UNL     1       2.570   6.768  18.969  0.00  0.00    +0.000 OA
ENDROOT
BRANCH   1  18
ATOM     17  O   UNL     1       7.649   5.348  14.279  0.00  0.00    +0.000 OA
ATOM     18  C   UNL     1       6.608   4.701  14.361  0.00  0.00    +0.000 C 
ENDBRANCH   1  18
BRANCH   2  19
ATOM     19  O   UNL     1       5.683   7.347  15.114  0.00  0.00    +0.000 OA
ATOM     20  H   UNL     1       4.896   7.830  14.768  0.00  0.00    +0.000 HD
ENDBRANCH   2  19
BRANCH   6  21
ATOM     21  O   UNL     1       5.630   2.601  15.904  0.00  0.00    +0.000 OA
ATOM     22  H   UNL     1       5.471   2.000  16.669  0.00  0.00    +0.000 HD
ENDBRANCH   6  21
TORSDOF 3
ENDMDL
MODEL 3
REMARK VINA RESULT:      -7.1      1.876      5.585
REMARK  Name = 
REMARK  3 active torsions:
REMARK  status: ('A' for Active; 'I' for Inactive)
REMARK    1  A    between atoms: C_2  and  C_3
REMARK    2  A    between atoms: C_4  and  O_5
REMARK    3  A    between atoms: C_9  and  O_10
REMARK                            x       y       z     vdW  Elec       q    Type
REMARK                         _______ _______ _______ _____ _____    ______ ____
ROOT
ATOM      1  C   UNL     1       1.943   4.048  20.359  0.00  0.00    +0.000 A 
ATOM      2  C   UNL     1       1.949   5.448  20.334  0.00  0.00    +0.000 A 
ATOM      3  C   UNL     1       2.688   6.139  19.376  0.00  0.00    +0.000 A 
ATOM      4  C   UNL     1       3.422   5.432  18.415  0.00  0.00    +0.000 A 
ATOM      5  C   UNL     1       3.414   4.035  18.424  0.00  0.00    +0.000 A 
ATOM      6  C   UNL     1       2.677   3.340  19.402  0.00  0.00    +0.000 A 
ATOM      7  C   UNL     1       4.175   3.294  17.400  0.00  0.00    +0.000 C 
ATOM      8  O   UNL     1       4.163   2.068  17.417  0.00  0.00    +0.000 OA
ATOM      9  C   UNL     1       4.932   4.026  16.373  0.00  0.00    +0.000 A 
ATOM     10  C   UNL     1       5.640   3.308  15.402  0.00  0.00    +0.000 A 
ATOM     11  C   UNL     1       6.361   3.991  14.422  0.00  0.00    +0.000 A 
ATOM     12  C   UNL     1       6.375   5.385  14.413  0.00  0.00    +0.000 A 
ATOM     13  C   UNL     1       5.667   6.101  15.382  0.00  0.00    +0.000 A 
ATOM     14  C   UNL     1       4.943   5.418  16.367  0.00  0.00    +0.000 A 
ATOM     15  C   UNL     1       4.191   6.173  17.391  0.00  0.00    +0.000 C 
ATOM     16  O   UNL     1       4.202   7.398  17.389  0.00  0.00    +0.000 OA
ENDROOT
BRANCH   1  18
ATOM     17  O   UNL     1       1.740   2.595  22.193  0.00  0.00    +0.000 OA
ATOM     18  C   UNL     1       1.167   3.314  21.378  0.00  0.00    +0.000 C 
ENDBRANCH   1  18
BRANCH   2  19
ATOM     19  O   UNL     1       1.238   6.211  21.221  0.00  0.00    +0.000 OA
ATOM     20  H   UNL     1       0.681   6.844  20.711  0.00  0.00    +0.000 HD
ENDBRANCH   2  19
BRANCH   6  21
ATOM     21  O   UNL     1       2.647   1.968  19.444  0.00  0.00    +0.000 OA
ATOM     22  H   UNL     1       3.059   1.612  18.621  0.00  0.00    +0.000 HD
ENDBRANCH   6  21
TORSDOF 3
ENDMDL
MODEL 4
REMARK VINA RESULT:      -6.9      2.927      5.135
REMARK  Name = 
REMARK  3 active torsions:
REMARK  status: ('A' for Active; 'I' for Inactive)
REMARK    1  A    between atoms: C_2  and  C_3
REMARK    2  A    between atoms: C_4  and  O_5
REMARK    3  A    between atoms: C_9  and  O_10
REMARK                            x       y       z     vdW  Elec       q    Type
REMARK                         _______ _______ _______ _____ _____    ______ ____
ROOT
ATOM      1  C   UNL     1       3.921   3.522  18.991  0.00  0.00    +0.000 A 
ATOM      2  C   UNL     1       4.448   3.967  17.772  0.00  0.00    +0.000 A 
ATOM      3  C   UNL     1       4.175   5.252  17.306  0.00  0.00    +0.000 A 
ATOM      4  C   UNL     1       3.379   6.117  18.068  0.00  0.00    +0.000 A 
ATOM      5  C   UNL     1       2.857   5.687  19.290  0.00  0.00    +0.000 A 
ATOM      6  C   UNL     1       3.124   4.385  19.752  0.00  0.00    +0.000 A 
ATOM      7  C   UNL     1       2.034   6.608  20.096  0.00  0.00    +0.000 C 
ATOM      8  O   UNL     1       1.580   6.221  21.168  0.00  0.00    +0.000 OA
ATOM      9  C   UNL     1       1.770   7.973  19.614  0.00  0.00    +0.000 A 
ATOM     10  C   UNL     1       0.996   8.838  20.397  0.00  0.00    +0.000 A 
ATOM     11  C   UNL     1       0.740  10.135  19.952  0.00  0.00    +0.000 A 
ATOM     12  C   UNL     1       1.254  10.566  18.729  0.00  0.00    +0.000 A 
ATOM     13  C   UNL     1       2.028   9.702  17.950  0.00  0.00    +0.000 A 
ATOM     14  C   UNL     1       2.287   8.400  18.395  0.00  0.00    +0.000 A 
ATOM     15  C   UNL     1       3.108   7.485  17.574  0.00  0.00    +0.000 C 
ATOM     16  O   UNL     1       3.560   7.858  16.498  0.00  0.00    +0.000 OA
ENDROOT
BRANCH   1  18
ATOM     17  O   UNL     1       4.934   1.990  20.455  0.00  0.00    +0.000 OA
ATOM     18  C   UNL     1       4.202   2.159  19.483  0.00  0.00    +0.000 C 
ENDBRANCH   1  18
BRANCH   2  19
ATOM     19  O   UNL     1       5.254   3.192  16.983  0.00  0.00    +0.000 OA
ATOM     20  H   UNL     1       5.230   3.550  16.066  0.00  0.00    +0.000 HD
ENDBRANCH   2  19
BRANCH   6  21
ATOM     21  O   UNL     1       2.627   3.926  20.947  0.00  0.00    +0.000 OA
ATOM     22  H   UNL     1       3.241   3.245  21.309  0.00  0.00    +0.000 HD
ENDBRANCH   6  21
TORSDOF 3
ENDMDL
MODEL 5
REMARK VINA RESULT:      -6.8      3.050      5.417
REMARK  Name = 
REMARK  3 active torsions:
REMARK  status: ('A' for Active; 'I' for Inactive)
REMARK    1  A    between atoms: C_2  and  C_3
REMARK    2  A    between atoms: C_4  and  O_5
REMARK    3  A    between atoms: C_9  and  O_10
REMARK                            x       y       z     vdW  Elec       q    Type
REMARK                         _______ _______ _______ _____ _____    ______ ____
ROOT
ATOM      1  C   UNL     1       3.504   3.337  19.910  0.00  0.00    +0.000 A 
ATOM      2  C   UNL     1       2.668   3.494  21.023  0.00  0.00    +0.000 A 
ATOM      3  C   UNL     1       2.010   4.701  21.253  0.00  0.00    +0.000 A 
ATOM      4  C   UNL     1       2.170   5.766  20.357  0.00  0.00    +0.000 A 
ATOM      5  C   UNL     1       2.993   5.616  19.239  0.00  0.00    +0.000 A 
ATOM      6  C   UNL     1       3.667   4.401  19.016  0.00  0.00    +0.000 A 
ATOM      7  C   UNL     1       3.146   6.735  18.290  0.00  0.00    +0.000 C 
ATOM      8  O   UNL     1       3.871   6.595  17.311  0.00  0.00    +0.000 OA
ATOM      9  C   UNL     1       2.428   7.999  18.521  0.00  0.00    +0.000 A 
ATOM     10  C   UNL     1       2.575   9.047  17.604  0.00  0.00    +0.000 A 
ATOM     11  C   UNL     1       1.900  10.250  17.811  0.00  0.00    +0.000 A 
ATOM     12  C   UNL     1       1.081  10.405  18.930  0.00  0.00    +0.000 A 
ATOM     13  C   UNL     1       0.934   9.357  19.843  0.00  0.00    +0.000 A 
ATOM     14  C   UNL     1       1.611   8.149  19.637  0.00  0.00    +0.000 A 
ATOM     15  C   UNL     1       1.455   7.039  20.600  0.00  0.00    +0.000 C 
ATOM     16  O   UNL     1       0.740   7.171  21.585  0.00  0.00    +0.000 OA
ENDROOT
BRANCH   1  18
ATOM     17  O   UNL     1       5.083   1.681  20.443  0.00  0.00    +0.000 OA
ATOM     18  C   UNL     1       4.208   2.062  19.669  0.00  0.00    +0.000 C 
ENDBRANCH   1  18
BRANCH   2  19
ATOM     19  O   UNL     1       2.439   2.494  21.929  0.00  0.00    +0.000 OA
ATOM     20  H   UNL     1       2.584   1.628  21.480  0.00  0.00    +0.000 HD
ENDBRANCH   2  19
BRANCH   6  21
ATOM     21  O   UNL     1       4.486   4.217  17.930  0.00  0.00    +0.000 OA
ATOM     22  H   UNL     1       4.462   5.028  17.369  0.00  0.00    +0.000 HD
ENDBRANCH   6  21
TORSDOF 3
ENDMDL
MODEL 6
REMARK VINA RESULT:      -6.8      1.784      1.815
REMARK  Name = 
REMARK  3 active torsions:
REMARK  status: ('A' for Active; 'I' for Inactive)
REMARK    1  A    between atoms: C_2  and  C_3
REMARK    2  A    between atoms: C_4  and  O_5
REMARK    3  A    between atoms: C_9  and  O_10
REMARK                            x       y       z     vdW  Elec       q    Type
REMARK                         _______ _______ _______ _____ _____    ______ ____
ROOT
ATOM      1  C   UNL     1       6.238   5.507  16.609  0.00  0.00    +0.000 A 
ATOM      2  C   UNL     1       5.135   6.218  16.122  0.00  0.00    +0.000 A 
ATOM      3  C   UNL     1       3.872   6.047  16.687  0.00  0.00    +0.000 A 
ATOM      4  C   UNL     1       3.703   5.169  17.766  0.00  0.00    +0.000 A 
ATOM      5  C   UNL     1       4.799   4.463  18.267  0.00  0.00    +0.000 A 
ATOM      6  C   UNL     1       6.070   4.628  17.684  0.00  0.00    +0.000 A 
ATOM      7  C   UNL     1       4.619   3.552  19.413  0.00  0.00    +0.000 C 
ATOM      8  O   UNL     1       5.587   2.936  19.845  0.00  0.00    +0.000 OA
ATOM      9  C   UNL     1       3.291   3.395  20.026  0.00  0.00    +0.000 A 
ATOM     10  C   UNL     1       3.139   2.535  21.120  0.00  0.00    +0.000 A 
ATOM     11  C   UNL     1       1.885   2.377  21.711  0.00  0.00    +0.000 A 
ATOM     12  C   UNL     1       0.787   3.077  21.210  0.00  0.00    +0.000 A 
ATOM     13  C   UNL     1       0.940   3.936  20.118  0.00  0.00    +0.000 A 
ATOM     14  C   UNL     1       2.198   4.095  19.524  0.00  0.00    +0.000 A 
ATOM     15  C   UNL     1       2.363   5.006  18.372  0.00  0.00    +0.000 C 
ATOM     16  O   UNL     1       1.401   5.620  17.926  0.00  0.00    +0.000 OA
ENDROOT
BRANCH   1  18
ATOM     17  O   UNL     1       7.745   5.471  14.807  0.00  0.00    +0.000 OA
ATOM     18  C   UNL     1       7.575   5.680  16.006  0.00  0.00    +0.000 C 
ENDBRANCH   1  18
BRANCH   2  19
ATOM     19  O   UNL     1       5.223   7.113  15.090  0.00  0.00    +0.000 OA
ATOM     20  H   UNL     1       6.010   7.687  15.242  0.00  0.00    +0.000 HD
ENDBRANCH   2  19
BRANCH   6  21
ATOM     21  O   UNL     1       7.170   3.949  18.148  0.00  0.00    +0.000 OA
ATOM     22  H   UNL     1       7.687   4.544  18.742  0.00  0.00    +0.000 HD
ENDBRANCH   6  21
TORSDOF 3
ENDMDL
MODEL 7
REMARK VINA RESULT:      -6.7      3.900      5.672
REMARK  Name = 
REMARK  3 active torsions:
REMARK  status: ('A' for Active; 'I' for Inactive)
REMARK    1  A    between atoms: C_2  and  C_3
REMARK    2  A    between atoms: C_4  and  O_5
REMARK    3  A    between atoms: C_9  and  O_10
REMARK                            x       y       z     vdW  Elec       q    Type
REMARK                         _______ _______ _______ _____ _____    ______ ____
ROOT
ATOM      1  C   UNL     1       3.744   5.425  18.922  0.00  0.00    +0.000 A 
ATOM      2  C   UNL     1       4.041   6.136  17.753  0.00  0.00    +0.000 A 
ATOM      3  C   UNL     1       3.456   7.377  17.508  0.00  0.00    +0.000 A 
ATOM      4  C   UNL     1       2.573   7.930  18.444  0.00  0.00    +0.000 A 
ATOM      5  C   UNL     1       2.278   7.234  19.618  0.00  0.00    +0.000 A 
ATOM      6  C   UNL     1       2.861   5.975  19.857  0.00  0.00    +0.000 A 
ATOM      7  C   UNL     1       1.361   7.828  20.609  0.00  0.00    +0.000 C 
ATOM      8  O   UNL     1       1.108   7.209  21.637  0.00  0.00    +0.000 OA
ATOM      9  C   UNL     1       0.766   9.150  20.360  0.00  0.00    +0.000 A 
ATOM     10  C   UNL     1      -0.094   9.706  21.315  0.00  0.00    +0.000 A 
ATOM     11  C   UNL     1      -0.664  10.959  21.092  0.00  0.00    +0.000 A 
ATOM     12  C   UNL     1      -0.377  11.655  19.918  0.00  0.00    +0.000 A 
ATOM     13  C   UNL     1       0.483  11.101  18.966  0.00  0.00    +0.000 A 
ATOM     14  C   UNL     1       1.056   9.843  19.188  0.00  0.00    +0.000 A 
ATOM     15  C   UNL     1       1.968   9.256  18.184  0.00  0.00    +0.000 C 
ATOM     16  O   UNL     1       2.221   9.862  17.150  0.00  0.00    +0.000 OA
ENDROOT
BRANCH   1  18
ATOM     17  O   UNL     1       5.579   3.993  19.241  0.00  0.00    +0.000 OA
ATOM     18  C   UNL     1       4.357   4.107  19.180  0.00  0.00    +0.000 C 
ENDBRANCH   1  18
BRANCH   2  19
ATOM     19  O   UNL     1       4.913   5.676  16.803  0.00  0.00    +0.000 OA
ATOM     20  H   UNL     1       4.392   5.248  16.084  0.00  0.00    +0.000 HD
ENDBRANCH   2  19
BRANCH   6  21
ATOM     21  O   UNL     1       2.594   5.260  20.998  0.00  0.00    +0.000 OA
ATOM     22  H   UNL     1       2.249   4.370  20.746  0.00  0.00    +0.000 HD
ENDBRANCH   6  21
TORSDOF 3
ENDMDL
MODEL 8
REMARK VINA RESULT:      -6.7      2.836      4.364
REMARK  Name = 
REMARK  3 active torsions:
REMARK  status: ('A' for Active; 'I' for Inactive)
REMARK    1  A    between atoms: C_2  and  C_3
REMARK    2  A    between atoms: C_4  and  O_5
REMARK    3  A    between atoms: C_9  and  O_10
REMARK                            x       y       z     vdW  Elec       q    Type
REMARK                         _______ _______ _______ _____ _____    ______ ____
ROOT
ATOM      1  C   UNL     1       5.099   4.819  17.505  0.00  0.00    +0.000 A 
ATOM      2  C   UNL     1       4.746   4.125  18.668  0.00  0.00    +0.000 A 
ATOM      3  C   UNL     1       3.828   4.664  19.567  0.00  0.00    +0.000 A 
ATOM      4  C   UNL     1       3.236   5.906  19.300  0.00  0.00    +0.000 A 
ATOM      5  C   UNL     1       3.573   6.601  18.137  0.00  0.00    +0.000 A 
ATOM      6  C   UNL     1       4.511   6.060  17.238  0.00  0.00    +0.000 A 
ATOM      7  C   UNL     1       2.935   7.900  17.852  0.00  0.00    +0.000 C 
ATOM      8  O   UNL     1       3.237   8.504  16.828  0.00  0.00    +0.000 OA
ATOM      9  C   UNL     1       1.945   8.455  18.789  0.00  0.00    +0.000 A 
ATOM     10  C   UNL     1       1.340   9.684  18.498  0.00  0.00    +0.000 A 
ATOM     11  C   UNL     1       0.399  10.219  19.377  0.00  0.00    +0.000 A 
ATOM     12  C   UNL     1       0.064   9.530  20.543  0.00  0.00    +0.000 A 
ATOM     13  C   UNL     1       0.667   8.303  20.831  0.00  0.00    +0.000 A 
ATOM     14  C   UNL     1       1.612   7.764  19.950  0.00  0.00    +0.000 A 
ATOM     15  C   UNL     1       2.249   6.464  20.251  0.00  0.00    +0.000 C 
ATOM     16  O   UNL     1       1.961   5.857  21.275  0.00  0.00    +0.000 OA
ENDROOT
BRANCH   1  18
ATOM     17  O   UNL     1       7.195   4.755  16.444  0.00  0.00    +0.000 OA
ATOM     18  C   UNL     1       6.079   4.253  16.555  0.00  0.00    +0.000 C 
ENDBRANCH   1  18
BRANCH   2  19
ATOM     19  O   UNL     1       5.260   2.897  18.987  0.00  0.00    +0.000 OA
ATOM     20  H   UNL     1       5.581   2.469  18.159  0.00  0.00    +0.000 HD
ENDBRANCH   2  19
BRANCH   6  21
ATOM     21  O   UNL     1       4.869   6.715  16.085  0.00  0.00    +0.000 OA
ATOM     22  H   UNL     1       5.592   7.354  16.291  0.00  0.00    +0.000 HD
ENDBRANCH   6  21
TORSDOF 3
ENDMDL
MODEL 9
REMARK VINA RESULT:      -6.7      2.959      4.241
REMARK  Name = 
REMARK  3 active torsions:
REMARK  status: ('A' for Active; 'I' for Inactive)
REMARK    1  A    between atoms: C_2  and  C_3
REMARK    2  A    between atoms: C_4  and  O_5
REMARK    3  A    between atoms: C_9  and  O_10
REMARK                            x       y       z     vdW  Elec       q    Type
REMARK                         _______ _______ _______ _____ _____    ______ ____
ROOT
ATOM      1  C   UNL     1       4.660   5.256  17.448  0.00  0.00    +0.000 A 
ATOM      2  C   UNL     1       4.680   6.344  16.568  0.00  0.00    +0.000 A 
ATOM      3  C   UNL     1       3.895   7.469  16.811  0.00  0.00    +0.000 A 
ATOM      4  C   UNL     1       3.088   7.524  17.954  0.00  0.00    +0.000 A 
ATOM      5  C   UNL     1       3.069   6.449  18.845  0.00  0.00    +0.000 A 
ATOM      6  C   UNL     1       3.853   5.308  18.590  0.00  0.00    +0.000 A 
ATOM      7  C   UNL     1       2.230   6.518  20.056  0.00  0.00    +0.000 C 
ATOM      8  O   UNL     1       2.220   5.568  20.832  0.00  0.00    +0.000 OA
ATOM      9  C   UNL     1       1.423   7.719  20.325  0.00  0.00    +0.000 A 
ATOM     10  C   UNL     1       0.641   7.774  21.485  0.00  0.00    +0.000 A 
ATOM     11  C   UNL     1      -0.128   8.906  21.751  0.00  0.00    +0.000 A 
ATOM     12  C   UNL     1      -0.116   9.981  20.861  0.00  0.00    +0.000 A 
ATOM     13  C   UNL     1       0.666   9.925  19.704  0.00  0.00    +0.000 A 
ATOM     14  C   UNL     1       1.439   8.789  19.435  0.00  0.00    +0.000 A 
ATOM     15  C   UNL     1       2.269   8.730  18.214  0.00  0.00    +0.000 C 
ATOM     16  O   UNL     1       2.281   9.669  17.428  0.00  0.00    +0.000 OA
ENDROOT
BRANCH   1  18
ATOM     17  O   UNL     1       5.677   3.676  16.037  0.00  0.00    +0.000 OA
ATOM     18  C   UNL     1       5.485   4.059  17.189  0.00  0.00    +0.000 C 
ENDBRANCH   1  18
BRANCH   2  19
ATOM     19  O   UNL     1       5.460   6.378  15.444  0.00  0.00    +0.000 OA
ATOM     20  H   UNL     1       5.334   5.533  14.952  0.00  0.00    +0.000 HD
ENDBRANCH   2  19
BRANCH   6  21
ATOM     21  O   UNL     1       3.859   4.230  19.441  0.00  0.00    +0.000 OA
ATOM     22  H   UNL     1       2.928   3.978  19.645  0.00  0.00    +0.000 HD
ENDBRANCH   6  21
TORSDOF 3
ENDMDL
