MODEL 1
REMARK VINA RESULT:      -7.0      0.000      0.000
REMARK  Name = 
REMARK  6 active torsions:
REMARK  status: ('A' for Active; 'I' for Inactive)
REMARK    1  A    between atoms: C_1  and  C_2
REMARK    2  A    between atoms: C_4  and  S_5
REMARK    3  A    between atoms: S_5  and  N_8
REMARK    4  A    between atoms: N_8  and  C_9
REMARK    5  A    between atoms: C_9  and  C_10
REMARK    6  A    between atoms: C_10  and  N_11
REMARK                            x       y       z     vdW  Elec       q    Type
REMARK                         _______ _______ _______ _____ _____    ______ ____
ROOT
ATOM      1  N   UNL     1       2.818   2.205  19.605  0.00  0.00    +0.000 NA
ATOM      2  H   UNL     1       2.507   1.268  19.876  0.00  0.00    +0.000 HD
ENDROOT
BRANCH   1   3
ATOM      3  S   UNL     1       1.736   2.974  18.552  0.00  0.00    +0.000 S 
ATOM      4  O   UNL     1       0.393   2.693  19.004  0.00  0.00    +0.000 OA
ATOM      5  O   UNL     1       2.169   2.716  17.200  0.00  0.00    +0.000 OA
BRANCH   3   9
ATOM      6  C   UNL     1       2.650   8.311  17.895  0.00  0.00    +0.000 C 
ATOM      7  C   UNL     1       2.300   7.032  18.576  0.00  0.00    +0.000 A 
ATOM      8  C   UNL     1       2.286   5.746  17.939  0.00  0.00    +0.000 A 
ATOM      9  C   UNL     1       1.938   4.721  18.799  0.00  0.00    +0.000 A 
ATOM     10  S   UNL     1       1.615   5.306  20.372  0.00  0.00    +0.000 S 
ATOM     11  C   UNL     1       1.945   6.897  19.901  0.00  0.00    +0.000 A 
ATOM     12 CL   UNL     1       1.802   8.151  21.070  0.00  0.00    +0.000 Cl
ENDBRANCH   3   9
ENDBRANCH   1   3
BRANCH   1  13
ATOM     13  C   UNL     1       4.238   2.243  19.185  0.00  0.00    +0.000 C 
BRANCH  13  14
ATOM     14  C   UNL     1       4.931   3.493  19.765  0.00  0.00    +0.000 C 
BRANCH  14  15
ATOM     15  N   UNL     1       5.905   4.079  18.843  0.00  0.00    +0.000 NA
ATOM     16  C   UNL     1       5.501   4.111  17.425  0.00  0.00    +0.000 C 
ATOM     17  C   UNL     1       6.514   4.900  16.553  0.00  0.00    +0.000 C 
ATOM     18  C   UNL     1       6.175   6.393  16.450  0.00  0.00    +0.000 C 
ATOM     19  C   UNL     1       7.123   7.051  17.443  0.00  0.00    +0.000 C 
ATOM     20  C   UNL     1       7.559   5.877  18.299  0.00  0.00    +0.000 C 
ATOM     21  C   UNL     1       6.433   5.385  19.267  0.00  0.00    +0.000 C 
ATOM     22  O   UNL     1       7.784   4.891  17.254  0.00  0.00    +0.000 OA
ENDBRANCH  14  15
ENDBRANCH  13  14
ENDBRANCH   1  13
TORSDOF 5
ENDMDL
MODEL 2
REMARK VINA RESULT:      -7.0      3.507      6.456
REMARK  Name = 
REMARK  6 active torsions:
REMARK  status: ('A' for Active; 'I' for Inactive)
REMARK    1  A    between atoms: C_1  and  C_2
REMARK    2  A    between atoms: C_4  and  S_5
REMARK    3  A    between atoms: S_5  and  N_8
REMARK    4  A    between atoms: N_8  and  C_9
REMARK    5  A    between atoms: C_9  and  C_10
REMARK    6  A    between atoms: C_10  and  N_11
REMARK                            x       y       z     vdW  Elec       q    Type
REMARK                         _______ _______ _______ _____ _____    ______ ____
ROOT
ATOM      1  N   UNL     1       6.097   4.196  18.459  0.00  0.00    +0.000 NA
ATOM      2  H   UNL     1       6.316   3.323  18.947  0.00  0.00    +0.000 HD
ENDROOT
BRANCH   1   3
ATOM      3  S   UNL     1       7.437   4.852  17.658  0.00  0.00    +0.000 S 
ATOM      4  O   UNL     1       8.565   3.974  17.876  0.00  0.00    +0.000 OA
ATOM      5  O   UNL     1       7.486   6.263  17.950  0.00  0.00    +0.000 OA
BRANCH   3   9
ATOM      6  C   UNL     1       7.629   5.247  12.221  0.00  0.00    +0.000 C 
ATOM      7  C   UNL     1       7.139   4.849  13.571  0.00  0.00    +0.000 A 
ATOM      8  C   UNL     1       7.765   5.221  14.808  0.00  0.00    +0.000 A 
ATOM      9  C   UNL     1       7.102   4.731  15.918  0.00  0.00    +0.000 A 
ATOM     10  S   UNL     1       5.733   3.809  15.472  0.00  0.00    +0.000 S 
ATOM     11  C   UNL     1       6.028   4.075  13.828  0.00  0.00    +0.000 A 
ATOM     12 CL   UNL     1       4.960   3.376  12.673  0.00  0.00    +0.000 Cl
ENDBRANCH   3   9
ENDBRANCH   1   3
BRANCH   1  13
ATOM     13  C   UNL     1       5.336   5.151  19.297  0.00  0.00    +0.000 C 
BRANCH  13  14
ATOM     14  C   UNL     1       4.088   5.648  18.538  0.00  0.00    +0.000 C 
BRANCH  14  15
ATOM     15  N   UNL     1       2.869   4.939  18.927  0.00  0.00    +0.000 NA
ATOM     16  C   UNL     1       2.593   3.692  18.190  0.00  0.00    +0.000 C 
ATOM     17  C   UNL     1       1.382   2.924  18.784  0.00  0.00    +0.000 C 
ATOM     18  C   UNL     1       1.787   1.925  19.874  0.00  0.00    +0.000 C 
ATOM     19  C   UNL     1       1.459   2.648  21.173  0.00  0.00    +0.000 C 
ATOM     20  C   UNL     1       1.338   4.090  20.717  0.00  0.00    +0.000 C 
ATOM     21  C   UNL     1       2.722   4.733  20.377  0.00  0.00    +0.000 C 
ATOM     22  O   UNL     1       0.569   3.891  19.499  0.00  0.00    +0.000 OA
ENDBRANCH  14  15
ENDBRANCH  13  14
ENDBRANCH   1  13
TORSDOF 5
ENDMDL
MODEL 3
REMARK VINA RESULT:      -6.7      3.777      6.624
REMARK  Name = 
REMARK  6 active torsions:
REMARK  status: ('A' for Active; 'I' for Inactive)
REMARK    1  A    between atoms: C_1  and  C_2
REMARK    2  A    between atoms: C_4  and  S_5
REMARK    3  A    between atoms: S_5  and  N_8
REMARK    4  A    between atoms: N_8  and  C_9
REMARK    5  A    between atoms: C_9  and  C_10
REMARK    6  A    between atoms: C_10  and  N_11
REMARK                            x       y       z     vdW  Elec       q    Type
REMARK                         _______ _______ _______ _____ _____    ______ ____
ROOT
ATOM      1  N   UNL     1       5.668   5.209  17.520  0.00  0.00    +0.000 NA
ATOM      2  H   UNL     1       5.757   4.829  18.467  0.00  0.00    +0.000 HD
ENDROOT
BRANCH   1   3
ATOM      3  S   UNL     1       7.150   5.281  16.703  0.00  0.00    +0.000 S 
ATOM      4  O   UNL     1       7.994   4.222  17.208  0.00  0.00    +0.000 OA
ATOM      5  O   UNL     1       7.575   6.659  16.667  0.00  0.00    +0.000 OA
BRANCH   3   9
ATOM      6  C   UNL     1       7.470   4.458  11.320  0.00  0.00    +0.000 C 
ATOM      7  C   UNL     1       6.910   4.432  12.702  0.00  0.00    +0.000 A 
ATOM      8  C   UNL     1       7.565   4.976  13.857  0.00  0.00    +0.000 A 
ATOM      9  C   UNL     1       6.826   4.831  15.016  0.00  0.00    +0.000 A 
ATOM     10  S   UNL     1       5.347   4.027  14.717  0.00  0.00    +0.000 S 
ATOM     11  C   UNL     1       5.698   3.889  13.069  0.00  0.00    +0.000 A 
ATOM     12 CL   UNL     1       4.559   3.106  12.044  0.00  0.00    +0.000 Cl
ENDBRANCH   3   9
ENDBRANCH   1   3
BRANCH   1  13
ATOM     13  C   UNL     1       4.862   6.450  17.469  0.00  0.00    +0.000 C 
BRANCH  13  14
ATOM     14  C   UNL     1       3.560   6.273  18.278  0.00  0.00    +0.000 C 
BRANCH  14  15
ATOM     15  N   UNL     1       3.282   4.874  18.603  0.00  0.00    +0.000 NA
ATOM     16  C   UNL     1       3.061   4.582  20.032  0.00  0.00    +0.000 C 
ATOM     17  C   UNL     1       2.606   3.116  20.259  0.00  0.00    +0.000 C 
ATOM     18  C   UNL     1       1.081   2.953  20.222  0.00  0.00    +0.000 C 
ATOM     19  C   UNL     1       0.807   2.403  18.829  0.00  0.00    +0.000 C 
ATOM     20  C   UNL     1       2.094   2.729  18.095  0.00  0.00    +0.000 C 
ATOM     21  C   UNL     1       2.236   4.254  17.775  0.00  0.00    +0.000 C 
ATOM     22  O   UNL     1       3.055   2.344  19.116  0.00  0.00    +0.000 OA
ENDBRANCH  14  15
ENDBRANCH  13  14
ENDBRANCH   1  13
TORSDOF 5
ENDMDL
MODEL 4
REMARK VINA RESULT:      -6.5      4.183      6.830
REMARK  Name = 
REMARK  6 active torsions:
REMARK  status: ('A' for Active; 'I' for Inactive)
REMARK    1  A    between atoms: C_1  and  C_2
REMARK    2  A    between atoms: C_4  and  S_5
REMARK    3  A    between atoms: S_5  and  N_8
REMARK    4  A    between atoms: N_8  and  C_9
REMARK    5  A    between atoms: C_9  and  C_10
REMARK    6  A    between atoms: C_10  and  N_11
REMARK                            x       y       z     vdW  Elec       q    Type
REMARK                         _______ _______ _______ _____ _____    ______ ____
ROOT
ATOM      1  N   UNL     1       5.749   5.122  17.462  0.00  0.00    +0.000 NA
ATOM      2  H   UNL     1       5.883   4.942  18.461  0.00  0.00    +0.000 HD
ENDROOT
BRANCH   1   3
ATOM      3  S   UNL     1       7.213   5.226  16.615  0.00  0.00    +0.000 S 
ATOM      4  O   UNL     1       8.105   4.214  17.135  0.00  0.00    +0.000 OA
ATOM      5  O   UNL     1       7.583   6.617  16.532  0.00  0.00    +0.000 OA
BRANCH   3   9
ATOM      6  C   UNL     1       5.135   2.892  12.144  0.00  0.00    +0.000 C 
ATOM      7  C   UNL     1       6.013   3.756  12.983  0.00  0.00    +0.000 A 
ATOM      8  C   UNL     1       5.939   3.849  14.414  0.00  0.00    +0.000 A 
ATOM      9  C   UNL     1       6.876   4.714  14.948  0.00  0.00    +0.000 A 
ATOM     10  S   UNL     1       7.837   5.427  13.727  0.00  0.00    +0.000 S 
ATOM     11  C   UNL     1       7.013   4.581  12.517  0.00  0.00    +0.000 A 
ATOM     12 CL   UNL     1       7.475   4.827  10.877  0.00  0.00    +0.000 Cl
ENDBRANCH   3   9
ENDBRANCH   1   3
BRANCH   1  13
ATOM     13  C   UNL     1       4.790   6.218  17.196  0.00  0.00    +0.000 C 
BRANCH  13  14
ATOM     14  C   UNL     1       3.616   6.152  18.195  0.00  0.00    +0.000 C 
BRANCH  14  15
ATOM     15  N   UNL     1       3.266   4.781  18.568  0.00  0.00    +0.000 NA
ATOM     16  C   UNL     1       3.075   4.541  20.010  0.00  0.00    +0.000 C 
ATOM     17  C   UNL     1       2.541   3.111  20.293  0.00  0.00    +0.000 C 
ATOM     18  C   UNL     1       1.009   3.039  20.307  0.00  0.00    +0.000 C 
ATOM     19  C   UNL     1       0.659   2.470  18.940  0.00  0.00    +0.000 C 
ATOM     20  C   UNL     1       1.938   2.699  18.158  0.00  0.00    +0.000 C 
ATOM     21  C   UNL     1       2.160   4.203  17.790  0.00  0.00    +0.000 C 
ATOM     22  O   UNL     1       2.907   2.284  19.159  0.00  0.00    +0.000 OA
ENDBRANCH  14  15
ENDBRANCH  13  14
ENDBRANCH   1  13
TORSDOF 5
ENDMDL
MODEL 5
REMARK VINA RESULT:      -6.3      4.911      6.525
REMARK  Name = 
REMARK  6 active torsions:
REMARK  status: ('A' for Active; 'I' for Inactive)
REMARK    1  A    between atoms: C_1  and  C_2
REMARK    2  A    between atoms: C_4  and  S_5
REMARK    3  A    between atoms: S_5  and  N_8
REMARK    4  A    between atoms: N_8  and  C_9
REMARK    5  A    between atoms: C_9  and  C_10
REMARK    6  A    between atoms: C_10  and  N_11
REMARK                            x       y       z     vdW  Elec       q    Type
REMARK                         _______ _______ _______ _____ _____    ______ ____
ROOT
ATOM      1  N   UNL     1       8.034   7.191  18.533  0.00  0.00    +0.000 NA
ATOM      2  H   UNL     1       8.844   6.841  19.053  0.00  0.00    +0.000 HD
ENDROOT
BRANCH   1   3
ATOM      3  S   UNL     1       7.362   6.024  17.505  0.00  0.00    +0.000 S 
ATOM      4  O   UNL     1       7.687   4.719  18.034  0.00  0.00    +0.000 OA
ATOM      5  O   UNL     1       7.656   6.404  16.146  0.00  0.00    +0.000 OA
BRANCH   3   9
ATOM      6  C   UNL     1       2.233   7.828  17.941  0.00  0.00    +0.000 C 
ATOM      7  C   UNL     1       3.366   6.865  17.845  0.00  0.00    +0.000 A 
ATOM      8  C   UNL     1       4.748   7.239  17.734  0.00  0.00    +0.000 A 
ATOM      9  C   UNL     1       5.599   6.151  17.672  0.00  0.00    +0.000 A 
ATOM     10  S   UNL     1       4.735   4.677  17.734  0.00  0.00    +0.000 S 
ATOM     11  C   UNL     1       3.257   5.491  17.848  0.00  0.00    +0.000 A 
ATOM     12 CL   UNL     1       1.810   4.565  17.946  0.00  0.00    +0.000 Cl
ENDBRANCH   3   9
ENDBRANCH   1   3
BRANCH   1  13
ATOM     13  C   UNL     1       8.276   8.513  17.911  0.00  0.00    +0.000 C 
BRANCH  13  14
ATOM     14  C   UNL     1       8.761   9.521  18.974  0.00  0.00    +0.000 C 
BRANCH  14  15
ATOM     15  N   UNL     1       9.520  10.630  18.396  0.00  0.00    +0.000 NA
ATOM     16  C   UNL     1       8.721  11.785  17.945  0.00  0.00    +0.000 C 
ATOM     17  C   UNL     1       9.618  12.974  17.510  0.00  0.00    +0.000 C 
ATOM     18  C   UNL     1       9.937  13.933  18.664  0.00  0.00    +0.000 C 
ATOM     19  C   UNL     1      11.347  13.541  19.084  0.00  0.00    +0.000 C 
ATOM     20  C   UNL     1      11.497  12.165  18.463  0.00  0.00    +0.000 C 
ATOM     21  C   UNL     1      10.664  11.071  19.209  0.00  0.00    +0.000 C 
ATOM     22  O   UNL     1      10.915  12.428  17.157  0.00  0.00    +0.000 OA
ENDBRANCH  14  15
ENDBRANCH  13  14
ENDBRANCH   1  13
TORSDOF 5
ENDMDL
MODEL 6
REMARK VINA RESULT:      -6.3      3.667      6.208
REMARK  Name = 
REMARK  6 active torsions:
REMARK  status: ('A' for Active; 'I' for Inactive)
REMARK    1  A    between atoms: C_1  and  C_2
REMARK    2  A    between atoms: C_4  and  S_5
REMARK    3  A    between atoms: S_5  and  N_8
REMARK    4  A    between atoms: N_8  and  C_9
REMARK    5  A    between atoms: C_9  and  C_10
REMARK    6  A    between atoms: C_10  and  N_11
REMARK                            x       y       z     vdW  Elec       q    Type
REMARK                         _______ _______ _______ _____ _____    ______ ____
ROOT
ATOM      1  N   UNL     1       5.724   5.997  18.519  0.00  0.00    +0.000 NA
ATOM      2  H   UNL     1       6.351   6.668  18.971  0.00  0.00    +0.000 HD
ENDROOT
BRANCH   1   3
ATOM      3  S   UNL     1       6.508   4.560  18.083  0.00  0.00    +0.000 S 
ATOM      4  O   UNL     1       5.703   3.451  18.545  0.00  0.00    +0.000 OA
ATOM      5  O   UNL     1       7.905   4.694  18.415  0.00  0.00    +0.000 OA
BRANCH   3   9
ATOM      6  C   UNL     1       5.079   3.525  12.922  0.00  0.00    +0.000 C 
ATOM      7  C   UNL     1       5.868   4.061  14.067  0.00  0.00    +0.000 A 
ATOM      8  C   UNL     1       5.536   3.866  15.449  0.00  0.00    +0.000 A 
ATOM      9  C   UNL     1       6.440   4.458  16.311  0.00  0.00    +0.000 A 
ATOM     10  S   UNL     1       7.684   5.262  15.458  0.00  0.00    +0.000 S 
ATOM     11  C   UNL     1       7.019   4.813  13.969  0.00  0.00    +0.000 A 
ATOM     12 CL   UNL     1       7.805   5.323  12.526  0.00  0.00    +0.000 Cl
ENDBRANCH   3   9
ENDBRANCH   1   3
BRANCH   1  13
ATOM     13  C   UNL     1       4.895   6.608  17.456  0.00  0.00    +0.000 C 
BRANCH  13  14
ATOM     14  C   UNL     1       3.397   6.460  17.797  0.00  0.00    +0.000 C 
BRANCH  14  15
ATOM     15  N   UNL     1       3.107   5.245  18.558  0.00  0.00    +0.000 NA
ATOM     16  C   UNL     1       2.606   5.455  19.929  0.00  0.00    +0.000 C 
ATOM     17  C   UNL     1       2.166   4.123  20.595  0.00  0.00    +0.000 C 
ATOM     18  C   UNL     1       0.689   3.794  20.346  0.00  0.00    +0.000 C 
ATOM     19  C   UNL     1       0.728   2.761  19.229  0.00  0.00    +0.000 C 
ATOM     20  C   UNL     1       2.127   2.944  18.670  0.00  0.00    +0.000 C 
ATOM     21  C   UNL     1       2.279   4.262  17.843  0.00  0.00    +0.000 C 
ATOM     22  O   UNL     1       2.869   3.051  19.916  0.00  0.00    +0.000 OA
ENDBRANCH  14  15
ENDBRANCH  13  14
ENDBRANCH   1  13
TORSDOF 5
ENDMDL
MODEL 7
REMARK VINA RESULT:      -6.2      3.441      6.037
REMARK  Name = 
REMARK  6 active torsions:
REMARK  status: ('A' for Active; 'I' for Inactive)
REMARK    1  A    between atoms: C_1  and  C_2
REMARK    2  A    between atoms: C_4  and  S_5
REMARK    3  A    between atoms: S_5  and  N_8
REMARK    4  A    between atoms: N_8  and  C_9
REMARK    5  A    between atoms: C_9  and  C_10
REMARK    6  A    between atoms: C_10  and  N_11
REMARK                            x       y       z     vdW  Elec       q    Type
REMARK                         _______ _______ _______ _____ _____    ______ ____
ROOT
ATOM      1  N   UNL     1       4.758   5.834  19.103  0.00  0.00    +0.000 NA
ATOM      2  H   UNL     1       5.109   6.613  19.667  0.00  0.00    +0.000 HD
ENDROOT
BRANCH   1   3
ATOM      3  S   UNL     1       5.942   4.663  18.796  0.00  0.00    +0.000 S 
ATOM      4  O   UNL     1       5.409   3.374  19.176  0.00  0.00    +0.000 OA
ATOM      5  O   UNL     1       7.201   5.158  19.295  0.00  0.00    +0.000 OA
BRANCH   3   9
ATOM      6  C   UNL     1       5.325   3.552  13.491  0.00  0.00    +0.000 C 
ATOM      7  C   UNL     1       5.900   4.146  14.731  0.00  0.00    +0.000 A 
ATOM      8  C   UNL     1       5.403   3.909  16.056  0.00  0.00    +0.000 A 
ATOM      9  C   UNL     1       6.124   4.572  17.031  0.00  0.00    +0.000 A 
ATOM     10  S   UNL     1       7.395   5.492  16.352  0.00  0.00    +0.000 S 
ATOM     11  C   UNL     1       6.981   4.999  14.788  0.00  0.00    +0.000 A 
ATOM     12 CL   UNL     1       7.907   5.591  13.463  0.00  0.00    +0.000 Cl
ENDBRANCH   3   9
ENDBRANCH   1   3
BRANCH   1  13
ATOM     13  C   UNL     1       3.991   6.279  17.918  0.00  0.00    +0.000 C 
BRANCH  13  14
ATOM     14  C   UNL     1       2.519   6.541  18.302  0.00  0.00    +0.000 C 
BRANCH  14  15
ATOM     15  N   UNL     1       1.821   5.327  18.726  0.00  0.00    +0.000 NA
ATOM     16  C   UNL     1       2.143   4.106  17.965  0.00  0.00    +0.000 C 
ATOM     17  C   UNL     1       1.492   2.844  18.592  0.00  0.00    +0.000 C 
ATOM     18  C   UNL     1       2.392   2.163  19.631  0.00  0.00    +0.000 C 
ATOM     19  C   UNL     1       1.827   2.631  20.965  0.00  0.00    +0.000 C 
ATOM     20  C   UNL     1       0.997   3.834  20.559  0.00  0.00    +0.000 C 
ATOM     21  C   UNL     1       1.874   5.070  20.174  0.00  0.00    +0.000 C 
ATOM     22  O   UNL     1       0.354   3.291  19.373  0.00  0.00    +0.000 OA
ENDBRANCH  14  15
ENDBRANCH  13  14
ENDBRANCH   1  13
TORSDOF 5
ENDMDL
MODEL 8
REMARK VINA RESULT:      -6.2      1.007      1.201
REMARK  Name = 
REMARK  6 active torsions:
REMARK  status: ('A' for Active; 'I' for Inactive)
REMARK    1  A    between atoms: C_1  and  C_2
REMARK    2  A    between atoms: C_4  and  S_5
REMARK    3  A    between atoms: S_5  and  N_8
REMARK    4  A    between atoms: N_8  and  C_9
REMARK    5  A    between atoms: C_9  and  C_10
REMARK    6  A    between atoms: C_10  and  N_11
REMARK                            x       y       z     vdW  Elec       q    Type
REMARK                         _______ _______ _______ _____ _____    ______ ____
ROOT
ATOM      1  N   UNL     1       3.427   2.584  19.435  0.00  0.00    +0.000 NA
ATOM      2  H   UNL     1       3.594   1.898  20.177  0.00  0.00    +0.000 HD
ENDROOT
BRANCH   1   3
ATOM      3  S   UNL     1       1.840   3.177  19.437  0.00  0.00    +0.000 S 
ATOM      4  O   UNL     1       1.246   2.867  20.718  0.00  0.00    +0.000 OA
ATOM      5  O   UNL     1       1.223   2.807  18.187  0.00  0.00    +0.000 OA
BRANCH   3   9
ATOM      6  C   UNL     1       2.582   8.383  17.987  0.00  0.00    +0.000 C 
ATOM      7  C   UNL     1       2.241   7.211  18.844  0.00  0.00    +0.000 A 
ATOM      8  C   UNL     1       2.317   5.842  18.420  0.00  0.00    +0.000 A 
ATOM      9  C   UNL     1       1.957   4.949  19.412  0.00  0.00    +0.000 A 
ATOM     10  S   UNL     1       1.515   5.758  20.852  0.00  0.00    +0.000 S 
ATOM     11  C   UNL     1       1.810   7.269  20.151  0.00  0.00    +0.000 A 
ATOM     12 CL   UNL     1       1.546   8.683  21.096  0.00  0.00    +0.000 Cl
ENDBRANCH   3   9
ENDBRANCH   1   3
BRANCH   1  13
ATOM     13  C   UNL     1       3.931   2.140  18.115  0.00  0.00    +0.000 C 
BRANCH  13  14
ATOM     14  C   UNL     1       4.078   3.349  17.167  0.00  0.00    +0.000 C 
BRANCH  14  15
ATOM     15  N   UNL     1       5.451   3.849  17.098  0.00  0.00    +0.000 NA
ATOM     16  C   UNL     1       5.757   4.718  15.946  0.00  0.00    +0.000 C 
ATOM     17  C   UNL     1       7.177   5.336  16.048  0.00  0.00    +0.000 C 
ATOM     18  C   UNL     1       7.189   6.683  16.781  0.00  0.00    +0.000 C 
ATOM     19  C   UNL     1       7.674   6.332  18.180  0.00  0.00    +0.000 C 
ATOM     20  C   UNL     1       7.456   4.832  18.230  0.00  0.00    +0.000 C 
ATOM     21  C   UNL     1       5.945   4.445  18.349  0.00  0.00    +0.000 C 
ATOM     22  O   UNL     1       7.959   4.474  16.914  0.00  0.00    +0.000 OA
ENDBRANCH  14  15
ENDBRANCH  13  14
ENDBRANCH   1  13
TORSDOF 5
ENDMDL
MODEL 9
REMARK VINA RESULT:      -6.2      3.236      5.798
REMARK  Name = 
REMARK  6 active torsions:
REMARK  status: ('A' for Active; 'I' for Inactive)
REMARK    1  A    between atoms: C_1  and  C_2
REMARK    2  A    between atoms: C_4  and  S_5
REMARK    3  A    between atoms: S_5  and  N_8
REMARK    4  A    between atoms: N_8  and  C_9
REMARK    5  A    between atoms: C_9  and  C_10
REMARK    6  A    between atoms: C_10  and  N_11
REMARK                            x       y       z     vdW  Elec       q    Type
REMARK                         _______ _______ _______ _____ _____    ______ ____
ROOT
ATOM      1  N   UNL     1       5.466   3.935  15.649  0.00  0.00    +0.000 NA
ATOM      2  H   UNL     1       6.118   3.288  16.102  0.00  0.00    +0.000 HD
ENDROOT
BRANCH   1   3
ATOM      3  S   UNL     1       6.194   5.403  15.220  0.00  0.00    +0.000 S 
ATOM      4  O   UNL     1       5.146   6.364  14.957  0.00  0.00    +0.000 OA
ATOM      5  O   UNL     1       7.242   5.122  14.271  0.00  0.00    +0.000 OA
BRANCH   3   9
ATOM      6  C   UNL     1       8.659   8.523  18.954  0.00  0.00    +0.000 C 
ATOM      7  C   UNL     1       8.059   7.309  18.331  0.00  0.00    +0.000 A 
ATOM      8  C   UNL     1       7.486   7.266  17.016  0.00  0.00    +0.000 A 
ATOM      9  C   UNL     1       7.009   6.014  16.675  0.00  0.00    +0.000 A 
ATOM     10  S   UNL     1       7.239   4.890  17.943  0.00  0.00    +0.000 S 
ATOM     11  C   UNL     1       7.967   6.065  18.917  0.00  0.00    +0.000 A 
ATOM     12 CL   UNL     1       8.499   5.618  20.492  0.00  0.00    +0.000 Cl
ENDBRANCH   3   9
ENDBRANCH   1   3
BRANCH   1  13
ATOM     13  C   UNL     1       4.180   4.058  16.372  0.00  0.00    +0.000 C 
BRANCH  13  14
ATOM     14  C   UNL     1       4.069   2.963  17.454  0.00  0.00    +0.000 C 
BRANCH  14  15
ATOM     15  N   UNL     1       3.477   3.455  18.698  0.00  0.00    +0.000 NA
ATOM     16  C   UNL     1       2.196   4.172  18.555  0.00  0.00    +0.000 C 
ATOM     17  C   UNL     1       1.562   4.502  19.933  0.00  0.00    +0.000 C 
ATOM     18  C   UNL     1       0.629   3.395  20.440  0.00  0.00    +0.000 C 
ATOM     19  C   UNL     1       1.474   2.641  21.456  0.00  0.00    +0.000 C 
ATOM     20  C   UNL     1       2.880   3.090  21.101  0.00  0.00    +0.000 C 
ATOM     21  C   UNL     1       3.399   2.452  19.771  0.00  0.00    +0.000 C 
ATOM     22  O   UNL     1       2.635   4.510  20.909  0.00  0.00    +0.000 OA
ENDBRANCH  14  15
ENDBRANCH  13  14
ENDBRANCH   1  13
TORSDOF 5
ENDMDL
