MODEL 1
REMARK VINA RESULT:      -7.7      0.000      0.000
REMARK  Name = 
REMARK  7 active torsions:
REMARK  status: ('A' for Active; 'I' for Inactive)
REMARK    1  A    between atoms: C_1  and  C_2
REMARK    2  A    between atoms: C_2  and  N_3
REMARK    3  A    between atoms: C_7  and  C_8
REMARK    4  A    between atoms: C_8  and  C_9
REMARK    5  A    between atoms: C_9  and  C_10
REMARK    6  A    between atoms: C_13  and  N_14
REMARK    7  A    between atoms: N_21  and  C_22
REMARK                            x       y       z     vdW  Elec       q    Type
REMARK                         _______ _______ _______ _____ _____    ______ ____
ROOT
ATOM      1  N   UNL     1      -1.318  12.833  21.797  0.00  0.00    +0.000 N 
ATOM      2  C   UNL     1      -0.684  11.584  21.745  0.00  0.00    +0.000 A 
ATOM      3  N   UNL     1      -0.289  10.954  22.886  0.00  0.00    +0.000 NA
ATOM      4  C   UNL     1       0.244   9.701  22.775  0.00  0.00    +0.000 A 
ATOM      5  C   UNL     1       0.464   9.035  21.574  0.00  0.00    +0.000 A 
ATOM      6  C   UNL     1       0.129   9.735  20.420  0.00  0.00    +0.000 A 
ATOM      7  C   UNL     1      -0.484  10.990  20.519  0.00  0.00    +0.000 A 
ATOM      8  C   UNL     1      -0.926  11.620  19.281  0.00  0.00    +0.000 C 
ATOM      9  O   UNL     1      -0.130  11.668  18.347  0.00  0.00    +0.000 OA
ATOM     10  N   UNL     1      -2.296  11.821  19.159  0.00  0.00    +0.000 N 
ATOM     11  C   UNL     1      -2.859  11.408  17.886  0.00  0.00    +0.000 C 
ATOM     12  C   UNL     1      -3.122  12.487  20.141  0.00  0.00    +0.000 A 
ATOM     13  C   UNL     1      -4.480  12.710  19.846  0.00  0.00    +0.000 A 
ATOM     14  C   UNL     1      -5.293  13.455  20.692  0.00  0.00    +0.000 A 
ATOM     15  C   UNL     1      -4.724  13.988  21.823  0.00  0.00    +0.000 A 
ATOM     16  N   UNL     1      -3.430  13.811  22.149  0.00  0.00    +0.000 NA
ATOM     17  C   UNL     1      -2.631  13.049  21.348  0.00  0.00    +0.000 A 
ENDROOT
BRANCH   1  19
ATOM     18  C   UNL     1       0.456  14.475  22.012  0.00  0.00    +0.000 C 
ATOM     19  C   UNL     1      -0.739  13.817  22.708  0.00  0.00    +0.000 C 
ENDBRANCH   1  19
BRANCH   5  20
ATOM     20  C   UNL     1       1.078   7.666  21.441  0.00  0.00    +0.000 C 
BRANCH  20  21
ATOM     21  C   UNL     1       1.907   7.439  20.171  0.00  0.00    +0.000 C 
BRANCH  21  22
ATOM     22  C   UNL     1       1.952   5.993  19.732  0.00  0.00    +0.000 A 
ATOM     23  C   UNL     1       1.548   4.963  20.590  0.00  0.00    +0.000 A 
ATOM     24  C   UNL     1       1.509   3.638  20.145  0.00  0.00    +0.000 A 
ATOM     25  C   UNL     1       1.907   3.305  18.849  0.00  0.00    +0.000 A 
ATOM     26  C   UNL     1       2.269   4.336  17.980  0.00  0.00    +0.000 A 
ATOM     27  C   UNL     1       2.312   5.663  18.420  0.00  0.00    +0.000 A 
BRANCH  25  28
ATOM     28  N   UNL     1       1.708   2.008  18.361  0.00  0.00    +0.000 N 
ATOM     29  H   UNL     1       1.281   1.976  17.441  0.00  0.00    +0.000 HD
ATOM     30  H   UNL     1       1.254   1.385  19.021  0.00  0.00    +0.000 HD
ENDBRANCH  25  28
ENDBRANCH  21  22
ENDBRANCH  20  21
ENDBRANCH   5  20
TORSDOF 5
ENDMDL
MODEL 2
REMARK VINA RESULT:      -7.6      3.250      7.436
REMARK  Name = 
REMARK  7 active torsions:
REMARK  status: ('A' for Active; 'I' for Inactive)
REMARK    1  A    between atoms: C_1  and  C_2
REMARK    2  A    between atoms: C_2  and  N_3
REMARK    3  A    between atoms: C_7  and  C_8
REMARK    4  A    between atoms: C_8  and  C_9
REMARK    5  A    between atoms: C_9  and  C_10
REMARK    6  A    between atoms: C_13  and  N_14
REMARK    7  A    between atoms: N_21  and  C_22
REMARK                            x       y       z     vdW  Elec       q    Type
REMARK                         _______ _______ _______ _____ _____    ______ ____
ROOT
ATOM      1  N   UNL     1       0.183  10.350  19.302  0.00  0.00    +0.000 N 
ATOM      2  C   UNL     1      -0.996  10.565  18.573  0.00  0.00    +0.000 A 
ATOM      3  N   UNL     1      -1.369   9.708  17.582  0.00  0.00    +0.000 NA
ATOM      4  C   UNL     1      -2.570   9.923  16.967  0.00  0.00    +0.000 A 
ATOM      5  C   UNL     1      -3.422  10.987  17.241  0.00  0.00    +0.000 A 
ATOM      6  C   UNL     1      -2.978  11.893  18.198  0.00  0.00    +0.000 A 
ATOM      7  C   UNL     1      -1.784  11.648  18.887  0.00  0.00    +0.000 A 
ATOM      8  C   UNL     1      -1.433  12.564  19.965  0.00  0.00    +0.000 C 
ATOM      9  O   UNL     1      -1.488  13.769  19.733  0.00  0.00    +0.000 OA
ATOM     10  N   UNL     1      -1.378  12.010  21.238  0.00  0.00    +0.000 N 
ATOM     11  C   UNL     1      -2.065  12.775  22.264  0.00  0.00    +0.000 C 
ATOM     12  C   UNL     1      -0.617  10.832  21.592  0.00  0.00    +0.000 A 
ATOM     13  C   UNL     1      -0.571  10.435  22.942  0.00  0.00    +0.000 A 
ATOM     14  C   UNL     1       0.242   9.390  23.363  0.00  0.00    +0.000 A 
ATOM     15  C   UNL     1       1.022   8.764  22.419  0.00  0.00    +0.000 A 
ATOM     16  N   UNL     1       1.021   9.108  21.118  0.00  0.00    +0.000 NA
ATOM     17  C   UNL     1       0.197  10.106  20.685  0.00  0.00    +0.000 A 
ENDROOT
BRANCH   1  19
ATOM     18  C   UNL     1       2.123  11.246  18.153  0.00  0.00    +0.000 C 
ATOM     19  C   UNL     1       1.363   9.970  18.531  0.00  0.00    +0.000 C 
ENDBRANCH   1  19
BRANCH   5  20
ATOM     20  C   UNL     1      -4.734  11.248  16.547  0.00  0.00    +0.000 C 
BRANCH  20  21
ATOM     21  C   UNL     1      -5.666  12.236  17.257  0.00  0.00    +0.000 C 
BRANCH  21  22
ATOM     22  C   UNL     1      -6.355  11.649  18.468  0.00  0.00    +0.000 A 
ATOM     23  C   UNL     1      -6.680  10.289  18.529  0.00  0.00    +0.000 A 
ATOM     24  C   UNL     1      -7.236   9.738  19.688  0.00  0.00    +0.000 A 
ATOM     25  C   UNL     1      -7.516  10.537  20.798  0.00  0.00    +0.000 A 
ATOM     26  C   UNL     1      -7.154  11.884  20.754  0.00  0.00    +0.000 A 
ATOM     27  C   UNL     1      -6.599  12.442  19.596  0.00  0.00    +0.000 A 
BRANCH  25  28
ATOM     28  N   UNL     1      -7.915   9.953  22.006  0.00  0.00    +0.000 N 
ATOM     29  H   UNL     1      -8.514   9.142  21.893  0.00  0.00    +0.000 HD
ATOM     30  H   UNL     1      -8.282  10.616  22.681  0.00  0.00    +0.000 HD
ENDBRANCH  25  28
ENDBRANCH  21  22
ENDBRANCH  20  21
ENDBRANCH   5  20
TORSDOF 5
ENDMDL
MODEL 3
REMARK VINA RESULT:      -7.6      1.081      1.406
REMARK  Name = 
REMARK  7 active torsions:
REMARK  status: ('A' for Active; 'I' for Inactive)
REMARK    1  A    between atoms: C_1  and  C_2
REMARK    2  A    between atoms: C_2  and  N_3
REMARK    3  A    between atoms: C_7  and  C_8
REMARK    4  A    between atoms: C_8  and  C_9
REMARK    5  A    between atoms: C_9  and  C_10
REMARK    6  A    between atoms: C_13  and  N_14
REMARK    7  A    between atoms: N_21  and  C_22
REMARK                            x       y       z     vdW  Elec       q    Type
REMARK                         _______ _______ _______ _____ _____    ______ ____
ROOT
ATOM      1  N   UNL     1      -1.753  12.530  21.973  0.00  0.00    +0.000 N 
ATOM      2  C   UNL     1      -0.967  11.378  21.837  0.00  0.00    +0.000 A 
ATOM      3  N   UNL     1      -0.651  10.616  22.921  0.00  0.00    +0.000 NA
ATOM      4  C   UNL     1       0.045   9.459  22.712  0.00  0.00    +0.000 A 
ATOM      5  C   UNL     1       0.505   9.023  21.474  0.00  0.00    +0.000 A 
ATOM      6  C   UNL     1       0.242   9.861  20.396  0.00  0.00    +0.000 A 
ATOM      7  C   UNL     1      -0.531  11.013  20.583  0.00  0.00    +0.000 A 
ATOM      8  C   UNL     1      -0.880  11.786  19.396  0.00  0.00    +0.000 C 
ATOM      9  O   UNL     1       0.022  12.067  18.611  0.00  0.00    +0.000 OA
ATOM     10  N   UNL     1      -2.235  11.862  19.099  0.00  0.00    +0.000 N 
ATOM     11  C   UNL     1      -2.567  11.603  17.709  0.00  0.00    +0.000 C 
ATOM     12  C   UNL     1      -3.262  12.272  20.031  0.00  0.00    +0.000 A 
ATOM     13  C   UNL     1      -4.586  12.397  19.569  0.00  0.00    +0.000 A 
ATOM     14  C   UNL     1      -5.592  12.908  20.381  0.00  0.00    +0.000 A 
ATOM     15  C   UNL     1      -5.250  13.307  21.650  0.00  0.00    +0.000 A 
ATOM     16  N   UNL     1      -3.999  13.215  22.139  0.00  0.00    +0.000 NA
ATOM     17  C   UNL     1      -3.011  12.678  21.366  0.00  0.00    +0.000 A 
ENDROOT
BRANCH   1  19
ATOM     18  C   UNL     1      -0.376  14.418  22.627  0.00  0.00    +0.000 C 
ATOM     19  C   UNL     1      -1.429  13.409  23.094  0.00  0.00    +0.000 C 
ENDBRANCH   1  19
BRANCH   5  20
ATOM     20  C   UNL     1       1.299   7.764  21.238  0.00  0.00    +0.000 C 
BRANCH  20  21
ATOM     21  C   UNL     1       1.925   7.634  19.845  0.00  0.00    +0.000 C 
BRANCH  21  22
ATOM     22  C   UNL     1       2.636   6.318  19.625  0.00  0.00    +0.000 A 
ATOM     23  C   UNL     1       3.708   6.216  18.731  0.00  0.00    +0.000 A 
ATOM     24  C   UNL     1       4.416   5.016  18.600  0.00  0.00    +0.000 A 
ATOM     25  C   UNL     1       4.048   3.884  19.328  0.00  0.00    +0.000 A 
ATOM     26  C   UNL     1       3.007   3.997  20.251  0.00  0.00    +0.000 A 
ATOM     27  C   UNL     1       2.293   5.193  20.385  0.00  0.00    +0.000 A 
BRANCH  25  28
ATOM     28  N   UNL     1       4.860   2.743  19.317  0.00  0.00    +0.000 N 
ATOM     29  H   UNL     1       4.412   1.916  19.699  0.00  0.00    +0.000 HD
ATOM     30  H   UNL     1       5.787   2.894  19.701  0.00  0.00    +0.000 HD
ENDBRANCH  25  28
ENDBRANCH  21  22
ENDBRANCH  20  21
ENDBRANCH   5  20
TORSDOF 5
ENDMDL
MODEL 4
REMARK VINA RESULT:      -7.6      2.157      3.847
REMARK  Name = 
REMARK  7 active torsions:
REMARK  status: ('A' for Active; 'I' for Inactive)
REMARK    1  A    between atoms: C_1  and  C_2
REMARK    2  A    between atoms: C_2  and  N_3
REMARK    3  A    between atoms: C_7  and  C_8
REMARK    4  A    between atoms: C_8  and  C_9
REMARK    5  A    between atoms: C_9  and  C_10
REMARK    6  A    between atoms: C_13  and  N_14
REMARK    7  A    between atoms: N_21  and  C_22
REMARK                            x       y       z     vdW  Elec       q    Type
REMARK                         _______ _______ _______ _____ _____    ______ ____
ROOT
ATOM      1  N   UNL     1      -0.911  10.896  19.122  0.00  0.00    +0.000 N 
ATOM      2  C   UNL     1       0.117   9.962  18.922  0.00  0.00    +0.000 A 
ATOM      3  N   UNL     1       0.875   9.992  17.791  0.00  0.00    +0.000 NA
ATOM      4  C   UNL     1       1.915   9.111  17.693  0.00  0.00    +0.000 A 
ATOM      5  C   UNL     1       2.230   8.146  18.644  0.00  0.00    +0.000 A 
ATOM      6  C   UNL     1       1.388   8.083  19.749  0.00  0.00    +0.000 A 
ATOM      7  C   UNL     1       0.362   9.023  19.898  0.00  0.00    +0.000 A 
ATOM      8  C   UNL     1      -0.407   8.987  21.136  0.00  0.00    +0.000 C 
ATOM      9  O   UNL     1      -0.842   7.900  21.507  0.00  0.00    +0.000 OA
ATOM     10  N   UNL     1      -0.309  10.113  21.944  0.00  0.00    +0.000 N 
ATOM     11  C   UNL     1      -0.069   9.833  23.348  0.00  0.00    +0.000 C 
ATOM     12  C   UNL     1      -0.534  11.470  21.497  0.00  0.00    +0.000 A 
ATOM     13  C   UNL     1      -0.497  12.510  22.445  0.00  0.00    +0.000 A 
ATOM     14  C   UNL     1      -0.829  13.815  22.102  0.00  0.00    +0.000 A 
ATOM     15  C   UNL     1      -1.215  14.059  20.806  0.00  0.00    +0.000 A 
ATOM     16  N   UNL     1      -1.273  13.100  19.863  0.00  0.00    +0.000 NA
ATOM     17  C   UNL     1      -0.912  11.822  20.177  0.00  0.00    +0.000 A 
ENDROOT
BRANCH   1  19
ATOM     18  C   UNL     1      -2.813  10.044  17.880  0.00  0.00    +0.000 C 
ATOM     19  C   UNL     1      -1.775  11.166  17.975  0.00  0.00    +0.000 C 
ENDBRANCH   1  19
BRANCH   5  20
ATOM     20  C   UNL     1       3.356   7.152  18.531  0.00  0.00    +0.000 C 
BRANCH  20  21
ATOM     21  C   UNL     1       2.963   5.773  17.989  0.00  0.00    +0.000 C 
BRANCH  21  22
ATOM     22  C   UNL     1       2.505   4.813  19.063  0.00  0.00    +0.000 A 
ATOM     23  C   UNL     1       3.058   4.847  20.349  0.00  0.00    +0.000 A 
ATOM     24  C   UNL     1       2.567   4.015  21.360  0.00  0.00    +0.000 A 
ATOM     25  C   UNL     1       1.540   3.105  21.103  0.00  0.00    +0.000 A 
ATOM     26  C   UNL     1       0.959   3.100  19.834  0.00  0.00    +0.000 A 
ATOM     27  C   UNL     1       1.448   3.928  18.818  0.00  0.00    +0.000 A 
BRANCH  25  28
ATOM     28  N   UNL     1       0.943   2.398  22.155  0.00  0.00    +0.000 N 
ATOM     29  H   UNL     1       0.330   1.650  21.851  0.00  0.00    +0.000 HD
ATOM     30  H   UNL     1       0.513   2.992  22.856  0.00  0.00    +0.000 HD
ENDBRANCH  25  28
ENDBRANCH  21  22
ENDBRANCH  20  21
ENDBRANCH   5  20
TORSDOF 5
ENDMDL
MODEL 5
REMARK VINA RESULT:      -7.5      8.801     10.465
REMARK  Name = 
REMARK  7 active torsions:
REMARK  status: ('A' for Active; 'I' for Inactive)
REMARK    1  A    between atoms: C_1  and  C_2
REMARK    2  A    between atoms: C_2  and  N_3
REMARK    3  A    between atoms: C_7  and  C_8
REMARK    4  A    between atoms: C_8  and  C_9
REMARK    5  A    between atoms: C_9  and  C_10
REMARK    6  A    between atoms: C_13  and  N_14
REMARK    7  A    between atoms: N_21  and  C_22
REMARK                            x       y       z     vdW  Elec       q    Type
REMARK                         _______ _______ _______ _____ _____    ______ ____
ROOT
ATOM      1  N   UNL     1      10.616  14.946  18.786  0.00  0.00    +0.000 N 
ATOM      2  C   UNL     1      10.289  13.583  18.754  0.00  0.00    +0.000 A 
ATOM      3  N   UNL     1      11.243  12.632  18.958  0.00  0.00    +0.000 NA
ATOM      4  C   UNL     1      10.847  11.326  19.000  0.00  0.00    +0.000 A 
ATOM      5  C   UNL     1       9.544  10.884  18.799  0.00  0.00    +0.000 A 
ATOM      6  C   UNL     1       8.605  11.869  18.510  0.00  0.00    +0.000 A 
ATOM      7  C   UNL     1       8.981  13.217  18.533  0.00  0.00    +0.000 A 
ATOM      8  C   UNL     1       7.929  14.210  18.346  0.00  0.00    +0.000 C 
ATOM      9  O   UNL     1       7.157  14.055  17.404  0.00  0.00    +0.000 OA
ATOM     10  N   UNL     1       7.696  15.056  19.423  0.00  0.00    +0.000 N 
ATOM     11  C   UNL     1       6.298  15.217  19.778  0.00  0.00    +0.000 C 
ATOM     12  C   UNL     1       8.715  15.829  20.099  0.00  0.00    +0.000 A 
ATOM     13  C   UNL     1       8.325  16.722  21.115  0.00  0.00    +0.000 A 
ATOM     14  C   UNL     1       9.239  17.583  21.713  0.00  0.00    +0.000 A 
ATOM     15  C   UNL     1      10.538  17.549  21.267  0.00  0.00    +0.000 A 
ATOM     16  N   UNL     1      10.961  16.720  20.295  0.00  0.00    +0.000 NA
ATOM     17  C   UNL     1      10.084  15.842  19.728  0.00  0.00    +0.000 A 
ENDROOT
BRANCH   1  19
ATOM     18  C   UNL     1      11.445  16.191  16.875  0.00  0.00    +0.000 C 
ATOM     19  C   UNL     1      11.836  15.338  18.086  0.00  0.00    +0.000 C 
ENDBRANCH   1  19
BRANCH   5  20
ATOM     20  C   UNL     1       9.104   9.443  18.814  0.00  0.00    +0.000 C 
BRANCH  20  21
ATOM     21  C   UNL     1       8.167   9.031  17.673  0.00  0.00    +0.000 C 
BRANCH  21  22
ATOM     22  C   UNL     1       7.610   7.634  17.827  0.00  0.00    +0.000 A 
ATOM     23  C   UNL     1       8.165   6.729  18.740  0.00  0.00    +0.000 A 
ATOM     24  C   UNL     1       7.588   5.470  18.939  0.00  0.00    +0.000 A 
ATOM     25  C   UNL     1       6.469   5.072  18.207  0.00  0.00    +0.000 A 
ATOM     26  C   UNL     1       5.889   5.989  17.329  0.00  0.00    +0.000 A 
ATOM     27  C   UNL     1       6.463   7.248  17.123  0.00  0.00    +0.000 A 
BRANCH  25  28
ATOM     28  N   UNL     1       5.801   3.884  18.529  0.00  0.00    +0.000 N 
ATOM     29  H   UNL     1       5.522   3.337  17.721  0.00  0.00    +0.000 HD
ATOM     30  H   UNL     1       5.044   4.006  19.195  0.00  0.00    +0.000 HD
ENDBRANCH  25  28
ENDBRANCH  21  22
ENDBRANCH  20  21
ENDBRANCH   5  20
TORSDOF 5
ENDMDL
MODEL 6
REMARK VINA RESULT:      -7.4      0.794      1.290
REMARK  Name = 
REMARK  7 active torsions:
REMARK  status: ('A' for Active; 'I' for Inactive)
REMARK    1  A    between atoms: C_1  and  C_2
REMARK    2  A    between atoms: C_2  and  N_3
REMARK    3  A    between atoms: C_7  and  C_8
REMARK    4  A    between atoms: C_8  and  C_9
REMARK    5  A    between atoms: C_9  and  C_10
REMARK    6  A    between atoms: C_13  and  N_14
REMARK    7  A    between atoms: N_21  and  C_22
REMARK                            x       y       z     vdW  Elec       q    Type
REMARK                         _______ _______ _______ _____ _____    ______ ____
ROOT
ATOM      1  N   UNL     1      -1.270  12.786  21.711  0.00  0.00    +0.000 N 
ATOM      2  C   UNL     1      -0.520  11.719  21.196  0.00  0.00    +0.000 A 
ATOM      3  N   UNL     1       0.290  10.981  22.005  0.00  0.00    +0.000 NA
ATOM      4  C   UNL     1       0.928   9.902  21.461  0.00  0.00    +0.000 A 
ATOM      5  C   UNL     1       0.855   9.527  20.124  0.00  0.00    +0.000 A 
ATOM      6  C   UNL     1       0.088  10.347  19.303  0.00  0.00    +0.000 A 
ATOM      7  C   UNL     1      -0.628  11.414  19.858  0.00  0.00    +0.000 A 
ATOM      8  C   UNL     1      -1.513  12.161  18.971  0.00  0.00    +0.000 C 
ATOM      9  O   UNL     1      -1.058  12.538  17.895  0.00  0.00    +0.000 OA
ATOM     10  N   UNL     1      -2.867  12.104  19.277  0.00  0.00    +0.000 N 
ATOM     11  C   UNL     1      -3.734  11.828  18.145  0.00  0.00    +0.000 C 
ATOM     12  C   UNL     1      -3.432  12.399  20.575  0.00  0.00    +0.000 A 
ATOM     13  C   UNL     1      -4.832  12.396  20.722  0.00  0.00    +0.000 A 
ATOM     14  C   UNL     1      -5.438  12.795  21.907  0.00  0.00    +0.000 A 
ATOM     15  C   UNL     1      -4.625  13.213  22.934  0.00  0.00    +0.000 A 
ATOM     16  N   UNL     1      -3.282  13.240  22.844  0.00  0.00    +0.000 NA
ATOM     17  C   UNL     1      -2.674  12.814  21.700  0.00  0.00    +0.000 A 
ENDROOT
BRANCH   1  19
ATOM     18  C   UNL     1       0.306  14.628  21.819  0.00  0.00    +0.000 C 
ATOM     19  C   UNL     1      -0.577  13.680  22.635  0.00  0.00    +0.000 C 
ENDBRANCH   1  19
BRANCH   5  20
ATOM     20  C   UNL     1       1.579   8.357  19.510  0.00  0.00    +0.000 C 
BRANCH  20  21
ATOM     21  C   UNL     1       1.936   7.225  20.480  0.00  0.00    +0.000 C 
BRANCH  21  22
ATOM     22  C   UNL     1       1.801   5.847  19.873  0.00  0.00    +0.000 A 
ATOM     23  C   UNL     1       2.229   5.587  18.565  0.00  0.00    +0.000 A 
ATOM     24  C   UNL     1       2.182   4.291  18.043  0.00  0.00    +0.000 A 
ATOM     25  C   UNL     1       1.674   3.232  18.797  0.00  0.00    +0.000 A 
ATOM     26  C   UNL     1       1.287   3.482  20.115  0.00  0.00    +0.000 A 
ATOM     27  C   UNL     1       1.329   4.777  20.643  0.00  0.00    +0.000 A 
BRANCH  25  28
ATOM     28  N   UNL     1       1.784   1.916  18.332  0.00  0.00    +0.000 N 
ATOM     29  H   UNL     1       0.994   1.327  18.573  0.00  0.00    +0.000 HD
ATOM     30  H   UNL     1       2.674   1.478  18.546  0.00  0.00    +0.000 HD
ENDBRANCH  25  28
ENDBRANCH  21  22
ENDBRANCH  20  21
ENDBRANCH   5  20
TORSDOF 5
ENDMDL
MODEL 7
REMARK VINA RESULT:      -7.3      1.307      1.801
REMARK  Name = 
REMARK  7 active torsions:
REMARK  status: ('A' for Active; 'I' for Inactive)
REMARK    1  A    between atoms: C_1  and  C_2
REMARK    2  A    between atoms: C_2  and  N_3
REMARK    3  A    between atoms: C_7  and  C_8
REMARK    4  A    between atoms: C_8  and  C_9
REMARK    5  A    between atoms: C_9  and  C_10
REMARK    6  A    between atoms: C_13  and  N_14
REMARK    7  A    between atoms: N_21  and  C_22
REMARK                            x       y       z     vdW  Elec       q    Type
REMARK                         _______ _______ _______ _____ _____    ______ ____
ROOT
ATOM      1  N   UNL     1      -1.374  12.520  21.738  0.00  0.00    +0.000 N 
ATOM      2  C   UNL     1      -0.566  11.445  21.342  0.00  0.00    +0.000 A 
ATOM      3  N   UNL     1       0.063  10.668  22.268  0.00  0.00    +0.000 NA
ATOM      4  C   UNL     1       0.766   9.584  21.824  0.00  0.00    +0.000 A 
ATOM      5  C   UNL     1       0.934   9.240  20.487  0.00  0.00    +0.000 A 
ATOM      6  C   UNL     1       0.352  10.097  19.560  0.00  0.00    +0.000 A 
ATOM      7  C   UNL     1      -0.431  11.171  20.000  0.00  0.00    +0.000 A 
ATOM      8  C   UNL     1      -1.119  11.961  18.985  0.00  0.00    +0.000 C 
ATOM      9  O   UNL     1      -0.464  12.349  18.021  0.00  0.00    +0.000 OA
ATOM     10  N   UNL     1      -2.507  11.934  19.034  0.00  0.00    +0.000 N 
ATOM     11  C   UNL     1      -3.155  11.706  17.754  0.00  0.00    +0.000 C 
ATOM     12  C   UNL     1      -3.296  12.216  20.212  0.00  0.00    +0.000 A 
ATOM     13  C   UNL     1      -4.699  12.249  20.097  0.00  0.00    +0.000 A 
ATOM     14  C   UNL     1      -5.505  12.638  21.160  0.00  0.00    +0.000 A 
ATOM     15  C   UNL     1      -4.887  13.012  22.329  0.00  0.00    +0.000 A 
ATOM     16  N   UNL     1      -3.551  13.005  22.490  0.00  0.00    +0.000 NA
ATOM     17  C   UNL     1      -2.750  12.587  21.467  0.00  0.00    +0.000 A 
ENDROOT
BRANCH   1  19
ATOM     18  C   UNL     1      -0.048  14.511  22.147  0.00  0.00    +0.000 C 
ATOM     19  C   UNL     1      -0.844  13.375  22.797  0.00  0.00    +0.000 C 
ENDBRANCH   1  19
BRANCH   5  20
ATOM     20  C   UNL     1       1.732   8.063  19.987  0.00  0.00    +0.000 C 
BRANCH  20  21
ATOM     21  C   UNL     1       2.144   8.129  18.513  0.00  0.00    +0.000 C 
BRANCH  21  22
ATOM     22  C   UNL     1       2.851   6.883  18.030  0.00  0.00    +0.000 A 
ATOM     23  C   UNL     1       4.092   6.959  17.385  0.00  0.00    +0.000 A 
ATOM     24  C   UNL     1       4.779   5.796  17.021  0.00  0.00    +0.000 A 
ATOM     25  C   UNL     1       4.229   4.535  17.256  0.00  0.00    +0.000 A 
ATOM     26  C   UNL     1       3.013   4.458  17.936  0.00  0.00    +0.000 A 
ATOM     27  C   UNL     1       2.319   5.617  18.301  0.00  0.00    +0.000 A 
BRANCH  25  28
ATOM     28  N   UNL     1       4.993   3.381  17.043  0.00  0.00    +0.000 N 
ATOM     29  H   UNL     1       5.992   3.551  16.999  0.00  0.00    +0.000 HD
ATOM     30  H   UNL     1       4.663   2.807  16.274  0.00  0.00    +0.000 HD
ENDBRANCH  25  28
ENDBRANCH  21  22
ENDBRANCH  20  21
ENDBRANCH   5  20
TORSDOF 5
ENDMDL
MODEL 8
REMARK VINA RESULT:      -7.3      1.610      1.890
REMARK  Name = 
REMARK  7 active torsions:
REMARK  status: ('A' for Active; 'I' for Inactive)
REMARK    1  A    between atoms: C_1  and  C_2
REMARK    2  A    between atoms: C_2  and  N_3
REMARK    3  A    between atoms: C_7  and  C_8
REMARK    4  A    between atoms: C_8  and  C_9
REMARK    5  A    between atoms: C_9  and  C_10
REMARK    6  A    between atoms: C_13  and  N_14
REMARK    7  A    between atoms: N_21  and  C_22
REMARK                            x       y       z     vdW  Elec       q    Type
REMARK                         _______ _______ _______ _____ _____    ______ ____
ROOT
ATOM      1  N   UNL     1      -1.321  13.130  19.816  0.00  0.00    +0.000 N 
ATOM      2  C   UNL     1      -0.565  12.006  19.452  0.00  0.00    +0.000 A 
ATOM      3  N   UNL     1       0.571  11.680  20.130  0.00  0.00    +0.000 NA
ATOM      4  C   UNL     1       1.215  10.527  19.784  0.00  0.00    +0.000 A 
ATOM      5  C   UNL     1       0.828   9.680  18.750  0.00  0.00    +0.000 A 
ATOM      6  C   UNL     1      -0.286  10.080  18.021  0.00  0.00    +0.000 A 
ATOM      7  C   UNL     1      -0.999  11.221  18.408  0.00  0.00    +0.000 A 
ATOM      8  C   UNL     1      -2.229  11.521  17.684  0.00  0.00    +0.000 C 
ATOM      9  O   UNL     1      -2.189  11.507  16.457  0.00  0.00    +0.000 OA
ATOM     10  N   UNL     1      -3.398  11.482  18.434  0.00  0.00    +0.000 N 
ATOM     11  C   UNL     1      -4.489  10.746  17.820  0.00  0.00    +0.000 C 
ATOM     12  C   UNL     1      -3.605  12.193  19.676  0.00  0.00    +0.000 A 
ATOM     13  C   UNL     1      -4.875  12.142  20.283  0.00  0.00    +0.000 A 
ATOM     14  C   UNL     1      -5.173  12.905  21.406  0.00  0.00    +0.000 A 
ATOM     15  C   UNL     1      -4.191  13.730  21.899  0.00  0.00    +0.000 A 
ATOM     16  N   UNL     1      -2.964  13.821  21.354  0.00  0.00    +0.000 NA
ATOM     17  C   UNL     1      -2.646  13.048  20.275  0.00  0.00    +0.000 A 
ENDROOT
BRANCH   1  19
ATOM     18  C   UNL     1      -0.135  14.974  18.777  0.00  0.00    +0.000 C 
ATOM     19  C   UNL     1      -0.572  14.350  20.106  0.00  0.00    +0.000 C 
ENDBRANCH   1  19
BRANCH   5  20
ATOM     20  C   UNL     1       1.550   8.422  18.342  0.00  0.00    +0.000 C 
BRANCH  20  21
ATOM     21  C   UNL     1       2.167   7.619  19.492  0.00  0.00    +0.000 C 
BRANCH  21  22
ATOM     22  C   UNL     1       2.012   6.123  19.332  0.00  0.00    +0.000 A 
ATOM     23  C   UNL     1       1.555   5.326  20.388  0.00  0.00    +0.000 A 
ATOM     24  C   UNL     1       1.331   3.957  20.203  0.00  0.00    +0.000 A 
ATOM     25  C   UNL     1       1.593   3.347  18.976  0.00  0.00    +0.000 A 
ATOM     26  C   UNL     1       2.009   4.149  17.912  0.00  0.00    +0.000 A 
ATOM     27  C   UNL     1       2.237   5.517  18.090  0.00  0.00    +0.000 A 
BRANCH  25  28
ATOM     28  N   UNL     1       1.211   2.019  18.752  0.00  0.00    +0.000 N 
ATOM     29  H   UNL     1       1.607   1.359  19.413  0.00  0.00    +0.000 HD
ATOM     30  H   UNL     1       1.321   1.717  17.789  0.00  0.00    +0.000 HD
ENDBRANCH  25  28
ENDBRANCH  21  22
ENDBRANCH  20  21
ENDBRANCH   5  20
TORSDOF 5
ENDMDL
MODEL 9
REMARK VINA RESULT:      -7.3      2.832      4.628
REMARK  Name = 
REMARK  7 active torsions:
REMARK  status: ('A' for Active; 'I' for Inactive)
REMARK    1  A    between atoms: C_1  and  C_2
REMARK    2  A    between atoms: C_2  and  N_3
REMARK    3  A    between atoms: C_7  and  C_8
REMARK    4  A    between atoms: C_8  and  C_9
REMARK    5  A    between atoms: C_9  and  C_10
REMARK    6  A    between atoms: C_13  and  N_14
REMARK    7  A    between atoms: N_21  and  C_22
REMARK                            x       y       z     vdW  Elec       q    Type
REMARK                         _______ _______ _______ _____ _____    ______ ____
ROOT
ATOM      1  N   UNL     1      -0.634  10.669  18.989  0.00  0.00    +0.000 N 
ATOM      2  C   UNL     1       0.333   9.652  18.987  0.00  0.00    +0.000 A 
ATOM      3  N   UNL     1       1.172   9.490  17.927  0.00  0.00    +0.000 NA
ATOM      4  C   UNL     1       2.148   8.538  18.022  0.00  0.00    +0.000 A 
ATOM      5  C   UNL     1       2.318   7.681  19.104  0.00  0.00    +0.000 A 
ATOM      6  C   UNL     1       1.395   7.812  20.136  0.00  0.00    +0.000 A 
ATOM      7  C   UNL     1       0.434   8.829  20.085  0.00  0.00    +0.000 A 
ATOM      8  C   UNL     1      -0.425   8.998  21.252  0.00  0.00    +0.000 C 
ATOM      9  O   UNL     1      -0.967   7.997  21.713  0.00  0.00    +0.000 OA
ATOM     10  N   UNL     1      -0.303  10.207  21.924  0.00  0.00    +0.000 N 
ATOM     11  C   UNL     1      -0.189  10.091  23.367  0.00  0.00    +0.000 C 
ATOM     12  C   UNL     1      -0.391  11.509  21.301  0.00  0.00    +0.000 A 
ATOM     13  C   UNL     1      -0.346  12.656  22.118  0.00  0.00    +0.000 A 
ATOM     14  C   UNL     1      -0.553  13.927  21.594  0.00  0.00    +0.000 A 
ATOM     15  C   UNL     1      -0.823  14.031  20.251  0.00  0.00    +0.000 A 
ATOM     16  N   UNL     1      -0.883  12.968  19.428  0.00  0.00    +0.000 NA
ATOM     17  C   UNL     1      -0.643  11.718  19.921  0.00  0.00    +0.000 A 
ENDROOT
BRANCH   1  19
ATOM     18  C   UNL     1      -2.633   9.958  17.811  0.00  0.00    +0.000 C 
ATOM     19  C   UNL     1      -1.388  10.849  17.751  0.00  0.00    +0.000 C 
ENDBRANCH   1  19
BRANCH   5  20
ATOM     20  C   UNL     1       3.372   6.609  19.204  0.00  0.00    +0.000 C 
BRANCH  20  21
ATOM     21  C   UNL     1       3.183   5.413  18.263  0.00  0.00    +0.000 C 
BRANCH  21  22
ATOM     22  C   UNL     1       4.237   5.325  17.183  0.00  0.00    +0.000 A 
ATOM     23  C   UNL     1       4.799   6.478  16.624  0.00  0.00    +0.000 A 
ATOM     24  C   UNL     1       5.836   6.386  15.690  0.00  0.00    +0.000 A 
ATOM     25  C   UNL     1       6.308   5.144  15.263  0.00  0.00    +0.000 A 
ATOM     26  C   UNL     1       5.777   3.995  15.851  0.00  0.00    +0.000 A 
ATOM     27  C   UNL     1       4.739   4.080  16.785  0.00  0.00    +0.000 A 
BRANCH  25  28
ATOM     28  N   UNL     1       7.451   5.062  14.459  0.00  0.00    +0.000 N 
ATOM     29  H   UNL     1       7.782   5.959  14.120  0.00  0.00    +0.000 HD
ATOM     30  H   UNL     1       7.384   4.369  13.720  0.00  0.00    +0.000 HD
ENDBRANCH  25  28
ENDBRANCH  21  22
ENDBRANCH  20  21
ENDBRANCH   5  20
TORSDOF 5
ENDMDL
