MODEL 1
REMARK VINA RESULT:      -9.6      0.000      0.000
REMARK  Name = 
REMARK  10 active torsions:
REMARK  status: ('A' for Active; 'I' for Inactive)
REMARK    1  A    between atoms: C_1  and  C_2
REMARK    2  A    between atoms: C_5  and  C_6
REMARK    3  A    between atoms: C_7  and  S_8
REMARK    4  A    between atoms: S_8  and  N_11
REMARK    5  A    between atoms: N_11  and  N_12
REMARK    6  A    between atoms: C_16  and  C_17
REMARK    7  A    between atoms: C_17  and  C_18
REMARK    8  A    between atoms: N_20  and  C_21
REMARK    9  A    between atoms: C_21  and  C_22
REMARK   10  A    between atoms: C_25  and  C_26
REMARK                            x       y       z     vdW  Elec       q    Type
REMARK                         _______ _______ _______ _____ _____    ______ ____
ROOT
ATOM      1  N   UNL     1       5.109   4.402  17.279  0.00  0.00    +0.000 N 
ATOM      2  C   UNL     1       4.785   4.436  15.857  0.00  0.00    +0.000 C 
ATOM      3  C   UNL     1       5.552   5.514  15.124  0.00  0.00    +0.000 C 
ATOM      4  O   UNL     1       5.392   6.751  15.817  0.00  0.00    +0.000 OA
ATOM      5  C   UNL     1       5.979   6.720  17.131  0.00  0.00    +0.000 C 
ATOM      6  C   UNL     1       5.546   5.511  17.994  0.00  0.00    +0.000 C 
ATOM      7  O   UNL     1       5.638   5.511  19.223  0.00  0.00    +0.000 OA
ENDROOT
BRANCH   1   8
ATOM      8  N   UNL     1       4.543   3.264  18.041  0.00  0.00    +0.000 NA
ATOM      9  H   UNL     1       5.098   2.400  18.040  0.00  0.00    +0.000 HD
BRANCH   8  10
ATOM     10  S   UNL     1       2.871   3.136  18.294  0.00  0.00    +0.000 S 
ATOM     11  O   UNL     1       2.694   2.091  19.278  0.00  0.00    +0.000 OA
ATOM     12  O   UNL     1       2.213   3.045  17.001  0.00  0.00    +0.000 OA
BRANCH  10  19
ATOM     13  C   UNL     1       2.091   8.296  17.837  0.00  0.00    +0.000 C 
ATOM     14  C   UNL     1       2.110   7.086  18.725  0.00  0.00    +0.000 A 
ATOM     15  C   UNL     1       1.889   7.206  20.098  0.00  0.00    +0.000 A 
ATOM     16  C   UNL     1       1.919   6.081  20.926  0.00  0.00    +0.000 A 
ATOM     17  C   UNL     1       2.170   4.803  20.406  0.00  0.00    +0.000 A 
ATOM     18  C   UNL     1       2.213   3.636  21.352  0.00  0.00    +0.000 C 
ATOM     19  C   UNL     1       2.391   4.684  19.022  0.00  0.00    +0.000 A 
ATOM     20  C   UNL     1       2.364   5.818  18.190  0.00  0.00    +0.000 A 
ENDBRANCH  10  19
ENDBRANCH   8  10
ENDBRANCH   1   8
BRANCH   5  21
ATOM     21  C   UNL     1       7.510   6.811  17.044  0.00  0.00    +0.000 C 
BRANCH  21  22
ATOM     22  C   UNL     1       8.147   7.460  18.266  0.00  0.00    +0.000 C 
ATOM     23  O   UNL     1       8.478   6.795  19.243  0.00  0.00    +0.000 OA
ATOM     24  N   UNL     1       8.398   8.805  18.156  0.00  0.00    +0.000 N 
ATOM     25  H   UNL     1       8.138   9.280  17.295  0.00  0.00    +0.000 HD
BRANCH  24  26
ATOM     26  C   UNL     1       8.971   9.604  19.204  0.00  0.00    +0.000 C 
BRANCH  26  27
ATOM     27  C   UNL     1       9.477  10.923  18.683  0.00  0.00    +0.000 A 
ATOM     28  C   UNL     1       8.688  11.717  17.840  0.00  0.00    +0.000 A 
ATOM     29  C   UNL     1       9.149  12.962  17.400  0.00  0.00    +0.000 A 
ATOM     30  C   UNL     1      10.411  13.422  17.794  0.00  0.00    +0.000 A 
ATOM     31  C   UNL     1      11.220  12.616  18.601  0.00  0.00    +0.000 A 
ATOM     32  C   UNL     1      10.758  11.371  19.036  0.00  0.00    +0.000 A 
BRANCH  30  33
ATOM     33  C   UNL     1      10.902  14.764  17.365  0.00  0.00    +0.000 C 
ATOM     34  N   UNL     1      12.158  15.041  17.217  0.00  0.00    +0.000 NA
ATOM     35  N   UNL     1      10.025  15.775  17.107  0.00  0.00    +0.000 N 
ATOM     36  H   UNL     1      12.744  14.217  17.372  0.00  0.00    +0.000 HD
ATOM     37  H   UNL     1       9.195  15.815  17.684  0.00  0.00    +0.000 HD
ATOM     38  H   UNL     1      10.507  16.667  17.041  0.00  0.00    +0.000 HD
ENDBRANCH  30  33
ENDBRANCH  26  27
ENDBRANCH  24  26
ENDBRANCH  21  22
ENDBRANCH   5  21
TORSDOF 8
ENDMDL
MODEL 2
REMARK VINA RESULT:      -9.5      0.287      1.018
REMARK  Name = 
REMARK  10 active torsions:
REMARK  status: ('A' for Active; 'I' for Inactive)
REMARK    1  A    between atoms: C_1  and  C_2
REMARK    2  A    between atoms: C_5  and  C_6
REMARK    3  A    between atoms: C_7  and  S_8
REMARK    4  A    between atoms: S_8  and  N_11
REMARK    5  A    between atoms: N_11  and  N_12
REMARK    6  A    between atoms: C_16  and  C_17
REMARK    7  A    between atoms: C_17  and  C_18
REMARK    8  A    between atoms: N_20  and  C_21
REMARK    9  A    between atoms: C_21  and  C_22
REMARK   10  A    between atoms: C_25  and  C_26
REMARK                            x       y       z     vdW  Elec       q    Type
REMARK                         _______ _______ _______ _____ _____    ______ ____
ROOT
ATOM      1  N   UNL     1       5.144   4.388  17.253  0.00  0.00    +0.000 N 
ATOM      2  C   UNL     1       4.830   4.408  15.828  0.00  0.00    +0.000 C 
ATOM      3  C   UNL     1       5.592   5.488  15.094  0.00  0.00    +0.000 C 
ATOM      4  O   UNL     1       5.414   6.729  15.776  0.00  0.00    +0.000 OA
ATOM      5  C   UNL     1       5.993   6.713  17.094  0.00  0.00    +0.000 C 
ATOM      6  C   UNL     1       5.564   5.507  17.963  0.00  0.00    +0.000 C 
ATOM      7  O   UNL     1       5.648   5.516  19.193  0.00  0.00    +0.000 OA
ENDROOT
BRANCH   1   8
ATOM      8  N   UNL     1       4.584   3.250  18.020  0.00  0.00    +0.000 NA
ATOM      9  H   UNL     1       5.141   2.388  18.020  0.00  0.00    +0.000 HD
BRANCH   8  10
ATOM     10  S   UNL     1       2.913   3.117  18.276  0.00  0.00    +0.000 S 
ATOM     11  O   UNL     1       2.742   2.085  19.276  0.00  0.00    +0.000 OA
ATOM     12  O   UNL     1       2.254   3.002  16.985  0.00  0.00    +0.000 OA
BRANCH  10  19
ATOM     13  C   UNL     1       2.176   8.278  17.764  0.00  0.00    +0.000 C 
ATOM     14  C   UNL     1       2.166   7.074  18.661  0.00  0.00    +0.000 A 
ATOM     15  C   UNL     1       1.913   7.205  20.028  0.00  0.00    +0.000 A 
ATOM     16  C   UNL     1       1.915   6.086  20.864  0.00  0.00    +0.000 A 
ATOM     17  C   UNL     1       2.172   4.803  20.359  0.00  0.00    +0.000 A 
ATOM     18  C   UNL     1       2.184   3.642  21.314  0.00  0.00    +0.000 C 
ATOM     19  C   UNL     1       2.425   4.672  18.981  0.00  0.00    +0.000 A 
ATOM     20  C   UNL     1       2.425   5.800  18.141  0.00  0.00    +0.000 A 
ENDBRANCH  10  19
ENDBRANCH   8  10
ENDBRANCH   1   8
BRANCH   5  21
ATOM     21  C   UNL     1       7.523   6.819  17.018  0.00  0.00    +0.000 C 
BRANCH  21  22
ATOM     22  C   UNL     1       8.145   7.481  18.240  0.00  0.00    +0.000 C 
ATOM     23  O   UNL     1       8.433   6.833  19.242  0.00  0.00    +0.000 OA
ATOM     24  N   UNL     1       8.432   8.817  18.105  0.00  0.00    +0.000 N 
ATOM     25  H   UNL     1       8.207   9.277  17.226  0.00  0.00    +0.000 HD
BRANCH  24  26
ATOM     26  C   UNL     1       8.999   9.627  19.148  0.00  0.00    +0.000 C 
BRANCH  26  27
ATOM     27  C   UNL     1       9.377  10.995  18.645  0.00  0.00    +0.000 A 
ATOM     28  C   UNL     1      10.711  11.424  18.655  0.00  0.00    +0.000 A 
ATOM     29  C   UNL     1      11.057  12.679  18.144  0.00  0.00    +0.000 A 
ATOM     30  C   UNL     1      10.069  13.521  17.621  0.00  0.00    +0.000 A 
ATOM     31  C   UNL     1       8.731  13.115  17.647  0.00  0.00    +0.000 A 
ATOM     32  C   UNL     1       8.387  11.863  18.163  0.00  0.00    +0.000 A 
BRANCH  30  33
ATOM     33  C   UNL     1      10.425  14.847  17.036  0.00  0.00    +0.000 C 
ATOM     34  N   UNL     1       9.677  15.896  17.159  0.00  0.00    +0.000 NA
ATOM     35  N   UNL     1      11.581  15.006  16.332  0.00  0.00    +0.000 N 
ATOM     36  H   UNL     1       8.862  15.709  17.748  0.00  0.00    +0.000 HD
ATOM     37  H   UNL     1      11.882  14.223  15.767  0.00  0.00    +0.000 HD
ATOM     38  H   UNL     1      11.579  15.885  15.822  0.00  0.00    +0.000 HD
ENDBRANCH  30  33
ENDBRANCH  26  27
ENDBRANCH  24  26
ENDBRANCH  21  22
ENDBRANCH   5  21
TORSDOF 8
ENDMDL
MODEL 3
REMARK VINA RESULT:      -9.0      6.282      9.741
REMARK  Name = 
REMARK  10 active torsions:
REMARK  status: ('A' for Active; 'I' for Inactive)
REMARK    1  A    between atoms: C_1  and  C_2
REMARK    2  A    between atoms: C_5  and  C_6
REMARK    3  A    between atoms: C_7  and  S_8
REMARK    4  A    between atoms: S_8  and  N_11
REMARK    5  A    between atoms: N_11  and  N_12
REMARK    6  A    between atoms: C_16  and  C_17
REMARK    7  A    between atoms: C_17  and  C_18
REMARK    8  A    between atoms: N_20  and  C_21
REMARK    9  A    between atoms: C_21  and  C_22
REMARK   10  A    between atoms: C_25  and  C_26
REMARK                            x       y       z     vdW  Elec       q    Type
REMARK                         _______ _______ _______ _____ _____    ______ ____
ROOT
ATOM      1  N   UNL     1       1.970   7.680  20.001  0.00  0.00    +0.000 N 
ATOM      2  C   UNL     1       1.236   7.916  21.239  0.00  0.00    +0.000 C 
ATOM      3  C   UNL     1       0.077   8.868  21.041  0.00  0.00    +0.000 C 
ATOM      4  O   UNL     1       0.547  10.040  20.377  0.00  0.00    +0.000 OA
ATOM      5  C   UNL     1       1.016   9.761  19.045  0.00  0.00    +0.000 C 
ATOM      6  C   UNL     1       2.033   8.598  18.958  0.00  0.00    +0.000 C 
ATOM      7  O   UNL     1       2.801   8.462  18.003  0.00  0.00    +0.000 OA
ENDROOT
BRANCH   1   8
ATOM      8  N   UNL     1       3.007   6.623  20.058  0.00  0.00    +0.000 NA
ATOM      9  H   UNL     1       3.978   6.948  20.142  0.00  0.00    +0.000 HD
BRANCH   8  10
ATOM     10  S   UNL     1       2.734   5.102  19.359  0.00  0.00    +0.000 S 
ATOM     11  O   UNL     1       1.513   5.228  18.593  0.00  0.00    +0.000 OA
ATOM     12  O   UNL     1       2.848   4.089  20.395  0.00  0.00    +0.000 OA
BRANCH  10  19
ATOM     13  C   UNL     1       7.251   6.768  17.294  0.00  0.00    +0.000 C 
ATOM     14  C   UNL     1       6.153   5.745  17.294  0.00  0.00    +0.000 A 
ATOM     15  C   UNL     1       6.135   4.718  16.347  0.00  0.00    +0.000 A 
ATOM     16  C   UNL     1       5.106   3.773  16.340  0.00  0.00    +0.000 A 
ATOM     17  C   UNL     1       4.065   3.826  17.279  0.00  0.00    +0.000 A 
ATOM     18  C   UNL     1       2.975   2.793  17.203  0.00  0.00    +0.000 C 
ATOM     19  C   UNL     1       4.085   4.860  18.232  0.00  0.00    +0.000 A 
ATOM     20  C   UNL     1       5.120   5.813  18.237  0.00  0.00    +0.000 A 
ENDBRANCH  10  19
ENDBRANCH   8  10
ENDBRANCH   1   8
BRANCH   5  21
ATOM     21  C   UNL     1      -0.165   9.530  18.090  0.00  0.00    +0.000 C 
BRANCH  21  22
ATOM     22  C   UNL     1      -1.212  10.633  18.145  0.00  0.00    +0.000 C 
ATOM     23  O   UNL     1      -2.297  10.514  17.583  0.00  0.00    +0.000 OA
ATOM     24  N   UNL     1      -0.891  11.712  18.930  0.00  0.00    +0.000 N 
ATOM     25  H   UNL     1       0.009  11.719  19.405  0.00  0.00    +0.000 HD
BRANCH  24  26
ATOM     26  C   UNL     1      -1.733  12.866  19.095  0.00  0.00    +0.000 C 
BRANCH  26  27
ATOM     27  C   UNL     1      -2.519  12.801  20.377  0.00  0.00    +0.000 A 
ATOM     28  C   UNL     1      -1.905  12.437  21.584  0.00  0.00    +0.000 A 
ATOM     29  C   UNL     1      -2.635  12.425  22.777  0.00  0.00    +0.000 A 
ATOM     30  C   UNL     1      -3.991  12.770  22.773  0.00  0.00    +0.000 A 
ATOM     31  C   UNL     1      -4.620  13.094  21.566  0.00  0.00    +0.000 A 
ATOM     32  C   UNL     1      -3.889  13.101  20.375  0.00  0.00    +0.000 A 
BRANCH  30  33
ATOM     33  C   UNL     1      -4.775  12.800  24.043  0.00  0.00    +0.000 C 
ATOM     34  N   UNL     1      -4.770  11.828  24.898  0.00  0.00    +0.000 NA
ATOM     35  N   UNL     1      -5.546  13.879  24.357  0.00  0.00    +0.000 N 
ATOM     36  H   UNL     1      -4.124  11.086  24.618  0.00  0.00    +0.000 HD
ATOM     37  H   UNL     1      -6.006  14.350  23.589  0.00  0.00    +0.000 HD
ATOM     38  H   UNL     1      -6.175  13.666  25.126  0.00  0.00    +0.000 HD
ENDBRANCH  30  33
ENDBRANCH  26  27
ENDBRANCH  24  26
ENDBRANCH  21  22
ENDBRANCH   5  21
TORSDOF 8
ENDMDL
MODEL 4
REMARK VINA RESULT:      -8.8      5.551      8.733
REMARK  Name = 
REMARK  10 active torsions:
REMARK  status: ('A' for Active; 'I' for Inactive)
REMARK    1  A    between atoms: C_1  and  C_2
REMARK    2  A    between atoms: C_5  and  C_6
REMARK    3  A    between atoms: C_7  and  S_8
REMARK    4  A    between atoms: S_8  and  N_11
REMARK    5  A    between atoms: N_11  and  N_12
REMARK    6  A    between atoms: C_16  and  C_17
REMARK    7  A    between atoms: C_17  and  C_18
REMARK    8  A    between atoms: N_20  and  C_21
REMARK    9  A    between atoms: C_21  and  C_22
REMARK   10  A    between atoms: C_25  and  C_26
REMARK                            x       y       z     vdW  Elec       q    Type
REMARK                         _______ _______ _______ _____ _____    ______ ____
ROOT
ATOM      1  N   UNL     1       0.542   9.724  19.809  0.00  0.00    +0.000 N 
ATOM      2  C   UNL     1       0.915   9.837  18.403  0.00  0.00    +0.000 C 
ATOM      3  C   UNL     1       1.551   8.568  17.880  0.00  0.00    +0.000 C 
ATOM      4  O   UNL     1       2.603   8.178  18.761  0.00  0.00    +0.000 OA
ATOM      5  C   UNL     1       2.115   7.824  20.068  0.00  0.00    +0.000 C 
ATOM      6  C   UNL     1       1.185   8.881  20.709  0.00  0.00    +0.000 C 
ATOM      7  O   UNL     1       0.981   8.932  21.924  0.00  0.00    +0.000 OA
ENDROOT
BRANCH   1   8
ATOM      8  N   UNL     1      -0.249  10.851  20.358  0.00  0.00    +0.000 NA
ATOM      9  H   UNL     1      -1.264  10.803  20.211  0.00  0.00    +0.000 HD
BRANCH   8  10
ATOM     10  S   UNL     1       0.453  12.380  20.570  0.00  0.00    +0.000 S 
ATOM     11  O   UNL     1       0.165  13.123  19.362  0.00  0.00    +0.000 OA
ATOM     12  O   UNL     1       1.827  12.202  21.010  0.00  0.00    +0.000 OA
BRANCH  10  19
ATOM     13  C   UNL     1      -3.592  12.292  23.896  0.00  0.00    +0.000 C 
ATOM     14  C   UNL     1      -2.385  13.019  23.381  0.00  0.00    +0.000 A 
ATOM     15  C   UNL     1      -2.062  14.292  23.857  0.00  0.00    +0.000 A 
ATOM     16  C   UNL     1      -0.944  14.973  23.369  0.00  0.00    +0.000 A 
ATOM     17  C   UNL     1      -0.116  14.402  22.391  0.00  0.00    +0.000 A 
ATOM     18  C   UNL     1       1.059  15.196  21.890  0.00  0.00    +0.000 C 
ATOM     19  C   UNL     1      -0.441  13.120  21.915  0.00  0.00    +0.000 A 
ATOM     20  C   UNL     1      -1.569  12.436  22.404  0.00  0.00    +0.000 A 
ENDBRANCH  10  19
ENDBRANCH   8  10
ENDBRANCH   1   8
BRANCH   5  21
ATOM     21  C   UNL     1       1.442   6.444  20.043  0.00  0.00    +0.000 C 
BRANCH  21  22
ATOM     22  C   UNL     1       2.413   5.302  19.775  0.00  0.00    +0.000 C 
ATOM     23  O   UNL     1       2.014   4.181  19.470  0.00  0.00    +0.000 OA
ATOM     24  N   UNL     1       3.743   5.638  19.814  0.00  0.00    +0.000 N 
ATOM     25  H   UNL     1       3.996   6.599  20.028  0.00  0.00    +0.000 HD
BRANCH  24  26
ATOM     26  C   UNL     1       4.815   4.702  19.612  0.00  0.00    +0.000 C 
BRANCH  26  27
ATOM     27  C   UNL     1       5.316   4.728  18.193  0.00  0.00    +0.000 A 
ATOM     28  C   UNL     1       6.339   5.605  17.804  0.00  0.00    +0.000 A 
ATOM     29  C   UNL     1       6.828   5.588  16.494  0.00  0.00    +0.000 A 
ATOM     30  C   UNL     1       6.293   4.698  15.556  0.00  0.00    +0.000 A 
ATOM     31  C   UNL     1       5.244   3.850  15.927  0.00  0.00    +0.000 A 
ATOM     32  C   UNL     1       4.754   3.872  17.235  0.00  0.00    +0.000 A 
BRANCH  30  33
ATOM     33  C   UNL     1       6.830   4.640  14.165  0.00  0.00    +0.000 C 
ATOM     34  N   UNL     1       6.441   3.764  13.295  0.00  0.00    +0.000 NA
ATOM     35  N   UNL     1       7.774   5.530  13.748  0.00  0.00    +0.000 N 
ATOM     36  H   UNL     1       5.692   3.174  13.666  0.00  0.00    +0.000 HD
ATOM     37  H   UNL     1       8.460   5.820  14.432  0.00  0.00    +0.000 HD
ATOM     38  H   UNL     1       8.190   5.234  12.869  0.00  0.00    +0.000 HD
ENDBRANCH  30  33
ENDBRANCH  26  27
ENDBRANCH  24  26
ENDBRANCH  21  22
ENDBRANCH   5  21
TORSDOF 8
ENDMDL
MODEL 5
REMARK VINA RESULT:      -8.8      5.483      8.606
REMARK  Name = 
REMARK  10 active torsions:
REMARK  status: ('A' for Active; 'I' for Inactive)
REMARK    1  A    between atoms: C_1  and  C_2
REMARK    2  A    between atoms: C_5  and  C_6
REMARK    3  A    between atoms: C_7  and  S_8
REMARK    4  A    between atoms: S_8  and  N_11
REMARK    5  A    between atoms: N_11  and  N_12
REMARK    6  A    between atoms: C_16  and  C_17
REMARK    7  A    between atoms: C_17  and  C_18
REMARK    8  A    between atoms: N_20  and  C_21
REMARK    9  A    between atoms: C_21  and  C_22
REMARK   10  A    between atoms: C_25  and  C_26
REMARK                            x       y       z     vdW  Elec       q    Type
REMARK                         _______ _______ _______ _____ _____    ______ ____
ROOT
ATOM      1  N   UNL     1       0.706   9.742  19.307  0.00  0.00    +0.000 N 
ATOM      2  C   UNL     1       1.279   9.528  17.982  0.00  0.00    +0.000 C 
ATOM      3  C   UNL     1       1.846   8.135  17.827  0.00  0.00    +0.000 C 
ATOM      4  O   UNL     1       2.720   7.864  18.922  0.00  0.00    +0.000 OA
ATOM      5  C   UNL     1       2.023   7.830  20.180  0.00  0.00    +0.000 C 
ATOM      6  C   UNL     1       1.126   9.064  20.445  0.00  0.00    +0.000 C 
ATOM      7  O   UNL     1       0.763   9.385  21.579  0.00  0.00    +0.000 OA
ENDROOT
BRANCH   1   8
ATOM      8  N   UNL     1      -0.033  11.014  19.491  0.00  0.00    +0.000 NA
ATOM      9  H   UNL     1       0.104  11.490  20.390  0.00  0.00    +0.000 HD
BRANCH   8  10
ATOM     10  S   UNL     1      -1.475  11.307  18.647  0.00  0.00    +0.000 S 
ATOM     11  O   UNL     1      -2.004  10.007  18.294  0.00  0.00    +0.000 OA
ATOM     12  O   UNL     1      -1.215  12.297  17.615  0.00  0.00    +0.000 OA
BRANCH  10  19
ATOM     13  C   UNL     1      -2.281  13.249  23.445  0.00  0.00    +0.000 C 
ATOM     14  C   UNL     1      -2.855  12.888  22.106  0.00  0.00    +0.000 A 
ATOM     15  C   UNL     1      -4.223  13.014  21.860  0.00  0.00    +0.000 A 
ATOM     16  C   UNL     1      -4.759  12.666  20.617  0.00  0.00    +0.000 A 
ATOM     17  C   UNL     1      -3.943  12.181  19.584  0.00  0.00    +0.000 A 
ATOM     18  C   UNL     1      -4.583  11.801  18.278  0.00  0.00    +0.000 C 
ATOM     19  C   UNL     1      -2.564  12.056  19.834  0.00  0.00    +0.000 A 
ATOM     20  C   UNL     1      -2.026  12.404  21.086  0.00  0.00    +0.000 A 
ENDBRANCH  10  19
ENDBRANCH   8  10
ENDBRANCH   1   8
BRANCH   5  21
ATOM     21  C   UNL     1       1.220   6.529  20.323  0.00  0.00    +0.000 C 
BRANCH  21  22
ATOM     22  C   UNL     1       2.015   5.284  19.951  0.00  0.00    +0.000 C 
ATOM     23  O   UNL     1       1.471   4.301  19.458  0.00  0.00    +0.000 OA
ATOM     24  N   UNL     1       3.374   5.379  20.126  0.00  0.00    +0.000 N 
ATOM     25  H   UNL     1       3.758   6.244  20.497  0.00  0.00    +0.000 HD
BRANCH  24  26
ATOM     26  C   UNL     1       4.295   4.309  19.857  0.00  0.00    +0.000 C 
BRANCH  26  27
ATOM     27  C   UNL     1       4.892   4.423  18.479  0.00  0.00    +0.000 A 
ATOM     28  C   UNL     1       5.912   5.346  18.209  0.00  0.00    +0.000 A 
ATOM     29  C   UNL     1       6.491   5.411  16.937  0.00  0.00    +0.000 A 
ATOM     30  C   UNL     1       6.049   4.557  15.920  0.00  0.00    +0.000 A 
ATOM     31  C   UNL     1       5.003   3.664  16.172  0.00  0.00    +0.000 A 
ATOM     32  C   UNL     1       4.424   3.604  17.443  0.00  0.00    +0.000 A 
BRANCH  30  33
ATOM     33  C   UNL     1       6.682   4.587  14.569  0.00  0.00    +0.000 C 
ATOM     34  N   UNL     1       7.575   5.461  14.228  0.00  0.00    +0.000 NA
ATOM     35  N   UNL     1       6.335   3.674  13.619  0.00  0.00    +0.000 N 
ATOM     36  H   UNL     1       7.822   6.070  15.011  0.00  0.00    +0.000 HD
ATOM     37  H   UNL     1       5.368   3.378  13.604  0.00  0.00    +0.000 HD
ATOM     38  H   UNL     1       6.681   3.950  12.705  0.00  0.00    +0.000 HD
ENDBRANCH  30  33
ENDBRANCH  26  27
ENDBRANCH  24  26
ENDBRANCH  21  22
ENDBRANCH   5  21
TORSDOF 8
ENDMDL
MODEL 6
REMARK VINA RESULT:      -8.7      6.830     10.228
REMARK  Name = 
REMARK  10 active torsions:
REMARK  status: ('A' for Active; 'I' for Inactive)
REMARK    1  A    between atoms: C_1  and  C_2
REMARK    2  A    between atoms: C_5  and  C_6
REMARK    3  A    between atoms: C_7  and  S_8
REMARK    4  A    between atoms: S_8  and  N_11
REMARK    5  A    between atoms: N_11  and  N_12
REMARK    6  A    between atoms: C_16  and  C_17
REMARK    7  A    between atoms: C_17  and  C_18
REMARK    8  A    between atoms: N_20  and  C_21
REMARK    9  A    between atoms: C_21  and  C_22
REMARK   10  A    between atoms: C_25  and  C_26
REMARK                            x       y       z     vdW  Elec       q    Type
REMARK                         _______ _______ _______ _____ _____    ______ ____
ROOT
ATOM      1  N   UNL     1       2.269   7.868  19.583  0.00  0.00    +0.000 N 
ATOM      2  C   UNL     1       2.359   8.246  18.177  0.00  0.00    +0.000 C 
ATOM      3  C   UNL     1       1.742   9.602  17.913  0.00  0.00    +0.000 C 
ATOM      4  O   UNL     1       0.429   9.632  18.471  0.00  0.00    +0.000 OA
ATOM      5  C   UNL     1       0.444   9.517  19.906  0.00  0.00    +0.000 C 
ATOM      6  C   UNL     1       1.275   8.326  20.441  0.00  0.00    +0.000 C 
ATOM      7  O   UNL     1       1.106   7.857  21.568  0.00  0.00    +0.000 OA
ENDROOT
BRANCH   1   8
ATOM      8  N   UNL     1       3.005   6.641  19.968  0.00  0.00    +0.000 NA
ATOM      9  H   UNL     1       3.927   6.783  20.397  0.00  0.00    +0.000 HD
BRANCH   8  10
ATOM     10  S   UNL     1       2.716   5.172  19.171  0.00  0.00    +0.000 S 
ATOM     11  O   UNL     1       1.528   5.378  18.371  0.00  0.00    +0.000 OA
ATOM     12  O   UNL     1       2.764   4.097  20.148  0.00  0.00    +0.000 OA
BRANCH  10  19
ATOM     13  C   UNL     1       7.288   6.889  17.276  0.00  0.00    +0.000 C 
ATOM     14  C   UNL     1       6.193   5.864  17.222  0.00  0.00    +0.000 A 
ATOM     15  C   UNL     1       6.206   4.857  16.255  0.00  0.00    +0.000 A 
ATOM     16  C   UNL     1       5.181   3.910  16.197  0.00  0.00    +0.000 A 
ATOM     17  C   UNL     1       4.112   3.941  17.105  0.00  0.00    +0.000 A 
ATOM     18  C   UNL     1       3.027   2.908  16.976  0.00  0.00    +0.000 C 
ATOM     19  C   UNL     1       4.101   4.955  18.080  0.00  0.00    +0.000 A 
ATOM     20  C   UNL     1       5.133   5.910  18.135  0.00  0.00    +0.000 A 
ENDBRANCH  10  19
ENDBRANCH   8  10
ENDBRANCH   1   8
BRANCH   5  21
ATOM     21  C   UNL     1       0.896  10.835  20.552  0.00  0.00    +0.000 C 
BRANCH  21  22
ATOM     22  C   UNL     1       0.062  12.035  20.126  0.00  0.00    +0.000 C 
ATOM     23  O   UNL     1       0.581  13.032  19.632  0.00  0.00    +0.000 OA
ATOM     24  N   UNL     1      -1.297  11.884  20.254  0.00  0.00    +0.000 N 
ATOM     25  H   UNL     1      -1.656  11.009  20.628  0.00  0.00    +0.000 HD
BRANCH  24  26
ATOM     26  C   UNL     1      -2.253  12.906  19.929  0.00  0.00    +0.000 C 
BRANCH  26  27
ATOM     27  C   UNL     1      -3.401  12.923  20.903  0.00  0.00    +0.000 A 
ATOM     28  C   UNL     1      -4.720  13.093  20.462  0.00  0.00    +0.000 A 
ATOM     29  C   UNL     1      -5.783  13.061  21.371  0.00  0.00    +0.000 A 
ATOM     30  C   UNL     1      -5.535  12.864  22.734  0.00  0.00    +0.000 A 
ATOM     31  C   UNL     1      -4.217  12.735  23.186  0.00  0.00    +0.000 A 
ATOM     32  C   UNL     1      -3.157  12.772  22.276  0.00  0.00    +0.000 A 
BRANCH  30  33
ATOM     33  C   UNL     1      -6.659  12.788  23.712  0.00  0.00    +0.000 C 
ATOM     34  N   UNL     1      -7.313  11.697  23.951  0.00  0.00    +0.000 NA
ATOM     35  N   UNL     1      -7.050  13.893  24.408  0.00  0.00    +0.000 N 
ATOM     36  H   UNL     1      -6.922  10.905  23.436  0.00  0.00    +0.000 HD
ATOM     37  H   UNL     1      -6.998  14.779  23.922  0.00  0.00    +0.000 HD
ATOM     38  H   UNL     1      -7.946  13.740  24.861  0.00  0.00    +0.000 HD
ENDBRANCH  30  33
ENDBRANCH  26  27
ENDBRANCH  24  26
ENDBRANCH  21  22
ENDBRANCH   5  21
TORSDOF 8
ENDMDL
MODEL 7
REMARK VINA RESULT:      -8.6      5.267      9.064
REMARK  Name = 
REMARK  10 active torsions:
REMARK  status: ('A' for Active; 'I' for Inactive)
REMARK    1  A    between atoms: C_1  and  C_2
REMARK    2  A    between atoms: C_5  and  C_6
REMARK    3  A    between atoms: C_7  and  S_8
REMARK    4  A    between atoms: S_8  and  N_11
REMARK    5  A    between atoms: N_11  and  N_12
REMARK    6  A    between atoms: C_16  and  C_17
REMARK    7  A    between atoms: C_17  and  C_18
REMARK    8  A    between atoms: N_20  and  C_21
REMARK    9  A    between atoms: C_21  and  C_22
REMARK   10  A    between atoms: C_25  and  C_26
REMARK                            x       y       z     vdW  Elec       q    Type
REMARK                         _______ _______ _______ _____ _____    ______ ____
ROOT
ATOM      1  N   UNL     1       3.178   6.629  19.365  0.00  0.00    +0.000 N 
ATOM      2  C   UNL     1       3.513   7.155  18.046  0.00  0.00    +0.000 C 
ATOM      3  C   UNL     1       2.817   8.467  17.763  0.00  0.00    +0.000 C 
ATOM      4  O   UNL     1       1.422   8.319  18.025  0.00  0.00    +0.000 OA
ATOM      5  C   UNL     1       1.153   8.061  19.415  0.00  0.00    +0.000 C 
ATOM      6  C   UNL     1       1.982   6.904  20.021  0.00  0.00    +0.000 C 
ATOM      7  O   UNL     1       1.638   6.310  21.045  0.00  0.00    +0.000 OA
ENDROOT
BRANCH   1   8
ATOM      8  N   UNL     1       3.951   5.443  19.801  0.00  0.00    +0.000 NA
ATOM      9  H   UNL     1       4.711   5.620  20.468  0.00  0.00    +0.000 HD
BRANCH   8  10
ATOM     10  S   UNL     1       4.064   4.071  18.811  0.00  0.00    +0.000 S 
ATOM     11  O   UNL     1       2.760   3.906  18.206  0.00  0.00    +0.000 OA
ATOM     12  O   UNL     1       4.656   2.990  19.582  0.00  0.00    +0.000 OA
BRANCH  10  19
ATOM     13  C   UNL     1       5.516   3.946  13.779  0.00  0.00    +0.000 C 
ATOM     14  C   UNL     1       5.841   4.350  15.187  0.00  0.00    +0.000 A 
ATOM     15  C   UNL     1       7.074   4.929  15.496  0.00  0.00    +0.000 A 
ATOM     16  C   UNL     1       7.381   5.295  16.809  0.00  0.00    +0.000 A 
ATOM     17  C   UNL     1       6.466   5.092  17.853  0.00  0.00    +0.000 A 
ATOM     18  C   UNL     1       6.866   5.485  19.247  0.00  0.00    +0.000 C 
ATOM     19  C   UNL     1       5.224   4.510  17.540  0.00  0.00    +0.000 A 
ATOM     20  C   UNL     1       4.917   4.140  16.218  0.00  0.00    +0.000 A 
ENDBRANCH  10  19
ENDBRANCH   8  10
ENDBRANCH   1   8
BRANCH   5  21
ATOM     21  C   UNL     1       1.311   9.343  20.247  0.00  0.00    +0.000 C 
BRANCH  21  22
ATOM     22  C   UNL     1       0.334  10.443  19.854  0.00  0.00    +0.000 C 
ATOM     23  O   UNL     1       0.653  11.628  19.899  0.00  0.00    +0.000 OA
ATOM     24  N   UNL     1      -0.877  10.012  19.371  0.00  0.00    +0.000 N 
ATOM     25  H   UNL     1      -1.051   9.012  19.319  0.00  0.00    +0.000 HD
BRANCH  24  26
ATOM     26  C   UNL     1      -1.941  10.890  18.970  0.00  0.00    +0.000 C 
BRANCH  26  27
ATOM     27  C   UNL     1      -2.365  10.635  17.548  0.00  0.00    +0.000 A 
ATOM     28  C   UNL     1      -1.764   9.624  16.786  0.00  0.00    +0.000 A 
ATOM     29  C   UNL     1      -2.198   9.365  15.481  0.00  0.00    +0.000 A 
ATOM     30  C   UNL     1      -3.235  10.122  14.923  0.00  0.00    +0.000 A 
ATOM     31  C   UNL     1      -3.809  11.160  15.664  0.00  0.00    +0.000 A 
ATOM     32  C   UNL     1      -3.371  11.419  16.965  0.00  0.00    +0.000 A 
BRANCH  30  33
ATOM     33  C   UNL     1      -3.736   9.834  13.548  0.00  0.00    +0.000 C 
ATOM     34  N   UNL     1      -2.958   9.756  12.516  0.00  0.00    +0.000 NA
ATOM     35  N   UNL     1      -5.065   9.638  13.320  0.00  0.00    +0.000 N 
ATOM     36  H   UNL     1      -1.975   9.855  12.779  0.00  0.00    +0.000 HD
ATOM     37  H   UNL     1      -5.708  10.187  13.876  0.00  0.00    +0.000 HD
ATOM     38  H   UNL     1      -5.273   9.670  12.326  0.00  0.00    +0.000 HD
ENDBRANCH  30  33
ENDBRANCH  26  27
ENDBRANCH  24  26
ENDBRANCH  21  22
ENDBRANCH   5  21
TORSDOF 8
ENDMDL
MODEL 8
REMARK VINA RESULT:      -8.6      8.075     11.374
REMARK  Name = 
REMARK  10 active torsions:
REMARK  status: ('A' for Active; 'I' for Inactive)
REMARK    1  A    between atoms: C_1  and  C_2
REMARK    2  A    between atoms: C_5  and  C_6
REMARK    3  A    between atoms: C_7  and  S_8
REMARK    4  A    between atoms: S_8  and  N_11
REMARK    5  A    between atoms: N_11  and  N_12
REMARK    6  A    between atoms: C_16  and  C_17
REMARK    7  A    between atoms: C_17  and  C_18
REMARK    8  A    between atoms: N_20  and  C_21
REMARK    9  A    between atoms: C_21  and  C_22
REMARK   10  A    between atoms: C_25  and  C_26
REMARK                            x       y       z     vdW  Elec       q    Type
REMARK                         _______ _______ _______ _____ _____    ______ ____
ROOT
ATOM      1  N   UNL     1      -0.881  12.356  22.477  0.00  0.00    +0.000 N 
ATOM      2  C   UNL     1      -0.211  13.520  21.907  0.00  0.00    +0.000 C 
ATOM      3  C   UNL     1       0.579  13.170  20.666  0.00  0.00    +0.000 C 
ATOM      4  O   UNL     1       1.426  12.058  20.952  0.00  0.00    +0.000 OA
ATOM      5  C   UNL     1       0.677  10.866  21.250  0.00  0.00    +0.000 C 
ATOM      6  C   UNL     1      -0.417  11.053  22.328  0.00  0.00    +0.000 C 
ATOM      7  O   UNL     1      -0.887  10.107  22.964  0.00  0.00    +0.000 OA
ENDROOT
BRANCH   1   8
ATOM      8  N   UNL     1      -1.822  12.634  23.588  0.00  0.00    +0.000 NA
ATOM      9  H   UNL     1      -1.514  12.345  24.524  0.00  0.00    +0.000 HD
BRANCH   8  10
ATOM     10  S   UNL     1      -3.489  12.754  23.300  0.00  0.00    +0.000 S 
ATOM     11  O   UNL     1      -4.123  11.860  24.245  0.00  0.00    +0.000 OA
ATOM     12  O   UNL     1      -3.725  12.602  21.874  0.00  0.00    +0.000 OA
BRANCH  10  19
ATOM     13  C   UNL     1      -2.221  17.299  25.574  0.00  0.00    +0.000 C 
ATOM     14  C   UNL     1      -3.255  16.479  24.861  0.00  0.00    +0.000 A 
ATOM     15  C   UNL     1      -4.547  16.973  24.668  0.00  0.00    +0.000 A 
ATOM     16  C   UNL     1      -5.514  16.204  24.014  0.00  0.00    +0.000 A 
ATOM     17  C   UNL     1      -5.218  14.919  23.535  0.00  0.00    +0.000 A 
ATOM     18  C   UNL     1      -6.308  14.133  22.862  0.00  0.00    +0.000 C 
ATOM     19  C   UNL     1      -3.916  14.424  23.730  0.00  0.00    +0.000 A 
ATOM     20  C   UNL     1      -2.944  15.198  24.391  0.00  0.00    +0.000 A 
ENDBRANCH  10  19
ENDBRANCH   8  10
ENDBRANCH   1   8
BRANCH   5  21
ATOM     21  C   UNL     1       0.087  10.259  19.969  0.00  0.00    +0.000 C 
BRANCH  21  22
ATOM     22  C   UNL     1       1.140   9.898  18.930  0.00  0.00    +0.000 C 
ATOM     23  O   UNL     1       1.521  10.713  18.095  0.00  0.00    +0.000 OA
ATOM     24  N   UNL     1       1.682   8.643  19.052  0.00  0.00    +0.000 N 
ATOM     25  H   UNL     1       1.349   8.039  19.799  0.00  0.00    +0.000 HD
BRANCH  24  26
ATOM     26  C   UNL     1       2.671   8.104  18.159  0.00  0.00    +0.000 C 
BRANCH  26  27
ATOM     27  C   UNL     1       2.757   6.605  18.264  0.00  0.00    +0.000 A 
ATOM     28  C   UNL     1       2.010   5.904  19.221  0.00  0.00    +0.000 A 
ATOM     29  C   UNL     1       2.062   4.508  19.280  0.00  0.00    +0.000 A 
ATOM     30  C   UNL     1       2.868   3.797  18.383  0.00  0.00    +0.000 A 
ATOM     31  C   UNL     1       3.648   4.493  17.453  0.00  0.00    +0.000 A 
ATOM     32  C   UNL     1       3.597   5.888  17.400  0.00  0.00    +0.000 A 
BRANCH  30  33
ATOM     33  C   UNL     1       2.905   2.306  18.406  0.00  0.00    +0.000 C 
ATOM     34  N   UNL     1       3.909   1.619  17.964  0.00  0.00    +0.000 NA
ATOM     35  N   UNL     1       1.857   1.593  18.906  0.00  0.00    +0.000 N 
ATOM     36  H   UNL     1       4.676   2.225  17.662  0.00  0.00    +0.000 HD
ATOM     37  H   UNL     1       0.932   1.970  18.745  0.00  0.00    +0.000 HD
ATOM     38  H   UNL     1       1.933   0.610  18.658  0.00  0.00    +0.000 HD
ENDBRANCH  30  33
ENDBRANCH  26  27
ENDBRANCH  24  26
ENDBRANCH  21  22
ENDBRANCH   5  21
TORSDOF 8
ENDMDL
MODEL 9
REMARK VINA RESULT:      -8.6      5.544      8.740
REMARK  Name = 
REMARK  10 active torsions:
REMARK  status: ('A' for Active; 'I' for Inactive)
REMARK    1  A    between atoms: C_1  and  C_2
REMARK    2  A    between atoms: C_5  and  C_6
REMARK    3  A    between atoms: C_7  and  S_8
REMARK    4  A    between atoms: S_8  and  N_11
REMARK    5  A    between atoms: N_11  and  N_12
REMARK    6  A    between atoms: C_16  and  C_17
REMARK    7  A    between atoms: C_17  and  C_18
REMARK    8  A    between atoms: N_20  and  C_21
REMARK    9  A    between atoms: C_21  and  C_22
REMARK   10  A    between atoms: C_25  and  C_26
REMARK                            x       y       z     vdW  Elec       q    Type
REMARK                         _______ _______ _______ _____ _____    ______ ____
ROOT
ATOM      1  N   UNL     1       0.303   9.279  19.943  0.00  0.00    +0.000 N 
ATOM      2  C   UNL     1       0.460   9.968  18.666  0.00  0.00    +0.000 C 
ATOM      3  C   UNL     1       1.360   9.210  17.717  0.00  0.00    +0.000 C 
ATOM      4  O   UNL     1       2.576   8.885  18.389  0.00  0.00    +0.000 OA
ATOM      5  C   UNL     1       2.367   7.980  19.488  0.00  0.00    +0.000 C 
ATOM      6  C   UNL     1       1.259   8.420  20.474  0.00  0.00    +0.000 C 
ATOM      7  O   UNL     1       1.196   7.992  21.629  0.00  0.00    +0.000 OA
ENDROOT
BRANCH   1   8
ATOM      8  N   UNL     1      -0.702   9.854  20.867  0.00  0.00    +0.000 NA
ATOM      9  H   UNL     1      -1.678   9.821  20.550  0.00  0.00    +0.000 HD
BRANCH   8  10
ATOM     10  S   UNL     1      -0.267  11.059  21.979  0.00  0.00    +0.000 S 
ATOM     11  O   UNL     1       0.769  11.839  21.337  0.00  0.00    +0.000 OA
ATOM     12  O   UNL     1      -0.022  10.434  23.267  0.00  0.00    +0.000 OA
BRANCH  10  19
ATOM     13  C   UNL     1      -4.473  12.498  24.749  0.00  0.00    +0.000 C 
ATOM     14  C   UNL     1      -3.673  12.637  23.488  0.00  0.00    +0.000 A 
ATOM     15  C   UNL     1      -4.129  13.437  22.438  0.00  0.00    +0.000 A 
ATOM     16  C   UNL     1      -3.389  13.557  21.259  0.00  0.00    +0.000 A 
ATOM     17  C   UNL     1      -2.172  12.880  21.093  0.00  0.00    +0.000 A 
ATOM     18  C   UNL     1      -1.436  13.031  19.792  0.00  0.00    +0.000 C 
ATOM     19  C   UNL     1      -1.714  12.075  22.152  0.00  0.00    +0.000 A 
ATOM     20  C   UNL     1      -2.461  11.953  23.338  0.00  0.00    +0.000 A 
ENDBRANCH  10  19
ENDBRANCH   8  10
ENDBRANCH   1   8
BRANCH   5  21
ATOM     21  C   UNL     1       2.112   6.554  18.977  0.00  0.00    +0.000 C 
BRANCH  21  22
ATOM     22  C   UNL     1       3.359   5.680  18.973  0.00  0.00    +0.000 C 
ATOM     23  O   UNL     1       3.378   4.591  19.537  0.00  0.00    +0.000 OA
ATOM     24  N   UNL     1       4.410   6.157  18.229  0.00  0.00    +0.000 N 
ATOM     25  H   UNL     1       4.303   7.047  17.750  0.00  0.00    +0.000 HD
BRANCH  24  26
ATOM     26  C   UNL     1       5.680   5.494  18.116  0.00  0.00    +0.000 C 
BRANCH  26  27
ATOM     27  C   UNL     1       5.921   4.990  16.718  0.00  0.00    +0.000 A 
ATOM     28  C   UNL     1       5.017   4.115  16.100  0.00  0.00    +0.000 A 
ATOM     29  C   UNL     1       5.228   3.690  14.784  0.00  0.00    +0.000 A 
ATOM     30  C   UNL     1       6.350   4.132  14.074  0.00  0.00    +0.000 A 
ATOM     31  C   UNL     1       7.277   4.972  14.700  0.00  0.00    +0.000 A 
ATOM     32  C   UNL     1       7.067   5.391  16.016  0.00  0.00    +0.000 A 
BRANCH  30  33
ATOM     33  C   UNL     1       6.569   3.719  12.657  0.00  0.00    +0.000 C 
ATOM     34  N   UNL     1       6.045   2.652  12.145  0.00  0.00    +0.000 NA
ATOM     35  N   UNL     1       7.350   4.468  11.829  0.00  0.00    +0.000 N 
ATOM     36  H   UNL     1       5.428   2.180  12.811  0.00  0.00    +0.000 HD
ATOM     37  H   UNL     1       8.153   4.920  12.245  0.00  0.00    +0.000 HD
ATOM     38  H   UNL     1       7.577   3.956  10.981  0.00  0.00    +0.000 HD
ENDBRANCH  30  33
ENDBRANCH  26  27
ENDBRANCH  24  26
ENDBRANCH  21  22
ENDBRANCH   5  21
TORSDOF 8
ENDMDL
