MODEL 1
REMARK VINA RESULT:      -7.7      0.000      0.000
REMARK  Name = 
REMARK  10 active torsions:
REMARK  status: ('A' for Active; 'I' for Inactive)
REMARK    1  A    between atoms: C_1  and  C_2
REMARK    2  A    between atoms: C_2  and  O_4
REMARK    3  A    between atoms: O_4  and  C_5
REMARK    4  A    between atoms: C_10  and  C_11
REMARK    5  A    between atoms: C_11  and  O_13
REMARK    6  A    between atoms: O_13  and  C_14
REMARK    7  A    between atoms: C_18  and  O_19
REMARK    8  A    between atoms: O_19  and  C_20
REMARK    9  A    between atoms: C_20  and  C_22
REMARK   10  A    between atoms: C_26  and  C_27
REMARK                            x       y       z     vdW  Elec       q    Type
REMARK                         _______ _______ _______ _____ _____    ______ ____
ROOT
ATOM      1  C   UNL     1       0.617   8.728  20.708  0.00  0.00    +0.000 C 
ATOM      2  C   UNL     1       0.391   9.442  22.029  0.00  0.00    +0.000 C 
ATOM      3  O   UNL     1       0.973  10.746  21.899  0.00  0.00    +0.000 OA
ATOM      4  C   UNL     1       0.849  11.129  20.525  0.00  0.00    +0.000 C 
ATOM      5  C   UNL     1      -0.396  11.981  20.274  0.00  0.00    +0.000 C 
ATOM      6  C   UNL     1      -0.893  11.419  18.954  0.00  0.00    +0.000 C 
ATOM      7  O   UNL     1      -0.607  10.008  19.003  0.00  0.00    +0.000 OA
ATOM      8  C   UNL     1       0.654   9.861  19.689  0.00  0.00    +0.000 C 
ENDROOT
BRANCH   1   9
ATOM      9  O   UNL     1       1.793   7.880  20.815  0.00  0.00    +0.000 OA
BRANCH   9  10
ATOM     10  C   UNL     1       2.203   7.133  19.761  0.00  0.00    +0.000 C 
ATOM     11  O   UNL     1       2.429   7.558  18.631  0.00  0.00    +0.000 OA
BRANCH  10  17
ATOM     12  C   UNL     1       3.424   4.944  19.913  0.00  0.00    +0.000 A 
ATOM     13  C   UNL     1       3.389   3.545  19.929  0.00  0.00    +0.000 A 
ATOM     14  C   UNL     1       2.187   2.880  20.174  0.00  0.00    +0.000 A 
ATOM     15  C   UNL     1       1.035   3.610  20.463  0.00  0.00    +0.000 A 
ATOM     16  C   UNL     1       1.067   5.006  20.437  0.00  0.00    +0.000 A 
ATOM     17  C   UNL     1       2.247   5.686  20.098  0.00  0.00    +0.000 A 
BRANCH  12  18
ATOM     18  O   UNL     1       4.674   5.494  19.551  0.00  0.00    +0.000 OA
BRANCH  18  20
ATOM     19  C   UNL     1       4.732   5.367  17.198  0.00  0.00    +0.000 C 
ATOM     20  C   UNL     1       5.408   4.966  18.471  0.00  0.00    +0.000 C 
ATOM     21  O   UNL     1       6.417   4.281  18.570  0.00  0.00    +0.000 OA
ENDBRANCH  18  20
ENDBRANCH  12  18
ENDBRANCH  10  17
ENDBRANCH   9  10
ENDBRANCH   1   9
BRANCH   5  22
ATOM     22  O   UNL     1      -1.453  11.763  21.238  0.00  0.00    +0.000 OA
BRANCH  22  23
ATOM     23  C   UNL     1      -1.960  12.874  21.843  0.00  0.00    +0.000 C 
ATOM     24  O   UNL     1      -1.451  13.987  21.784  0.00  0.00    +0.000 OA
BRANCH  23  25
ATOM     25  C   UNL     1      -3.214  12.630  22.519  0.00  0.00    +0.000 A 
ATOM     26  C   UNL     1      -3.385  12.290  23.880  0.00  0.00    +0.000 A 
ATOM     27  N   UNL     1      -4.669  12.176  24.224  0.00  0.00    +0.000 NA
ATOM     28  O   UNL     1      -5.378  12.430  23.065  0.00  0.00    +0.000 OA
ATOM     29  C   UNL     1      -4.512  12.688  22.044  0.00  0.00    +0.000 A 
ATOM     30  C   UNL     1      -5.148  12.972  20.743  0.00  0.00    +0.000 C 
ENDBRANCH  23  25
ENDBRANCH  22  23
ENDBRANCH   5  22
TORSDOF 8
ENDMDL
MODEL 2
REMARK VINA RESULT:      -7.7      1.543      1.708
REMARK  Name = 
REMARK  10 active torsions:
REMARK  status: ('A' for Active; 'I' for Inactive)
REMARK    1  A    between atoms: C_1  and  C_2
REMARK    2  A    between atoms: C_2  and  O_4
REMARK    3  A    between atoms: O_4  and  C_5
REMARK    4  A    between atoms: C_10  and  C_11
REMARK    5  A    between atoms: C_11  and  O_13
REMARK    6  A    between atoms: O_13  and  C_14
REMARK    7  A    between atoms: C_18  and  O_19
REMARK    8  A    between atoms: O_19  and  C_20
REMARK    9  A    between atoms: C_20  and  C_22
REMARK   10  A    between atoms: C_26  and  C_27
REMARK                            x       y       z     vdW  Elec       q    Type
REMARK                         _______ _______ _______ _____ _____    ______ ____
ROOT
ATOM      1  C   UNL     1       0.906   8.768  19.984  0.00  0.00    +0.000 C 
ATOM      2  C   UNL     1       0.889   9.129  21.458  0.00  0.00    +0.000 C 
ATOM      3  O   UNL     1       1.355  10.482  21.558  0.00  0.00    +0.000 OA
ATOM      4  C   UNL     1       0.950  11.157  20.362  0.00  0.00    +0.000 C 
ATOM      5  C   UNL     1      -0.370  11.908  20.541  0.00  0.00    +0.000 C 
ATOM      6  C   UNL     1      -1.071  11.617  19.227  0.00  0.00    +0.000 C 
ATOM      7  O   UNL     1      -0.694  10.272  18.877  0.00  0.00    +0.000 OA
ATOM      8  C   UNL     1       0.681  10.104  19.284  0.00  0.00    +0.000 C 
ENDROOT
BRANCH   1   9
ATOM      9  O   UNL     1       2.132   8.048  19.680  0.00  0.00    +0.000 OA
BRANCH   9  10
ATOM     10  C   UNL     1       2.442   7.723  18.400  0.00  0.00    +0.000 C 
ATOM     11  O   UNL     1       2.488   8.508  17.457  0.00  0.00    +0.000 OA
BRANCH  10  17
ATOM     12  C   UNL     1       3.882   5.716  17.945  0.00  0.00    +0.000 A 
ATOM     13  C   UNL     1       4.001   4.400  17.486  0.00  0.00    +0.000 A 
ATOM     14  C   UNL     1       2.865   3.601  17.355  0.00  0.00    +0.000 A 
ATOM     15  C   UNL     1       1.619   4.095  17.740  0.00  0.00    +0.000 A 
ATOM     16  C   UNL     1       1.498   5.413  18.188  0.00  0.00    +0.000 A 
ATOM     17  C   UNL     1       2.619   6.257  18.234  0.00  0.00    +0.000 A 
BRANCH  12  18
ATOM     18  O   UNL     1       5.088   6.452  17.934  0.00  0.00    +0.000 OA
BRANCH  18  20
ATOM     19  C   UNL     1       7.279   6.462  17.067  0.00  0.00    +0.000 C 
ATOM     20  C   UNL     1       5.826   6.606  16.745  0.00  0.00    +0.000 C 
ATOM     21  O   UNL     1       5.349   6.838  15.641  0.00  0.00    +0.000 OA
ENDBRANCH  18  20
ENDBRANCH  12  18
ENDBRANCH  10  17
ENDBRANCH   9  10
ENDBRANCH   1   9
BRANCH   5  22
ATOM     22  O   UNL     1      -1.211  11.362  21.585  0.00  0.00    +0.000 OA
BRANCH  22  23
ATOM     23  C   UNL     1      -1.504  12.194  22.625  0.00  0.00    +0.000 C 
ATOM     24  O   UNL     1      -0.670  12.842  23.247  0.00  0.00    +0.000 OA
BRANCH  23  25
ATOM     25  C   UNL     1      -2.921  12.295  22.890  0.00  0.00    +0.000 A 
ATOM     26  C   UNL     1      -3.559  12.118  24.139  0.00  0.00    +0.000 A 
ATOM     27  N   UNL     1      -4.875  12.323  24.077  0.00  0.00    +0.000 NA
ATOM     28  O   UNL     1      -5.132  12.630  22.754  0.00  0.00    +0.000 OA
ATOM     29  C   UNL     1      -3.969  12.600  22.041  0.00  0.00    +0.000 A 
ATOM     30  C   UNL     1      -4.109  12.907  20.605  0.00  0.00    +0.000 C 
ENDBRANCH  23  25
ENDBRANCH  22  23
ENDBRANCH   5  22
TORSDOF 8
ENDMDL
MODEL 3
REMARK VINA RESULT:      -7.5      0.904      1.317
REMARK  Name = 
REMARK  10 active torsions:
REMARK  status: ('A' for Active; 'I' for Inactive)
REMARK    1  A    between atoms: C_1  and  C_2
REMARK    2  A    between atoms: C_2  and  O_4
REMARK    3  A    between atoms: O_4  and  C_5
REMARK    4  A    between atoms: C_10  and  C_11
REMARK    5  A    between atoms: C_11  and  O_13
REMARK    6  A    between atoms: O_13  and  C_14
REMARK    7  A    between atoms: C_18  and  O_19
REMARK    8  A    between atoms: O_19  and  C_20
REMARK    9  A    between atoms: C_20  and  C_22
REMARK   10  A    between atoms: C_26  and  C_27
REMARK                            x       y       z     vdW  Elec       q    Type
REMARK                         _______ _______ _______ _____ _____    ______ ____
ROOT
ATOM      1  C   UNL     1       0.727   8.792  20.649  0.00  0.00    +0.000 C 
ATOM      2  C   UNL     1       0.411   9.266  22.057  0.00  0.00    +0.000 C 
ATOM      3  O   UNL     1       0.977  10.577  22.188  0.00  0.00    +0.000 OA
ATOM      4  C   UNL     1       0.926  11.190  20.896  0.00  0.00    +0.000 C 
ATOM      5  C   UNL     1      -0.317  12.064  20.719  0.00  0.00    +0.000 C 
ATOM      6  C   UNL     1      -0.725  11.734  19.295  0.00  0.00    +0.000 C 
ATOM      7  O   UNL     1      -0.417  10.339  19.118  0.00  0.00    +0.000 OA
ATOM      8  C   UNL     1       0.804  10.084  19.844  0.00  0.00    +0.000 C 
ENDROOT
BRANCH   1   9
ATOM      9  O   UNL     1       1.910   7.948  20.681  0.00  0.00    +0.000 OA
BRANCH   9  10
ATOM     10  C   UNL     1       2.218   7.153  19.626  0.00  0.00    +0.000 C 
ATOM     11  O   UNL     1       2.321   7.524  18.460  0.00  0.00    +0.000 OA
BRANCH  10  17
ATOM     12  C   UNL     1       3.474   4.982  19.755  0.00  0.00    +0.000 A 
ATOM     13  C   UNL     1       3.457   3.585  19.841  0.00  0.00    +0.000 A 
ATOM     14  C   UNL     1       2.295   2.925  20.242  0.00  0.00    +0.000 A 
ATOM     15  C   UNL     1       1.170   3.660  20.614  0.00  0.00    +0.000 A 
ATOM     16  C   UNL     1       1.184   5.053  20.518  0.00  0.00    +0.000 A 
ATOM     17  C   UNL     1       2.314   5.725  20.026  0.00  0.00    +0.000 A 
BRANCH  12  18
ATOM     18  O   UNL     1       4.673   5.522  19.239  0.00  0.00    +0.000 OA
BRANCH  18  20
ATOM     19  C   UNL     1       6.482   4.743  17.945  0.00  0.00    +0.000 C 
ATOM     20  C   UNL     1       5.075   5.250  17.917  0.00  0.00    +0.000 C 
ATOM     21  O   UNL     1       4.387   5.420  16.919  0.00  0.00    +0.000 OA
ENDBRANCH  18  20
ENDBRANCH  12  18
ENDBRANCH  10  17
ENDBRANCH   9  10
ENDBRANCH   1   9
BRANCH   5  22
ATOM     22  O   UNL     1      -1.424  11.675  21.565  0.00  0.00    +0.000 OA
BRANCH  22  23
ATOM     23  C   UNL     1      -2.012  12.669  22.290  0.00  0.00    +0.000 C 
ATOM     24  O   UNL     1      -1.400  13.572  22.847  0.00  0.00    +0.000 OA
BRANCH  23  25
ATOM     25  C   UNL     1      -3.455  12.596  22.288  0.00  0.00    +0.000 A 
ATOM     26  C   UNL     1      -4.295  12.551  21.152  0.00  0.00    +0.000 A 
ATOM     27  N   UNL     1      -5.585  12.437  21.471  0.00  0.00    +0.000 NA
ATOM     28  O   UNL     1      -5.616  12.421  22.853  0.00  0.00    +0.000 OA
ATOM     29  C   UNL     1      -4.348  12.530  23.342  0.00  0.00    +0.000 A 
ATOM     30  C   UNL     1      -4.244  12.530  24.814  0.00  0.00    +0.000 C 
ENDBRANCH  23  25
ENDBRANCH  22  23
ENDBRANCH   5  22
TORSDOF 8
ENDMDL
MODEL 4
REMARK VINA RESULT:      -7.4      3.945      9.771
REMARK  Name = 
REMARK  10 active torsions:
REMARK  status: ('A' for Active; 'I' for Inactive)
REMARK    1  A    between atoms: C_1  and  C_2
REMARK    2  A    between atoms: C_2  and  O_4
REMARK    3  A    between atoms: O_4  and  C_5
REMARK    4  A    between atoms: C_10  and  C_11
REMARK    5  A    between atoms: C_11  and  O_13
REMARK    6  A    between atoms: O_13  and  C_14
REMARK    7  A    between atoms: C_18  and  O_19
REMARK    8  A    between atoms: O_19  and  C_20
REMARK    9  A    between atoms: C_20  and  C_22
REMARK   10  A    between atoms: C_26  and  C_27
REMARK                            x       y       z     vdW  Elec       q    Type
REMARK                         _______ _______ _______ _____ _____    ______ ____
ROOT
ATOM      1  C   UNL     1       2.146   7.027  18.271  0.00  0.00    +0.000 C 
ATOM      2  C   UNL     1       3.659   6.960  18.373  0.00  0.00    +0.000 C 
ATOM      3  O   UNL     1       3.962   6.012  19.405  0.00  0.00    +0.000 OA
ATOM      4  C   UNL     1       2.920   5.030  19.396  0.00  0.00    +0.000 C 
ATOM      5  C   UNL     1       3.291   3.801  18.565  0.00  0.00    +0.000 C 
ATOM      6  C   UNL     1       1.984   3.506  17.852  0.00  0.00    +0.000 C 
ATOM      7  O   UNL     1       1.393   4.790  17.579  0.00  0.00    +0.000 OA
ATOM      8  C   UNL     1       1.695   5.638  18.708  0.00  0.00    +0.000 C 
ENDROOT
BRANCH   1   9
ATOM      9  O   UNL     1       1.662   8.163  19.036  0.00  0.00    +0.000 OA
BRANCH   9  10
ATOM     10  C   UNL     1       1.444   9.358  18.434  0.00  0.00    +0.000 C 
ATOM     11  O   UNL     1       2.057   9.789  17.461  0.00  0.00    +0.000 OA
BRANCH  10  17
ATOM     12  C   UNL     1      -0.805  10.470  18.566  0.00  0.00    +0.000 A 
ATOM     13  C   UNL     1      -1.623  11.468  19.106  0.00  0.00    +0.000 A 
ATOM     14  C   UNL     1      -1.238  12.134  20.270  0.00  0.00    +0.000 A 
ATOM     15  C   UNL     1      -0.065  11.762  20.928  0.00  0.00    +0.000 A 
ATOM     16  C   UNL     1       0.757  10.773  20.384  0.00  0.00    +0.000 A 
ATOM     17  C   UNL     1       0.428  10.162  19.163  0.00  0.00    +0.000 A 
BRANCH  12  18
ATOM     18  O   UNL     1      -1.254   9.947  17.334  0.00  0.00    +0.000 OA
BRANCH  18  20
ATOM     19  C   UNL     1      -2.815  10.803  15.790  0.00  0.00    +0.000 C 
ATOM     20  C   UNL     1      -2.623   9.953  17.005  0.00  0.00    +0.000 C 
ATOM     21  O   UNL     1      -3.503   9.371  17.627  0.00  0.00    +0.000 OA
ENDBRANCH  18  20
ENDBRANCH  12  18
ENDBRANCH  10  17
ENDBRANCH   9  10
ENDBRANCH   1   9
BRANCH   5  22
ATOM     22  O   UNL     1       4.270   4.073  17.533  0.00  0.00    +0.000 OA
BRANCH  22  23
ATOM     23  C   UNL     1       5.565   4.184  17.942  0.00  0.00    +0.000 C 
ATOM     24  O   UNL     1       6.028   3.629  18.932  0.00  0.00    +0.000 OA
BRANCH  23  25
ATOM     25  C   UNL     1       6.377   4.978  17.048  0.00  0.00    +0.000 A 
ATOM     26  C   UNL     1       7.137   6.120  17.390  0.00  0.00    +0.000 A 
ATOM     27  N   UNL     1       7.821   6.610  16.355  0.00  0.00    +0.000 NA
ATOM     28  O   UNL     1       7.503   5.790  15.289  0.00  0.00    +0.000 OA
ATOM     29  C   UNL     1       6.631   4.824  15.697  0.00  0.00    +0.000 A 
ATOM     30  C   UNL     1       6.206   3.881  14.644  0.00  0.00    +0.000 C 
ENDBRANCH  23  25
ENDBRANCH  22  23
ENDBRANCH   5  22
TORSDOF 8
ENDMDL
MODEL 5
REMARK VINA RESULT:      -7.4      3.770      9.687
REMARK  Name = 
REMARK  10 active torsions:
REMARK  status: ('A' for Active; 'I' for Inactive)
REMARK    1  A    between atoms: C_1  and  C_2
REMARK    2  A    between atoms: C_2  and  O_4
REMARK    3  A    between atoms: O_4  and  C_5
REMARK    4  A    between atoms: C_10  and  C_11
REMARK    5  A    between atoms: C_11  and  O_13
REMARK    6  A    between atoms: O_13  and  C_14
REMARK    7  A    between atoms: C_18  and  O_19
REMARK    8  A    between atoms: O_19  and  C_20
REMARK    9  A    between atoms: C_20  and  C_22
REMARK   10  A    between atoms: C_26  and  C_27
REMARK                            x       y       z     vdW  Elec       q    Type
REMARK                         _______ _______ _______ _____ _____    ______ ____
ROOT
ATOM      1  C   UNL     1       2.126   6.650  19.097  0.00  0.00    +0.000 C 
ATOM      2  C   UNL     1       3.643   6.696  19.063  0.00  0.00    +0.000 C 
ATOM      3  O   UNL     1       4.108   5.582  19.836  0.00  0.00    +0.000 OA
ATOM      4  C   UNL     1       3.140   4.537  19.695  0.00  0.00    +0.000 C 
ATOM      5  C   UNL     1       3.513   3.549  18.589  0.00  0.00    +0.000 C 
ATOM      6  C   UNL     1       2.167   3.297  17.934  0.00  0.00    +0.000 C 
ATOM      7  O   UNL     1       1.466   4.553  17.995  0.00  0.00    +0.000 OA
ATOM      8  C   UNL     1       1.815   5.166  19.255  0.00  0.00    +0.000 C 
ENDROOT
BRANCH   1   9
ATOM      9  O   UNL     1       1.640   7.552  20.128  0.00  0.00    +0.000 OA
BRANCH   9  10
ATOM     10  C   UNL     1       1.260   8.815  19.816  0.00  0.00    +0.000 C 
ATOM     11  O   UNL     1       1.664   9.464  18.855  0.00  0.00    +0.000 OA
BRANCH  10  17
ATOM     12  C   UNL     1      -0.384  10.550  20.589  0.00  0.00    +0.000 A 
ATOM     13  C   UNL     1      -0.979  11.260  21.637  0.00  0.00    +0.000 A 
ATOM     14  C   UNL     1      -0.874  10.792  22.947  0.00  0.00    +0.000 A 
ATOM     15  C   UNL     1      -0.226   9.584  23.204  0.00  0.00    +0.000 A 
ATOM     16  C   UNL     1       0.377   8.880  22.159  0.00  0.00    +0.000 A 
ATOM     17  C   UNL     1       0.360   9.388  20.851  0.00  0.00    +0.000 A 
BRANCH  12  18
ATOM     18  O   UNL     1      -0.473  11.180  19.329  0.00  0.00    +0.000 OA
BRANCH  18  20
ATOM     19  C   UNL     1      -1.608  10.089  17.575  0.00  0.00    +0.000 C 
ATOM     20  C   UNL     1      -1.680  11.173  18.603  0.00  0.00    +0.000 C 
ATOM     21  O   UNL     1      -2.617  11.941  18.781  0.00  0.00    +0.000 OA
ENDBRANCH  18  20
ENDBRANCH  12  18
ENDBRANCH  10  17
ENDBRANCH   9  10
ENDBRANCH   1   9
BRANCH   5  22
ATOM     22  O   UNL     1       4.367   4.117  17.568  0.00  0.00    +0.000 OA
BRANCH  22  23
ATOM     23  C   UNL     1       5.691   4.220  17.874  0.00  0.00    +0.000 C 
ATOM     24  O   UNL     1       6.193   3.818  18.917  0.00  0.00    +0.000 OA
BRANCH  23  25
ATOM     25  C   UNL     1       6.477   4.800  16.809  0.00  0.00    +0.000 A 
ATOM     26  C   UNL     1       6.659   4.271  15.511  0.00  0.00    +0.000 A 
ATOM     27  N   UNL     1       7.400   5.061  14.733  0.00  0.00    +0.000 NA
ATOM     28  O   UNL     1       7.740   6.138  15.530  0.00  0.00    +0.000 OA
ATOM     29  C   UNL     1       7.201   5.978  16.773  0.00  0.00    +0.000 A 
ATOM     30  C   UNL     1       7.497   7.065  17.726  0.00  0.00    +0.000 C 
ENDBRANCH  23  25
ENDBRANCH  22  23
ENDBRANCH   5  22
TORSDOF 8
ENDMDL
MODEL 6
REMARK VINA RESULT:      -7.4      3.821      9.766
REMARK  Name = 
REMARK  10 active torsions:
REMARK  status: ('A' for Active; 'I' for Inactive)
REMARK    1  A    between atoms: C_1  and  C_2
REMARK    2  A    between atoms: C_2  and  O_4
REMARK    3  A    between atoms: O_4  and  C_5
REMARK    4  A    between atoms: C_10  and  C_11
REMARK    5  A    between atoms: C_11  and  O_13
REMARK    6  A    between atoms: O_13  and  C_14
REMARK    7  A    between atoms: C_18  and  O_19
REMARK    8  A    between atoms: O_19  and  C_20
REMARK    9  A    between atoms: C_20  and  C_22
REMARK   10  A    between atoms: C_26  and  C_27
REMARK                            x       y       z     vdW  Elec       q    Type
REMARK                         _______ _______ _______ _____ _____    ______ ____
ROOT
ATOM      1  C   UNL     1       2.080   7.177  18.991  0.00  0.00    +0.000 C 
ATOM      2  C   UNL     1       3.192   7.230  17.958  0.00  0.00    +0.000 C 
ATOM      3  O   UNL     1       4.359   6.673  18.578  0.00  0.00    +0.000 OA
ATOM      4  C   UNL     1       3.910   5.682  19.509  0.00  0.00    +0.000 C 
ATOM      5  C   UNL     1       3.919   4.277  18.905  0.00  0.00    +0.000 C 
ATOM      6  C   UNL     1       2.625   3.700  19.450  0.00  0.00    +0.000 C 
ATOM      7  O   UNL     1       1.695   4.798  19.481  0.00  0.00    +0.000 OA
ATOM      8  C   UNL     1       2.447   5.973  19.851  0.00  0.00    +0.000 C 
ENDROOT
BRANCH   1   9
ATOM      9  O   UNL     1       1.975   8.468  19.650  0.00  0.00    +0.000 OA
BRANCH   9  10
ATOM     10  C   UNL     1       0.980   9.329  19.325  0.00  0.00    +0.000 C 
ATOM     11  O   UNL     1       0.795   9.817  18.213  0.00  0.00    +0.000 OA
BRANCH  10  17
ATOM     12  C   UNL     1      -0.272  11.037  20.676  0.00  0.00    +0.000 A 
ATOM     13  C   UNL     1      -0.746  11.477  21.917  0.00  0.00    +0.000 A 
ATOM     14  C   UNL     1      -0.816  10.591  22.992  0.00  0.00    +0.000 A 
ATOM     15  C   UNL     1      -0.469   9.252  22.813  0.00  0.00    +0.000 A 
ATOM     16  C   UNL     1       0.014   8.815  21.578  0.00  0.00    +0.000 A 
ATOM     17  C   UNL     1       0.178   9.717  20.515  0.00  0.00    +0.000 A 
BRANCH  12  18
ATOM     18  O   UNL     1      -0.153  12.052  19.701  0.00  0.00    +0.000 OA
BRANCH  18  20
ATOM     19  C   UNL     1       0.274  14.352  19.414  0.00  0.00    +0.000 C 
ATOM     20  C   UNL     1       0.857  13.029  19.798  0.00  0.00    +0.000 C 
ATOM     21  O   UNL     1       2.017  12.816  20.125  0.00  0.00    +0.000 OA
ENDBRANCH  18  20
ENDBRANCH  12  18
ENDBRANCH  10  17
ENDBRANCH   9  10
ENDBRANCH   1   9
BRANCH   5  22
ATOM     22  O   UNL     1       3.800   4.264  17.463  0.00  0.00    +0.000 OA
BRANCH  22  23
ATOM     23  C   UNL     1       4.670   3.459  16.790  0.00  0.00    +0.000 C 
ATOM     24  O   UNL     1       4.579   2.239  16.731  0.00  0.00    +0.000 OA
BRANCH  23  25
ATOM     25  C   UNL     1       5.695   4.195  16.084  0.00  0.00    +0.000 A 
ATOM     26  C   UNL     1       5.683   4.555  14.718  0.00  0.00    +0.000 A 
ATOM     27  N   UNL     1       6.750   5.277  14.368  0.00  0.00    +0.000 NA
ATOM     28  O   UNL     1       7.503   5.391  15.521  0.00  0.00    +0.000 OA
ATOM     29  C   UNL     1       6.882   4.735  16.542  0.00  0.00    +0.000 A 
ATOM     30  C   UNL     1       7.593   4.779  17.835  0.00  0.00    +0.000 C 
ENDBRANCH  23  25
ENDBRANCH  22  23
ENDBRANCH   5  22
TORSDOF 8
ENDMDL
MODEL 7
REMARK VINA RESULT:      -7.3      1.200      2.290
REMARK  Name = 
REMARK  10 active torsions:
REMARK  status: ('A' for Active; 'I' for Inactive)
REMARK    1  A    between atoms: C_1  and  C_2
REMARK    2  A    between atoms: C_2  and  O_4
REMARK    3  A    between atoms: O_4  and  C_5
REMARK    4  A    between atoms: C_10  and  C_11
REMARK    5  A    between atoms: C_11  and  O_13
REMARK    6  A    between atoms: O_13  and  C_14
REMARK    7  A    between atoms: C_18  and  O_19
REMARK    8  A    between atoms: O_19  and  C_20
REMARK    9  A    between atoms: C_20  and  C_22
REMARK   10  A    between atoms: C_26  and  C_27
REMARK                            x       y       z     vdW  Elec       q    Type
REMARK                         _______ _______ _______ _____ _____    ______ ____
ROOT
ATOM      1  C   UNL     1       0.782   8.821  20.461  0.00  0.00    +0.000 C 
ATOM      2  C   UNL     1       0.835   9.341  21.887  0.00  0.00    +0.000 C 
ATOM      3  O   UNL     1       1.271  10.705  21.813  0.00  0.00    +0.000 OA
ATOM      4  C   UNL     1       0.786  11.237  20.576  0.00  0.00    +0.000 C 
ATOM      5  C   UNL     1      -0.542  11.977  20.747  0.00  0.00    +0.000 C 
ATOM      6  C   UNL     1      -1.305  11.530  19.513  0.00  0.00    +0.000 C 
ATOM      7  O   UNL     1      -0.913  10.163  19.290  0.00  0.00    +0.000 OA
ATOM      8  C   UNL     1       0.486  10.067  19.635  0.00  0.00    +0.000 C 
ENDROOT
BRANCH   1   9
ATOM      9  O   UNL     1       2.007   8.096  20.168  0.00  0.00    +0.000 OA
BRANCH   9  10
ATOM     10  C   UNL     1       2.000   6.744  20.062  0.00  0.00    +0.000 C 
ATOM     11  O   UNL     1       1.537   5.966  20.891  0.00  0.00    +0.000 OA
BRANCH  10  17
ATOM     12  C   UNL     1       2.930   4.917  18.610  0.00  0.00    +0.000 A 
ATOM     13  C   UNL     1       3.867   4.494  17.662  0.00  0.00    +0.000 A 
ATOM     14  C   UNL     1       4.580   5.433  16.916  0.00  0.00    +0.000 A 
ATOM     15  C   UNL     1       4.313   6.793  17.075  0.00  0.00    +0.000 A 
ATOM     16  C   UNL     1       3.385   7.216  18.029  0.00  0.00    +0.000 A 
ATOM     17  C   UNL     1       2.731   6.285  18.851  0.00  0.00    +0.000 A 
BRANCH  12  18
ATOM     18  O   UNL     1       2.353   3.875  19.370  0.00  0.00    +0.000 OA
BRANCH  18  20
ATOM     19  C   UNL     1       2.367   2.781  21.457  0.00  0.00    +0.000 C 
ATOM     20  C   UNL     1       3.147   3.076  20.216  0.00  0.00    +0.000 C 
ATOM     21  O   UNL     1       4.288   2.706  19.973  0.00  0.00    +0.000 OA
ENDBRANCH  18  20
ENDBRANCH  12  18
ENDBRANCH  10  17
ENDBRANCH   9  10
ENDBRANCH   1   9
BRANCH   5  22
ATOM     22  O   UNL     1      -1.311  11.533  21.889  0.00  0.00    +0.000 OA
BRANCH  22  23
ATOM     23  C   UNL     1      -1.727  12.502  22.753  0.00  0.00    +0.000 C 
ATOM     24  O   UNL     1      -0.995  13.354  23.241  0.00  0.00    +0.000 OA
BRANCH  23  25
ATOM     25  C   UNL     1      -3.151  12.471  22.998  0.00  0.00    +0.000 A 
ATOM     26  C   UNL     1      -3.789  12.237  24.237  0.00  0.00    +0.000 A 
ATOM     27  N   UNL     1      -5.118  12.320  24.155  0.00  0.00    +0.000 NA
ATOM     28  O   UNL     1      -5.382  12.600  22.828  0.00  0.00    +0.000 OA
ATOM     29  C   UNL     1      -4.210  12.678  22.133  0.00  0.00    +0.000 A 
ATOM     30  C   UNL     1      -4.357  12.969  20.693  0.00  0.00    +0.000 C 
ENDBRANCH  23  25
ENDBRANCH  22  23
ENDBRANCH   5  22
TORSDOF 8
ENDMDL
MODEL 8
REMARK VINA RESULT:      -7.3      1.418      2.441
REMARK  Name = 
REMARK  10 active torsions:
REMARK  status: ('A' for Active; 'I' for Inactive)
REMARK    1  A    between atoms: C_1  and  C_2
REMARK    2  A    between atoms: C_2  and  O_4
REMARK    3  A    between atoms: O_4  and  C_5
REMARK    4  A    between atoms: C_10  and  C_11
REMARK    5  A    between atoms: C_11  and  O_13
REMARK    6  A    between atoms: O_13  and  C_14
REMARK    7  A    between atoms: C_18  and  O_19
REMARK    8  A    between atoms: O_19  and  C_20
REMARK    9  A    between atoms: C_20  and  C_22
REMARK   10  A    between atoms: C_26  and  C_27
REMARK                            x       y       z     vdW  Elec       q    Type
REMARK                         _______ _______ _______ _____ _____    ______ ____
ROOT
ATOM      1  C   UNL     1       0.828   8.440  20.775  0.00  0.00    +0.000 C 
ATOM      2  C   UNL     1       0.729   8.965  22.197  0.00  0.00    +0.000 C 
ATOM      3  O   UNL     1       1.279  10.289  22.188  0.00  0.00    +0.000 OA
ATOM      4  C   UNL     1       1.010  10.849  20.898  0.00  0.00    +0.000 C 
ATOM      5  C   UNL     1      -0.265  11.695  20.890  0.00  0.00    +0.000 C 
ATOM      6  C   UNL     1      -0.887  11.301  19.563  0.00  0.00    +0.000 C 
ATOM      7  O   UNL     1      -0.580   9.905  19.391  0.00  0.00    +0.000 OA
ATOM      8  C   UNL     1       0.747   9.700  19.921  0.00  0.00    +0.000 C 
ENDROOT
BRANCH   1   9
ATOM      9  O   UNL     1       2.019   7.617  20.648  0.00  0.00    +0.000 OA
BRANCH   9  10
ATOM     10  C   UNL     1       1.934   6.348  20.178  0.00  0.00    +0.000 C 
ATOM     11  O   UNL     1       1.379   5.413  20.748  0.00  0.00    +0.000 OA
BRANCH  10  17
ATOM     12  C   UNL     1       3.213   4.925  18.551  0.00  0.00    +0.000 A 
ATOM     13  C   UNL     1       4.181   4.821  17.546  0.00  0.00    +0.000 A 
ATOM     14  C   UNL     1       4.607   5.962  16.867  0.00  0.00    +0.000 A 
ATOM     15  C   UNL     1       4.025   7.197  17.148  0.00  0.00    +0.000 A 
ATOM     16  C   UNL     1       3.067   7.303  18.159  0.00  0.00    +0.000 A 
ATOM     17  C   UNL     1       2.698   6.179  18.914  0.00  0.00    +0.000 A 
BRANCH  12  18
ATOM     18  O   UNL     1       2.943   3.717  19.232  0.00  0.00    +0.000 OA
BRANCH  18  20
ATOM     19  C   UNL     1       3.446   1.555  18.441  0.00  0.00    +0.000 C 
ATOM     20  C   UNL     1       3.908   2.694  19.293  0.00  0.00    +0.000 C 
ATOM     21  O   UNL     1       4.940   2.733  19.951  0.00  0.00    +0.000 OA
ENDBRANCH  18  20
ENDBRANCH  12  18
ENDBRANCH  10  17
ENDBRANCH   9  10
ENDBRANCH   1   9
BRANCH   5  22
ATOM     22  O   UNL     1      -1.214  11.322  21.917  0.00  0.00    +0.000 OA
BRANCH  22  23
ATOM     23  C   UNL     1      -1.728  12.339  22.666  0.00  0.00    +0.000 C 
ATOM     24  O   UNL     1      -1.062  13.063  23.396  0.00  0.00    +0.000 OA
BRANCH  23  25
ATOM     25  C   UNL     1      -3.146  12.530  22.467  0.00  0.00    +0.000 A 
ATOM     26  C   UNL     1      -3.804  12.734  21.233  0.00  0.00    +0.000 A 
ATOM     27  N   UNL     1      -5.128  12.830  21.366  0.00  0.00    +0.000 NA
ATOM     28  O   UNL     1      -5.365  12.705  22.722  0.00  0.00    +0.000 OA
ATOM     29  C   UNL     1      -4.183  12.540  23.382  0.00  0.00    +0.000 A 
ATOM     30  C   UNL     1      -4.300  12.398  24.847  0.00  0.00    +0.000 C 
ENDBRANCH  23  25
ENDBRANCH  22  23
ENDBRANCH   5  22
TORSDOF 8
ENDMDL
MODEL 9
REMARK VINA RESULT:      -7.3      1.866      3.270
REMARK  Name = 
REMARK  10 active torsions:
REMARK  status: ('A' for Active; 'I' for Inactive)
REMARK    1  A    between atoms: C_1  and  C_2
REMARK    2  A    between atoms: C_2  and  O_4
REMARK    3  A    between atoms: O_4  and  C_5
REMARK    4  A    between atoms: C_10  and  C_11
REMARK    5  A    between atoms: C_11  and  O_13
REMARK    6  A    between atoms: O_13  and  C_14
REMARK    7  A    between atoms: C_18  and  O_19
REMARK    8  A    between atoms: O_19  and  C_20
REMARK    9  A    between atoms: C_20  and  C_22
REMARK   10  A    between atoms: C_26  and  C_27
REMARK                            x       y       z     vdW  Elec       q    Type
REMARK                         _______ _______ _______ _____ _____    ______ ____
ROOT
ATOM      1  C   UNL     1       1.797   8.492  19.985  0.00  0.00    +0.000 C 
ATOM      2  C   UNL     1       1.179   9.703  19.309  0.00  0.00    +0.000 C 
ATOM      3  O   UNL     1      -0.216   9.694  19.639  0.00  0.00    +0.000 OA
ATOM      4  C   UNL     1      -0.338   9.108  20.940  0.00  0.00    +0.000 C 
ATOM      5  C   UNL     1      -0.384  10.163  22.046  0.00  0.00    +0.000 C 
ATOM      6  C   UNL     1       0.484   9.525  23.116  0.00  0.00    +0.000 C 
ATOM      7  O   UNL     1       1.523   8.827  22.405  0.00  0.00    +0.000 OA
ATOM      8  C   UNL     1       0.920   8.280  21.213  0.00  0.00    +0.000 C 
ENDROOT
BRANCH   1   9
ATOM      9  O   UNL     1       1.888   7.402  19.028  0.00  0.00    +0.000 OA
BRANCH   9  10
ATOM     10  C   UNL     1       2.786   6.401  19.205  0.00  0.00    +0.000 C 
ATOM     11  O   UNL     1       3.047   5.860  20.276  0.00  0.00    +0.000 OA
BRANCH  10  17
ATOM     12  C   UNL     1       3.732   4.765  17.551  0.00  0.00    +0.000 A 
ATOM     13  C   UNL     1       4.672   4.465  16.559  0.00  0.00    +0.000 A 
ATOM     14  C   UNL     1       5.375   5.492  15.929  0.00  0.00    +0.000 A 
ATOM     15  C   UNL     1       5.096   6.821  16.245  0.00  0.00    +0.000 A 
ATOM     16  C   UNL     1       4.165   7.121  17.242  0.00  0.00    +0.000 A 
ATOM     17  C   UNL     1       3.521   6.094  17.950  0.00  0.00    +0.000 A 
BRANCH  12  18
ATOM     18  O   UNL     1       3.166   3.636  18.183  0.00  0.00    +0.000 OA
BRANCH  18  20
ATOM     19  C   UNL     1       3.546   1.342  18.567  0.00  0.00    +0.000 C 
ATOM     20  C   UNL     1       3.973   2.735  18.905  0.00  0.00    +0.000 C 
ATOM     21  O   UNL     1       4.859   3.051  19.688  0.00  0.00    +0.000 OA
ENDBRANCH  18  20
ENDBRANCH  12  18
ENDBRANCH  10  17
ENDBRANCH   9  10
ENDBRANCH   1   9
BRANCH   5  22
ATOM     22  O   UNL     1       0.258  11.410  21.686  0.00  0.00    +0.000 OA
BRANCH  22  23
ATOM     23  C   UNL     1      -0.403  12.552  22.029  0.00  0.00    +0.000 C 
ATOM     24  O   UNL     1       0.103  13.485  22.642  0.00  0.00    +0.000 OA
BRANCH  23  25
ATOM     25  C   UNL     1      -1.762  12.591  21.539  0.00  0.00    +0.000 A 
ATOM     26  C   UNL     1      -2.169  12.664  20.188  0.00  0.00    +0.000 A 
ATOM     27  N   UNL     1      -3.495  12.635  20.048  0.00  0.00    +0.000 NA
ATOM     28  O   UNL     1      -3.993  12.558  21.336  0.00  0.00    +0.000 OA
ATOM     29  C   UNL     1      -2.961  12.545  22.227  0.00  0.00    +0.000 A 
ATOM     30  C   UNL     1      -3.362  12.469  23.646  0.00  0.00    +0.000 C 
ENDBRANCH  23  25
ENDBRANCH  22  23
ENDBRANCH   5  22
TORSDOF 8
ENDMDL
