MODEL 1
REMARK VINA RESULT:      -7.1      0.000      0.000
REMARK  Name = 
REMARK  0 active torsions:
REMARK  status: ('A' for Active; 'I' for Inactive)
REMARK                            x       y       z     vdW  Elec       q    Type
REMARK                         _______ _______ _______ _____ _____    ______ ____
ROOT
ATOM      1  N   UNL     1       0.771   2.291  22.685  0.00  0.00    +0.000 N 
ATOM      2  C   UNL     1       1.672   2.634  21.700  0.00  0.00    +0.000 A 
ATOM      3  N   UNL     1       2.876   2.073  21.741  0.00  0.00    +0.000 NA
ATOM      4  C   UNL     1       3.737   2.438  20.779  0.00  0.00    +0.000 A 
ATOM      5  N   UNL     1       4.991   1.799  20.822  0.00  0.00    +0.000 N 
ATOM      6  C   UNL     1       3.442   3.337  19.757  0.00  0.00    +0.000 A 
ATOM      7  N   UNL     1       4.346   3.732  18.800  0.00  0.00    +0.000 NA
ATOM      8  C   UNL     1       3.948   4.662  17.914  0.00  0.00    +0.000 A 
ATOM      9  N   UNL     1       4.826   5.120  16.952  0.00  0.00    +0.000 N 
ATOM     10  C   UNL     1       5.913   4.263  16.486  0.00  0.00    +0.000 C 
ATOM     11  C   UNL     1       7.278   4.852  16.835  0.00  0.00    +0.000 C 
ATOM     12  C   UNL     1       7.387   6.315  16.412  0.00  0.00    +0.000 C 
ATOM     13  C   UNL     1       6.238   7.126  17.003  0.00  0.00    +0.000 C 
ATOM     14  C   UNL     1       4.883   6.539  16.608  0.00  0.00    +0.000 C 
ATOM     15  C   UNL     1       2.636   5.125  17.998  0.00  0.00    +0.000 A 
ATOM     16  N   UNL     1       1.731   4.725  18.928  0.00  0.00    +0.000 NA
ATOM     17  C   UNL     1       2.139   3.835  19.829  0.00  0.00    +0.000 A 
ATOM     18  N   UNL     1       1.263   3.485  20.769  0.00  0.00    +0.000 NA
ATOM     19  H   UNL     1       1.000   1.390  23.081  0.00  0.00    +0.000 HD
ATOM     20  H   UNL     1      -0.176   2.429  22.359  0.00  0.00    +0.000 HD
ATOM     21  H   UNL     1       5.084   1.313  21.708  0.00  0.00    +0.000 HD
ATOM     22  H   UNL     1       5.740   2.453  20.616  0.00  0.00    +0.000 HD
ENDROOT
TORSDOF 0
ENDMDL
MODEL 2
REMARK VINA RESULT:      -7.0      3.045      4.873
REMARK  Name = 
REMARK  0 active torsions:
REMARK  status: ('A' for Active; 'I' for Inactive)
REMARK                            x       y       z     vdW  Elec       q    Type
REMARK                         _______ _______ _______ _____ _____    ______ ____
ROOT
ATOM      1  N   UNL     1       3.793   1.006  18.077  0.00  0.00    +0.000 N 
ATOM      2  C   UNL     1       3.357   2.253  18.469  0.00  0.00    +0.000 A 
ATOM      3  N   UNL     1       2.413   2.312  19.404  0.00  0.00    +0.000 NA
ATOM      4  C   UNL     1       1.996   3.537  19.755  0.00  0.00    +0.000 A 
ATOM      5  N   UNL     1       1.026   3.572  20.774  0.00  0.00    +0.000 N 
ATOM      6  C   UNL     1       2.494   4.723  19.219  0.00  0.00    +0.000 A 
ATOM      7  N   UNL     1       2.031   5.971  19.560  0.00  0.00    +0.000 NA
ATOM      8  C   UNL     1       2.554   7.027  18.911  0.00  0.00    +0.000 A 
ATOM      9  N   UNL     1       2.102   8.301  19.189  0.00  0.00    +0.000 N 
ATOM     10  C   UNL     1       1.546   8.610  20.504  0.00  0.00    +0.000 C 
ATOM     11  C   UNL     1       0.071   8.995  20.411  0.00  0.00    +0.000 C 
ATOM     12  C   UNL     1      -0.168  10.062  19.345  0.00  0.00    +0.000 C 
ATOM     13  C   UNL     1       0.397   9.609  18.003  0.00  0.00    +0.000 C 
ATOM     14  C   UNL     1       1.883   9.267  18.114  0.00  0.00    +0.000 C 
ATOM     15  C   UNL     1       3.560   6.787  17.976  0.00  0.00    +0.000 A 
ATOM     16  N   UNL     1       4.037   5.558  17.649  0.00  0.00    +0.000 NA
ATOM     17  C   UNL     1       3.490   4.511  18.262  0.00  0.00    +0.000 A 
ATOM     18  N   UNL     1       3.926   3.306  17.901  0.00  0.00    +0.000 NA
ATOM     19  H   UNL     1       3.623   0.323  18.802  0.00  0.00    +0.000 HD
ATOM     20  H   UNL     1       4.730   1.064  17.702  0.00  0.00    +0.000 HD
ATOM     21  H   UNL     1       0.669   2.633  20.924  0.00  0.00    +0.000 HD
ATOM     22  H   UNL     1       0.314   4.270  20.576  0.00  0.00    +0.000 HD
ENDROOT
TORSDOF 0
ENDMDL
MODEL 3
REMARK VINA RESULT:      -7.0      1.348      1.538
REMARK  Name = 
REMARK  0 active torsions:
REMARK  status: ('A' for Active; 'I' for Inactive)
REMARK                            x       y       z     vdW  Elec       q    Type
REMARK                         _______ _______ _______ _____ _____    ______ ____
ROOT
ATOM      1  N   UNL     1       1.006   2.617  22.357  0.00  0.00    +0.000 N 
ATOM      2  C   UNL     1       1.696   2.933  21.207  0.00  0.00    +0.000 A 
ATOM      3  N   UNL     1       2.006   1.940  20.379  0.00  0.00    +0.000 NA
ATOM      4  C   UNL     1       2.692   2.275  19.276  0.00  0.00    +0.000 A 
ATOM      5  N   UNL     1       2.971   1.211  18.397  0.00  0.00    +0.000 N 
ATOM      6  C   UNL     1       3.075   3.574  18.950  0.00  0.00    +0.000 A 
ATOM      7  N   UNL     1       3.811   3.898  17.836  0.00  0.00    +0.000 NA
ATOM      8  C   UNL     1       4.173   5.184  17.682  0.00  0.00    +0.000 A 
ATOM      9  N   UNL     1       4.942   5.560  16.599  0.00  0.00    +0.000 N 
ATOM     10  C   UNL     1       4.882   4.792  15.357  0.00  0.00    +0.000 C 
ATOM     11  C   UNL     1       6.225   4.139  15.038  0.00  0.00    +0.000 C 
ATOM     12  C   UNL     1       7.374   5.142  15.120  0.00  0.00    +0.000 C 
ATOM     13  C   UNL     1       7.377   5.839  16.476  0.00  0.00    +0.000 C 
ATOM     14  C   UNL     1       6.035   6.517  16.755  0.00  0.00    +0.000 C 
ATOM     15  C   UNL     1       3.738   6.104  18.634  0.00  0.00    +0.000 A 
ATOM     16  N   UNL     1       2.994   5.794  19.727  0.00  0.00    +0.000 NA
ATOM     17  C   UNL     1       2.670   4.515  19.900  0.00  0.00    +0.000 A 
ATOM     18  N   UNL     1       1.984   4.210  20.999  0.00  0.00    +0.000 NA
ATOM     19  H   UNL     1       0.499   1.751  22.243  0.00  0.00    +0.000 HD
ATOM     20  H   UNL     1       0.488   3.420  22.688  0.00  0.00    +0.000 HD
ATOM     21  H   UNL     1       2.767   0.333  18.865  0.00  0.00    +0.000 HD
ATOM     22  H   UNL     1       3.912   1.285  18.024  0.00  0.00    +0.000 HD
ENDROOT
TORSDOF 0
ENDMDL
MODEL 4
REMARK VINA RESULT:      -6.8      2.491      6.740
REMARK  Name = 
REMARK  0 active torsions:
REMARK  status: ('A' for Active; 'I' for Inactive)
REMARK                            x       y       z     vdW  Elec       q    Type
REMARK                         _______ _______ _______ _____ _____    ______ ____
ROOT
ATOM      1  N   UNL     1       8.614   5.905  13.045  0.00  0.00    +0.000 N 
ATOM      2  C   UNL     1       7.669   5.348  13.880  0.00  0.00    +0.000 A 
ATOM      3  N   UNL     1       6.687   4.646  13.321  0.00  0.00    +0.000 NA
ATOM      4  C   UNL     1       5.773   4.129  14.156  0.00  0.00    +0.000 A 
ATOM      5  N   UNL     1       4.769   3.358  13.541  0.00  0.00    +0.000 N 
ATOM      6  C   UNL     1       5.803   4.269  15.541  0.00  0.00    +0.000 A 
ATOM      7  N   UNL     1       4.838   3.767  16.382  0.00  0.00    +0.000 NA
ATOM      8  C   UNL     1       4.955   4.038  17.694  0.00  0.00    +0.000 A 
ATOM      9  N   UNL     1       3.997   3.588  18.580  0.00  0.00    +0.000 N 
ATOM     10  C   UNL     1       3.225   2.385  18.274  0.00  0.00    +0.000 C 
ATOM     11  C   UNL     1       1.740   2.702  18.107  0.00  0.00    +0.000 C 
ATOM     12  C   UNL     1       1.205   3.530  19.274  0.00  0.00    +0.000 C 
ATOM     13  C   UNL     1       2.047   4.788  19.464  0.00  0.00    +0.000 C 
ATOM     14  C   UNL     1       3.523   4.442  19.666  0.00  0.00    +0.000 C 
ATOM     15  C   UNL     1       6.065   4.767  18.115  0.00  0.00    +0.000 A 
ATOM     16  N   UNL     1       7.032   5.249  17.293  0.00  0.00    +0.000 NA
ATOM     17  C   UNL     1       6.895   5.015  15.990  0.00  0.00    +0.000 A 
ATOM     18  N   UNL     1       7.819   5.534  15.184  0.00  0.00    +0.000 NA
ATOM     19  H   UNL     1       8.658   5.403  12.170  0.00  0.00    +0.000 HD
ATOM     20  H   UNL     1       9.481   6.049  13.545  0.00  0.00    +0.000 HD
ATOM     21  H   UNL     1       4.810   3.499  12.537  0.00  0.00    +0.000 HD
ATOM     22  H   UNL     1       3.862   3.543  13.959  0.00  0.00    +0.000 HD
ENDROOT
TORSDOF 0
ENDMDL
MODEL 5
REMARK VINA RESULT:      -6.6      2.030      6.202
REMARK  Name = 
REMARK  0 active torsions:
REMARK  status: ('A' for Active; 'I' for Inactive)
REMARK                            x       y       z     vdW  Elec       q    Type
REMARK                         _______ _______ _______ _____ _____    ______ ____
ROOT
ATOM      1  N   UNL     1       8.014   5.666  13.897  0.00  0.00    +0.000 N 
ATOM      2  C   UNL     1       7.207   5.176  14.901  0.00  0.00    +0.000 A 
ATOM      3  N   UNL     1       6.686   3.964  14.738  0.00  0.00    +0.000 NA
ATOM      4  C   UNL     1       5.892   3.518  15.723  0.00  0.00    +0.000 A 
ATOM      5  N   UNL     1       5.387   2.216  15.544  0.00  0.00    +0.000 N 
ATOM      6  C   UNL     1       5.603   4.229  16.885  0.00  0.00    +0.000 A 
ATOM      7  N   UNL     1       4.757   3.777  17.869  0.00  0.00    +0.000 NA
ATOM      8  C   UNL     1       4.511   4.600  18.905  0.00  0.00    +0.000 A 
ATOM      9  N   UNL     1       3.643   4.211  19.904  0.00  0.00    +0.000 N 
ATOM     10  C   UNL     1       3.451   2.792  20.197  0.00  0.00    +0.000 C 
ATOM     11  C   UNL     1       2.017   2.352  19.912  0.00  0.00    +0.000 C 
ATOM     12  C   UNL     1       1.000   3.285  20.564  0.00  0.00    +0.000 C 
ATOM     13  C   UNL     1       1.255   4.728  20.142  0.00  0.00    +0.000 C 
ATOM     14  C   UNL     1       2.685   5.158  20.473  0.00  0.00    +0.000 C 
ATOM     15  C   UNL     1       5.165   5.830  18.932  0.00  0.00    +0.000 A 
ATOM     16  N   UNL     1       6.018   6.275  17.973  0.00  0.00    +0.000 NA
ATOM     17  C   UNL     1       6.229   5.478  16.929  0.00  0.00    +0.000 A 
ATOM     18  N   UNL     1       7.026   5.941  15.968  0.00  0.00    +0.000 NA
ATOM     19  H   UNL     1       8.409   4.912  13.354  0.00  0.00    +0.000 HD
ATOM     20  H   UNL     1       8.651   6.358  14.266  0.00  0.00    +0.000 HD
ATOM     21  H   UNL     1       5.562   1.922  14.589  0.00  0.00    +0.000 HD
ATOM     22  H   UNL     1       4.415   2.160  15.834  0.00  0.00    +0.000 HD
ENDROOT
TORSDOF 0
ENDMDL
MODEL 6
REMARK VINA RESULT:      -6.5      2.384      6.276
REMARK  Name = 
REMARK  0 active torsions:
REMARK  status: ('A' for Active; 'I' for Inactive)
REMARK                            x       y       z     vdW  Elec       q    Type
REMARK                         _______ _______ _______ _____ _____    ______ ____
ROOT
ATOM      1  N   UNL     1       8.658   8.671  17.805  0.00  0.00    +0.000 N 
ATOM      2  C   UNL     1       7.684   7.696  17.787  0.00  0.00    +0.000 A 
ATOM      3  N   UNL     1       6.794   7.729  16.800  0.00  0.00    +0.000 NA
ATOM      4  C   UNL     1       5.848   6.778  16.817  0.00  0.00    +0.000 A 
ATOM      5  N   UNL     1       4.944   6.812  15.739  0.00  0.00    +0.000 N 
ATOM      6  C   UNL     1       5.757   5.774  17.778  0.00  0.00    +0.000 A 
ATOM      7  N   UNL     1       4.760   4.829  17.806  0.00  0.00    +0.000 NA
ATOM      8  C   UNL     1       4.754   3.961  18.834  0.00  0.00    +0.000 A 
ATOM      9  N   UNL     1       3.757   3.012  18.930  0.00  0.00    +0.000 N 
ATOM     10  C   UNL     1       3.084   2.532  17.726  0.00  0.00    +0.000 C 
ATOM     11  C   UNL     1       1.601   2.898  17.729  0.00  0.00    +0.000 C 
ATOM     12  C   UNL     1       0.927   2.506  19.042  0.00  0.00    +0.000 C 
ATOM     13  C   UNL     1       1.674   3.109  20.226  0.00  0.00    +0.000 C 
ATOM     14  C   UNL     1       3.147   2.698  20.221  0.00  0.00    +0.000 C 
ATOM     15  C   UNL     1       5.782   4.050  19.771  0.00  0.00    +0.000 A 
ATOM     16  N   UNL     1       6.782   4.968  19.739  0.00  0.00    +0.000 NA
ATOM     17  C   UNL     1       6.764   5.852  18.744  0.00  0.00    +0.000 A 
ATOM     18  N   UNL     1       7.718   6.782  18.746  0.00  0.00    +0.000 NA
ATOM     19  H   UNL     1       8.802   9.049  16.879  0.00  0.00    +0.000 HD
ATOM     20  H   UNL     1       9.472   8.344  18.307  0.00  0.00    +0.000 HD
ATOM     21  H   UNL     1       5.057   7.688  15.239  0.00  0.00    +0.000 HD
ATOM     22  H   UNL     1       3.997   6.622  16.053  0.00  0.00    +0.000 HD
ENDROOT
TORSDOF 0
ENDMDL
MODEL 7
REMARK VINA RESULT:      -6.5      3.322      5.149
REMARK  Name = 
REMARK  0 active torsions:
REMARK  status: ('A' for Active; 'I' for Inactive)
REMARK                            x       y       z     vdW  Elec       q    Type
REMARK                         _______ _______ _______ _____ _____    ______ ____
ROOT
ATOM      1  N   UNL     1       3.981   1.338  18.355  0.00  0.00    +0.000 N 
ATOM      2  C   UNL     1       3.528   2.528  18.883  0.00  0.00    +0.000 A 
ATOM      3  N   UNL     1       2.910   2.487  20.059  0.00  0.00    +0.000 NA
ATOM      4  C   UNL     1       2.465   3.657  20.541  0.00  0.00    +0.000 A 
ATOM      5  N   UNL     1       1.850   3.590  21.805  0.00  0.00    +0.000 N 
ATOM      6  C   UNL     1       2.626   4.884  19.902  0.00  0.00    +0.000 A 
ATOM      7  N   UNL     1       2.132   6.071  20.388  0.00  0.00    +0.000 NA
ATOM      8  C   UNL     1       2.298   7.171  19.632  0.00  0.00    +0.000 A 
ATOM      9  N   UNL     1       1.792   8.383  20.055  0.00  0.00    +0.000 N 
ATOM     10  C   UNL     1       1.623   8.647  21.483  0.00  0.00    +0.000 C 
ATOM     11  C   UNL     1       0.151   8.840  21.844  0.00  0.00    +0.000 C 
ATOM     12  C   UNL     1      -0.530   9.846  20.919  0.00  0.00    +0.000 C 
ATOM     13  C   UNL     1      -0.341   9.440  19.461  0.00  0.00    +0.000 C 
ATOM     14  C   UNL     1       1.140   9.291  19.114  0.00  0.00    +0.000 C 
ATOM     15  C   UNL     1       2.998   7.040  18.434  0.00  0.00    +0.000 A 
ATOM     16  N   UNL     1       3.506   5.875  17.956  0.00  0.00    +0.000 NA
ATOM     17  C   UNL     1       3.306   4.780  18.686  0.00  0.00    +0.000 A 
ATOM     18  N   UNL     1       3.762   3.632  18.189  0.00  0.00    +0.000 NA
ATOM     19  H   UNL     1       4.125   0.655  19.085  0.00  0.00    +0.000 HD
ATOM     20  H   UNL     1       4.747   1.506  17.717  0.00  0.00    +0.000 HD
ATOM     21  H   UNL     1       1.677   2.617  22.038  0.00  0.00    +0.000 HD
ATOM     22  H   UNL     1       1.030   4.188  21.843  0.00  0.00    +0.000 HD
ENDROOT
TORSDOF 0
ENDMDL
MODEL 8
REMARK VINA RESULT:      -6.5      1.982      6.037
REMARK  Name = 
REMARK  0 active torsions:
REMARK  status: ('A' for Active; 'I' for Inactive)
REMARK                            x       y       z     vdW  Elec       q    Type
REMARK                         _______ _______ _______ _____ _____    ______ ____
ROOT
ATOM      1  N   UNL     1       7.928   5.105  14.707  0.00  0.00    +0.000 N 
ATOM      2  C   UNL     1       7.013   5.005  15.734  0.00  0.00    +0.000 A 
ATOM      3  N   UNL     1       7.444   5.239  16.970  0.00  0.00    +0.000 NA
ATOM      4  C   UNL     1       6.536   5.120  17.950  0.00  0.00    +0.000 A 
ATOM      5  N   UNL     1       7.008   5.412  19.244  0.00  0.00    +0.000 N 
ATOM      6  C   UNL     1       5.199   4.787  17.750  0.00  0.00    +0.000 A 
ATOM      7  N   UNL     1       4.288   4.629  18.767  0.00  0.00    +0.000 NA
ATOM      8  C   UNL     1       3.045   4.236  18.434  0.00  0.00    +0.000 A 
ATOM      9  N   UNL     1       2.100   4.029  19.418  0.00  0.00    +0.000 N 
ATOM     10  C   UNL     1       2.190   4.755  20.683  0.00  0.00    +0.000 C 
ATOM     11  C   UNL     1       2.421   3.805  21.857  0.00  0.00    +0.000 C 
ATOM     12  C   UNL     1       1.428   2.646  21.850  0.00  0.00    +0.000 C 
ATOM     13  C   UNL     1       1.462   1.924  20.507  0.00  0.00    +0.000 C 
ATOM     14  C   UNL     1       1.189   2.888  19.351  0.00  0.00    +0.000 C 
ATOM     15  C   UNL     1       2.755   4.061  17.083  0.00  0.00    +0.000 A 
ATOM     16  N   UNL     1       3.644   4.235  16.070  0.00  0.00    +0.000 NA
ATOM     17  C   UNL     1       4.884   4.585  16.403  0.00  0.00    +0.000 A 
ATOM     18  N   UNL     1       5.764   4.703  15.411  0.00  0.00    +0.000 NA
ATOM     19  H   UNL     1       8.698   5.703  14.971  0.00  0.00    +0.000 HD
ATOM     20  H   UNL     1       7.457   5.309  13.837  0.00  0.00    +0.000 HD
ATOM     21  H   UNL     1       8.021   5.472  19.221  0.00  0.00    +0.000 HD
ATOM     22  H   UNL     1       6.637   4.755  19.924  0.00  0.00    +0.000 HD
ENDROOT
TORSDOF 0
ENDMDL
MODEL 9
REMARK VINA RESULT:      -6.3      1.996      6.374
REMARK  Name = 
REMARK  0 active torsions:
REMARK  status: ('A' for Active; 'I' for Inactive)
REMARK                            x       y       z     vdW  Elec       q    Type
REMARK                         _______ _______ _______ _____ _____    ______ ____
ROOT
ATOM      1  N   UNL     1       7.764   5.476  14.262  0.00  0.00    +0.000 N 
ATOM      2  C   UNL     1       6.715   5.276  15.133  0.00  0.00    +0.000 A 
ATOM      3  N   UNL     1       6.159   6.348  15.688  0.00  0.00    +0.000 NA
ATOM      4  C   UNL     1       5.150   6.123  16.543  0.00  0.00    +0.000 A 
ATOM      5  N   UNL     1       4.554   7.277  17.085  0.00  0.00    +0.000 N 
ATOM      6  C   UNL     1       4.655   4.861  16.863  0.00  0.00    +0.000 A 
ATOM      7  N   UNL     1       3.647   4.641  17.770  0.00  0.00    +0.000 NA
ATOM      8  C   UNL     1       3.317   3.364  18.036  0.00  0.00    +0.000 A 
ATOM      9  N   UNL     1       2.335   3.085  18.965  0.00  0.00    +0.000 N 
ATOM     10  C   UNL     1       1.271   4.053  19.220  0.00  0.00    +0.000 C 
ATOM     11  C   UNL     1       1.325   4.577  20.654  0.00  0.00    +0.000 C 
ATOM     12  C   UNL     1       1.414   3.439  21.668  0.00  0.00    +0.000 C 
ATOM     13  C   UNL     1       2.592   2.527  21.341  0.00  0.00    +0.000 C 
ATOM     14  C   UNL     1       2.496   1.985  19.914  0.00  0.00    +0.000 C 
ATOM     15  C   UNL     1       3.985   2.358  17.341  0.00  0.00    +0.000 A 
ATOM     16  N   UNL     1       4.968   2.568  16.428  0.00  0.00    +0.000 NA
ATOM     17  C   UNL     1       5.322   3.830  16.195  0.00  0.00    +0.000 A 
ATOM     18  N   UNL     1       6.321   4.027  15.338  0.00  0.00    +0.000 NA
ATOM     19  H   UNL     1       7.730   6.406  13.868  0.00  0.00    +0.000 HD
ATOM     20  H   UNL     1       7.839   4.700  13.619  0.00  0.00    +0.000 HD
ATOM     21  H   UNL     1       5.137   8.081  16.875  0.00  0.00    +0.000 HD
ATOM     22  H   UNL     1       4.345   7.150  18.071  0.00  0.00    +0.000 HD
ENDROOT
TORSDOF 0
ENDMDL
