MODEL 1
REMARK VINA RESULT:      -8.4      0.000      0.000
REMARK  Name = 
REMARK  8 active torsions:
REMARK  status: ('A' for Active; 'I' for Inactive)
REMARK    1  A    between atoms: C_1  and  C_2
REMARK    2  A    between atoms: C_4  and  O_5
REMARK    3  A    between atoms: C_7  and  C_8
REMARK    4  A    between atoms: C_9  and  C_10
REMARK    5  A    between atoms: C_12  and  N_13
REMARK    6  A    between atoms: C_15  and  O_16
REMARK    7  A    between atoms: C_19  and  C_20
REMARK    8  A    between atoms: N_29  and  C_30
REMARK                            x       y       z     vdW  Elec       q    Type
REMARK                         _______ _______ _______ _____ _____    ______ ____
ROOT
ATOM      1  C   UNL     1       4.775   4.345  17.378  0.00  0.00    +0.000 A 
ATOM      2  C   UNL     1       4.929   3.883  16.093  0.00  0.00    +0.000 A 
ATOM      3  C   UNL     1       5.959   4.421  15.353  0.00  0.00    +0.000 A 
ATOM      4  N   UNL     1       6.743   5.400  15.844  0.00  0.00    +0.000 NA
ATOM      5  C   UNL     1       6.490   5.830  17.096  0.00  0.00    +0.000 A 
ATOM      6  N   UNL     1       5.550   5.307  17.895  0.00  0.00    +0.000 NA
ENDROOT
BRANCH   1   8
ATOM      7  C   UNL     1       2.803   4.443  19.005  0.00  0.00    +0.000 A 
ATOM      8  C   UNL     1       3.765   3.767  18.247  0.00  0.00    +0.000 A 
ATOM      9  C   UNL     1       3.555   2.397  18.513  0.00  0.00    +0.000 A 
ATOM     10  N   UNL     1       2.567   2.186  19.375  0.00  0.00    +0.000 NA
ATOM     11  N   UNL     1       2.143   3.429  19.686  0.00  0.00    +0.000 N 
ATOM     12  C   UNL     1       1.068   3.530  20.648  0.00  0.00    +0.000 C 
BRANCH   7  18
ATOM     13  C   UNL     1       1.140   8.332  21.718  0.00  0.00    +0.000 C 
ATOM     14  C   UNL     1       1.691   7.800  20.427  0.00  0.00    +0.000 A 
ATOM     15  C   UNL     1       1.819   8.629  19.309  0.00  0.00    +0.000 A 
ATOM     16  C   UNL     1       2.251   8.086  18.106  0.00  0.00    +0.000 A 
ATOM     17  C   UNL     1       2.533   6.727  17.989  0.00  0.00    +0.000 A 
ATOM     18  C   UNL     1       2.465   5.881  19.100  0.00  0.00    +0.000 A 
ATOM     19  C   UNL     1       2.046   6.444  20.320  0.00  0.00    +0.000 A 
BRANCH  16  20
ATOM     20  O   UNL     1       2.412   8.860  16.994  0.00  0.00    +0.000 OA
ATOM     21  H   UNL     1       1.537   9.159  16.698  0.00  0.00    +0.000 HD
ENDBRANCH  16  20
ENDBRANCH   7  18
ENDBRANCH   1   8
BRANCH   5  22
ATOM     22  C   UNL     1       7.240   6.981  17.619  0.00  0.00    +0.000 A 
ATOM     23  C   UNL     1       7.118   8.276  17.098  0.00  0.00    +0.000 A 
ATOM     24  C   UNL     1       7.847   9.334  17.643  0.00  0.00    +0.000 A 
ATOM     25  C   UNL     1       8.691   9.077  18.710  0.00  0.00    +0.000 A 
ATOM     26  N   UNL     1       8.839   7.858  19.258  0.00  0.00    +0.000 NA
ATOM     27  C   UNL     1       8.117   6.849  18.701  0.00  0.00    +0.000 A 
ENDBRANCH   5  22
BRANCH   3  28
ATOM     28  N   UNL     1       6.165   3.975  14.039  0.00  0.00    +0.000 N 
ATOM     29  C   UNL     1       5.161   3.689  13.057  0.00  0.00    +0.000 C 
ATOM     30  C   UNL     1       6.323   3.563  12.048  0.00  0.00    +0.000 C 
ATOM     31  C   UNL     1       7.113   4.416  13.062  0.00  0.00    +0.000 C 
BRANCH  30  32
ATOM     32  O   UNL     1       6.825   2.222  11.818  0.00  0.00    +0.000 OA
ATOM     33  H   UNL     1       7.421   2.324  11.050  0.00  0.00    +0.000 HD
ENDBRANCH  30  32
ENDBRANCH   3  28
TORSDOF 6
ENDMDL
MODEL 2
REMARK VINA RESULT:      -8.3      2.786      6.782
REMARK  Name = 
REMARK  8 active torsions:
REMARK  status: ('A' for Active; 'I' for Inactive)
REMARK    1  A    between atoms: C_1  and  C_2
REMARK    2  A    between atoms: C_4  and  O_5
REMARK    3  A    between atoms: C_7  and  C_8
REMARK    4  A    between atoms: C_9  and  C_10
REMARK    5  A    between atoms: C_12  and  N_13
REMARK    6  A    between atoms: C_15  and  O_16
REMARK    7  A    between atoms: C_19  and  C_20
REMARK    8  A    between atoms: N_29  and  C_30
REMARK                            x       y       z     vdW  Elec       q    Type
REMARK                         _______ _______ _______ _____ _____    ______ ____
ROOT
ATOM      1  C   UNL     1       3.705   5.318  17.632  0.00  0.00    +0.000 A 
ATOM      2  C   UNL     1       3.365   4.330  18.523  0.00  0.00    +0.000 A 
ATOM      3  C   UNL     1       2.438   4.651  19.490  0.00  0.00    +0.000 A 
ATOM      4  N   UNL     1       1.932   5.894  19.597  0.00  0.00    +0.000 NA
ATOM      5  C   UNL     1       2.360   6.817  18.712  0.00  0.00    +0.000 A 
ATOM      6  N   UNL     1       3.207   6.558  17.707  0.00  0.00    +0.000 NA
ENDROOT
BRANCH   1   8
ATOM      7  C   UNL     1       5.966   5.373  16.434  0.00  0.00    +0.000 A 
ATOM      8  C   UNL     1       4.613   5.032  16.535  0.00  0.00    +0.000 A 
ATOM      9  C   UNL     1       4.309   4.357  15.333  0.00  0.00    +0.000 A 
ATOM     10  N   UNL     1       5.349   4.276  14.511  0.00  0.00    +0.000 NA
ATOM     11  N   UNL     1       6.332   4.919  15.175  0.00  0.00    +0.000 N 
ATOM     12  C   UNL     1       7.610   5.024  14.506  0.00  0.00    +0.000 C 
BRANCH   7  18
ATOM     13  C   UNL     1       8.480   9.459  17.931  0.00  0.00    +0.000 C 
ATOM     14  C   UNL     1       8.087   8.029  18.161  0.00  0.00    +0.000 A 
ATOM     15  C   UNL     1       8.632   7.300  19.221  0.00  0.00    +0.000 A 
ATOM     16  C   UNL     1       8.314   5.954  19.355  0.00  0.00    +0.000 A 
ATOM     17  C   UNL     1       7.486   5.314  18.437  0.00  0.00    +0.000 A 
ATOM     18  C   UNL     1       6.884   6.027  17.395  0.00  0.00    +0.000 A 
ATOM     19  C   UNL     1       7.195   7.394  17.279  0.00  0.00    +0.000 A 
BRANCH  16  20
ATOM     20  O   UNL     1       8.804   5.208  20.387  0.00  0.00    +0.000 OA
ATOM     21  H   UNL     1       8.233   5.341  21.162  0.00  0.00    +0.000 HD
ENDBRANCH  16  20
ENDBRANCH   7  18
ENDBRANCH   1   8
BRANCH   5  22
ATOM     22  C   UNL     1       1.928   8.213  18.874  0.00  0.00    +0.000 A 
ATOM     23  C   UNL     1       2.071   9.180  17.871  0.00  0.00    +0.000 A 
ATOM     24  C   UNL     1       1.632  10.489  18.076  0.00  0.00    +0.000 A 
ATOM     25  C   UNL     1       1.049  10.810  19.290  0.00  0.00    +0.000 A 
ATOM     26  N   UNL     1       0.875   9.921  20.284  0.00  0.00    +0.000 NA
ATOM     27  C   UNL     1       1.318   8.655  20.053  0.00  0.00    +0.000 A 
ENDBRANCH   5  22
BRANCH   3  28
ATOM     28  N   UNL     1       2.048   3.673  20.417  0.00  0.00    +0.000 N 
ATOM     29  C   UNL     1       1.098   2.620  20.214  0.00  0.00    +0.000 C 
ATOM     30  C   UNL     1       1.575   2.059  21.572  0.00  0.00    +0.000 C 
ATOM     31  C   UNL     1       2.848   2.890  21.311  0.00  0.00    +0.000 C 
BRANCH  30  32
ATOM     32  O   UNL     1       0.791   2.443  22.730  0.00  0.00    +0.000 OA
ATOM     33  H   UNL     1       1.340   3.122  23.168  0.00  0.00    +0.000 HD
ENDBRANCH  30  32
ENDBRANCH   3  28
TORSDOF 6
ENDMDL
MODEL 3
REMARK VINA RESULT:      -8.1      1.039      1.572
REMARK  Name = 
REMARK  8 active torsions:
REMARK  status: ('A' for Active; 'I' for Inactive)
REMARK    1  A    between atoms: C_1  and  C_2
REMARK    2  A    between atoms: C_4  and  O_5
REMARK    3  A    between atoms: C_7  and  C_8
REMARK    4  A    between atoms: C_9  and  C_10
REMARK    5  A    between atoms: C_12  and  N_13
REMARK    6  A    between atoms: C_15  and  O_16
REMARK    7  A    between atoms: C_19  and  C_20
REMARK    8  A    between atoms: N_29  and  C_30
REMARK                            x       y       z     vdW  Elec       q    Type
REMARK                         _______ _______ _______ _____ _____    ______ ____
ROOT
ATOM      1  C   UNL     1       4.672   3.985  17.227  0.00  0.00    +0.000 A 
ATOM      2  C   UNL     1       4.839   3.569  15.929  0.00  0.00    +0.000 A 
ATOM      3  C   UNL     1       5.878   4.131  15.219  0.00  0.00    +0.000 A 
ATOM      4  N   UNL     1       6.658   5.090  15.752  0.00  0.00    +0.000 NA
ATOM      5  C   UNL     1       6.392   5.477  17.016  0.00  0.00    +0.000 A 
ATOM      6  N   UNL     1       5.443   4.927  17.786  0.00  0.00    +0.000 NA
ENDROOT
BRANCH   1   8
ATOM      7  C   UNL     1       2.739   4.028  18.902  0.00  0.00    +0.000 A 
ATOM      8  C   UNL     1       3.652   3.380  18.064  0.00  0.00    +0.000 A 
ATOM      9  C   UNL     1       3.380   2.003  18.211  0.00  0.00    +0.000 A 
ATOM     10  N   UNL     1       2.400   1.761  19.074  0.00  0.00    +0.000 NA
ATOM     11  N   UNL     1       2.043   2.989  19.505  0.00  0.00    +0.000 N 
ATOM     12  C   UNL     1       0.993   3.053  20.497  0.00  0.00    +0.000 C 
BRANCH   7  18
ATOM     13  C   UNL     1       2.578   8.739  17.161  0.00  0.00    +0.000 C 
ATOM     14  C   UNL     1       2.351   7.769  18.284  0.00  0.00    +0.000 A 
ATOM     15  C   UNL     1       1.964   8.219  19.549  0.00  0.00    +0.000 A 
ATOM     16  C   UNL     1       1.846   7.305  20.589  0.00  0.00    +0.000 A 
ATOM     17  C   UNL     1       2.133   5.957  20.399  0.00  0.00    +0.000 A 
ATOM     18  C   UNL     1       2.473   5.466  19.134  0.00  0.00    +0.000 A 
ATOM     19  C   UNL     1       2.570   6.395  18.081  0.00  0.00    +0.000 A 
BRANCH  16  20
ATOM     20  O   UNL     1       1.450   7.695  21.835  0.00  0.00    +0.000 OA
ATOM     21  H   UNL     1       2.067   7.322  22.485  0.00  0.00    +0.000 HD
ENDBRANCH  16  20
ENDBRANCH   7  18
ENDBRANCH   1   8
BRANCH   5  22
ATOM     22  C   UNL     1       7.139   6.606  17.587  0.00  0.00    +0.000 A 
ATOM     23  C   UNL     1       7.060   7.911  17.081  0.00  0.00    +0.000 A 
ATOM     24  C   UNL     1       7.783   8.948  17.672  0.00  0.00    +0.000 A 
ATOM     25  C   UNL     1       8.577   8.661  18.770  0.00  0.00    +0.000 A 
ATOM     26  N   UNL     1       8.682   7.433  19.305  0.00  0.00    +0.000 NA
ATOM     27  C   UNL     1       7.967   6.443  18.703  0.00  0.00    +0.000 A 
ENDBRANCH   5  22
BRANCH   3  28
ATOM     28  N   UNL     1       6.097   3.731  13.892  0.00  0.00    +0.000 N 
ATOM     29  C   UNL     1       5.104   3.485  12.889  0.00  0.00    +0.000 C 
ATOM     30  C   UNL     1       6.277   3.390  11.889  0.00  0.00    +0.000 C 
ATOM     31  C   UNL     1       7.058   4.203  12.942  0.00  0.00    +0.000 C 
BRANCH  30  32
ATOM     32  O   UNL     1       6.776   2.056  11.618  0.00  0.00    +0.000 OA
ATOM     33  H   UNL     1       7.556   1.975  12.200  0.00  0.00    +0.000 HD
ENDBRANCH  30  32
ENDBRANCH   3  28
TORSDOF 6
ENDMDL
MODEL 4
REMARK VINA RESULT:      -8.0      2.051      4.580
REMARK  Name = 
REMARK  8 active torsions:
REMARK  status: ('A' for Active; 'I' for Inactive)
REMARK    1  A    between atoms: C_1  and  C_2
REMARK    2  A    between atoms: C_4  and  O_5
REMARK    3  A    between atoms: C_7  and  C_8
REMARK    4  A    between atoms: C_9  and  C_10
REMARK    5  A    between atoms: C_12  and  N_13
REMARK    6  A    between atoms: C_15  and  O_16
REMARK    7  A    between atoms: C_19  and  C_20
REMARK    8  A    between atoms: N_29  and  C_30
REMARK                            x       y       z     vdW  Elec       q    Type
REMARK                         _______ _______ _______ _____ _____    ______ ____
ROOT
ATOM      1  C   UNL     1       5.433   5.120  17.886  0.00  0.00    +0.000 A 
ATOM      2  C   UNL     1       6.174   6.198  18.304  0.00  0.00    +0.000 A 
ATOM      3  C   UNL     1       6.927   6.849  17.351  0.00  0.00    +0.000 A 
ATOM      4  N   UNL     1       6.983   6.413  16.079  0.00  0.00    +0.000 NA
ATOM      5  C   UNL     1       6.264   5.316  15.765  0.00  0.00    +0.000 A 
ATOM      6  N   UNL     1       5.459   4.675  16.624  0.00  0.00    +0.000 NA
ENDROOT
BRANCH   1   8
ATOM      7  C   UNL     1       3.447   4.961  19.492  0.00  0.00    +0.000 A 
ATOM      8  C   UNL     1       4.551   4.434  18.814  0.00  0.00    +0.000 A 
ATOM      9  C   UNL     1       4.637   3.089  19.231  0.00  0.00    +0.000 A 
ATOM     10  N   UNL     1       3.698   2.762  20.111  0.00  0.00    +0.000 NA
ATOM     11  N   UNL     1       3.006   3.908  20.281  0.00  0.00    +0.000 N 
ATOM     12  C   UNL     1       1.912   3.876  21.227  0.00  0.00    +0.000 C 
BRANCH   7  18
ATOM     13  C   UNL     1       0.801   8.609  21.716  0.00  0.00    +0.000 C 
ATOM     14  C   UNL     1       1.544   8.102  20.514  0.00  0.00    +0.000 A 
ATOM     15  C   UNL     1       1.569   8.839  19.327  0.00  0.00    +0.000 A 
ATOM     16  C   UNL     1       2.192   8.302  18.207  0.00  0.00    +0.000 A 
ATOM     17  C   UNL     1       2.766   7.034  18.240  0.00  0.00    +0.000 A 
ATOM     18  C   UNL     1       2.803   6.293  19.426  0.00  0.00    +0.000 A 
ATOM     19  C   UNL     1       2.188   6.853  20.561  0.00  0.00    +0.000 A 
BRANCH  16  20
ATOM     20  O   UNL     1       2.261   8.993  17.032  0.00  0.00    +0.000 OA
ATOM     21  H   UNL     1       3.021   9.597  17.075  0.00  0.00    +0.000 HD
ENDBRANCH  16  20
ENDBRANCH   7  18
ENDBRANCH   1   8
BRANCH   5  22
ATOM     22  C   UNL     1       6.398   4.737  14.421  0.00  0.00    +0.000 A 
ATOM     23  C   UNL     1       5.473   3.833  13.881  0.00  0.00    +0.000 A 
ATOM     24  C   UNL     1       5.645   3.324  12.593  0.00  0.00    +0.000 A 
ATOM     25  C   UNL     1       6.745   3.734  11.859  0.00  0.00    +0.000 A 
ATOM     26  N   UNL     1       7.657   4.607  12.321  0.00  0.00    +0.000 NA
ATOM     27  C   UNL     1       7.462   5.082  13.581  0.00  0.00    +0.000 A 
ENDBRANCH   5  22
BRANCH   3  28
ATOM     28  N   UNL     1       7.694   7.963  17.726  0.00  0.00    +0.000 N 
ATOM     29  C   UNL     1       7.272   9.332  17.752  0.00  0.00    +0.000 C 
ATOM     30  C   UNL     1       8.606   9.628  18.472  0.00  0.00    +0.000 C 
ATOM     31  C   UNL     1       8.581   8.129  18.837  0.00  0.00    +0.000 C 
BRANCH  30  32
ATOM     32  O   UNL     1       9.704  10.058  17.628  0.00  0.00    +0.000 OA
ATOM     33  H   UNL     1      10.482   9.609  18.010  0.00  0.00    +0.000 HD
ENDBRANCH  30  32
ENDBRANCH   3  28
TORSDOF 6
ENDMDL
MODEL 5
REMARK VINA RESULT:      -7.8      7.413     11.124
REMARK  Name = 
REMARK  8 active torsions:
REMARK  status: ('A' for Active; 'I' for Inactive)
REMARK    1  A    between atoms: C_1  and  C_2
REMARK    2  A    between atoms: C_4  and  O_5
REMARK    3  A    between atoms: C_7  and  C_8
REMARK    4  A    between atoms: C_9  and  C_10
REMARK    5  A    between atoms: C_12  and  N_13
REMARK    6  A    between atoms: C_15  and  O_16
REMARK    7  A    between atoms: C_19  and  C_20
REMARK    8  A    between atoms: N_29  and  C_30
REMARK                            x       y       z     vdW  Elec       q    Type
REMARK                         _______ _______ _______ _____ _____    ______ ____
ROOT
ATOM      1  C   UNL     1      -0.893  12.738  20.673  0.00  0.00    +0.000 A 
ATOM      2  C   UNL     1      -2.072  12.863  19.980  0.00  0.00    +0.000 A 
ATOM      3  C   UNL     1      -2.408  11.837  19.123  0.00  0.00    +0.000 A 
ATOM      4  N   UNL     1      -1.588  10.787  18.927  0.00  0.00    +0.000 NA
ATOM      5  C   UNL     1      -0.425  10.769  19.609  0.00  0.00    +0.000 A 
ATOM      6  N   UNL     1      -0.066  11.698  20.506  0.00  0.00    +0.000 NA
ENDROOT
BRANCH   1   8
ATOM      7  C   UNL     1      -1.323  14.337  22.623  0.00  0.00    +0.000 A 
ATOM      8  C   UNL     1      -0.511  13.738  21.654  0.00  0.00    +0.000 A 
ATOM      9  C   UNL     1       0.763  14.321  21.824  0.00  0.00    +0.000 A 
ATOM     10  N   UNL     1       0.789  15.228  22.793  0.00  0.00    +0.000 NA
ATOM     11  N   UNL     1      -0.482  15.249  23.246  0.00  0.00    +0.000 N 
ATOM     12  C   UNL     1      -0.780  16.182  24.309  0.00  0.00    +0.000 C 
BRANCH   7  18
ATOM     13  C   UNL     1      -6.144  15.746  22.462  0.00  0.00    +0.000 C 
ATOM     14  C   UNL     1      -5.102  14.756  22.894  0.00  0.00    +0.000 A 
ATOM     15  C   UNL     1      -5.444  13.665  23.697  0.00  0.00    +0.000 A 
ATOM     16  C   UNL     1      -4.443  12.816  24.152  0.00  0.00    +0.000 A 
ATOM     17  C   UNL     1      -3.105  13.048  23.843  0.00  0.00    +0.000 A 
ATOM     18  C   UNL     1      -2.735  14.100  22.999  0.00  0.00    +0.000 A 
ATOM     19  C   UNL     1      -3.758  14.944  22.526  0.00  0.00    +0.000 A 
BRANCH  16  20
ATOM     20  O   UNL     1      -4.730  11.725  24.920  0.00  0.00    +0.000 OA
ATOM     21  H   UNL     1      -3.899  11.271  25.134  0.00  0.00    +0.000 HD
ENDBRANCH  16  20
ENDBRANCH   7  18
ENDBRANCH   1   8
BRANCH   5  22
ATOM     22  C   UNL     1       0.550   9.707  19.326  0.00  0.00    +0.000 A 
ATOM     23  C   UNL     1       1.090   9.481  18.053  0.00  0.00    +0.000 A 
ATOM     24  C   UNL     1       2.023   8.464  17.846  0.00  0.00    +0.000 A 
ATOM     25  C   UNL     1       2.405   7.685  18.925  0.00  0.00    +0.000 A 
ATOM     26  N   UNL     1       1.929   7.862  20.169  0.00  0.00    +0.000 NA
ATOM     27  C   UNL     1       1.019   8.860  20.337  0.00  0.00    +0.000 A 
ENDBRANCH   5  22
BRANCH   3  28
ATOM     28  N   UNL     1      -3.608  11.912  18.402  0.00  0.00    +0.000 N 
ATOM     29  C   UNL     1      -3.847  11.437  17.071  0.00  0.00    +0.000 C 
ATOM     30  C   UNL     1      -5.339  11.734  17.337  0.00  0.00    +0.000 C 
ATOM     31  C   UNL     1      -4.949  11.643  18.827  0.00  0.00    +0.000 C 
BRANCH  30  32
ATOM     32  O   UNL     1      -5.822  13.024  16.884  0.00  0.00    +0.000 OA
ATOM     33  H   UNL     1      -5.040  13.432  16.464  0.00  0.00    +0.000 HD
ENDBRANCH  30  32
ENDBRANCH   3  28
TORSDOF 6
ENDMDL
MODEL 6
REMARK VINA RESULT:      -7.7      7.035     11.045
REMARK  Name = 
REMARK  8 active torsions:
REMARK  status: ('A' for Active; 'I' for Inactive)
REMARK    1  A    between atoms: C_1  and  C_2
REMARK    2  A    between atoms: C_4  and  O_5
REMARK    3  A    between atoms: C_7  and  C_8
REMARK    4  A    between atoms: C_9  and  C_10
REMARK    5  A    between atoms: C_12  and  N_13
REMARK    6  A    between atoms: C_15  and  O_16
REMARK    7  A    between atoms: C_19  and  C_20
REMARK    8  A    between atoms: N_29  and  C_30
REMARK                            x       y       z     vdW  Elec       q    Type
REMARK                         _______ _______ _______ _____ _____    ______ ____
ROOT
ATOM      1  C   UNL     1      -1.715  12.602  19.000  0.00  0.00    +0.000 A 
ATOM      2  C   UNL     1      -1.772  11.955  17.790  0.00  0.00    +0.000 A 
ATOM      3  C   UNL     1      -3.005  11.490  17.385  0.00  0.00    +0.000 A 
ATOM      4  N   UNL     1      -4.094  11.611  18.166  0.00  0.00    +0.000 NA
ATOM      5  C   UNL     1      -3.939  12.214  19.362  0.00  0.00    +0.000 A 
ATOM      6  N   UNL     1      -2.786  12.748  19.790  0.00  0.00    +0.000 NA
ENDROOT
BRANCH   1   8
ATOM      7  C   UNL     1       0.509  12.602  20.265  0.00  0.00    +0.000 A 
ATOM      8  C   UNL     1      -0.469  13.191  19.456  0.00  0.00    +0.000 A 
ATOM      9  C   UNL     1       0.008  14.491  19.183  0.00  0.00    +0.000 A 
ATOM     10  N   UNL     1       1.172  14.746  19.767  0.00  0.00    +0.000 NA
ATOM     11  N   UNL     1       1.449  13.609  20.440  0.00  0.00    +0.000 N 
ATOM     12  C   UNL     1       2.669  13.590  21.217  0.00  0.00    +0.000 C 
BRANCH   7  18
ATOM     13  C   UNL     1       1.880   7.800  19.703  0.00  0.00    +0.000 C 
ATOM     14  C   UNL     1       1.330   8.892  20.573  0.00  0.00    +0.000 A 
ATOM     15  C   UNL     1       0.868   8.614  21.862  0.00  0.00    +0.000 A 
ATOM     16  C   UNL     1       0.285   9.630  22.609  0.00  0.00    +0.000 A 
ATOM     17  C   UNL     1       0.129  10.910  22.087  0.00  0.00    +0.000 A 
ATOM     18  C   UNL     1       0.626  11.235  20.820  0.00  0.00    +0.000 A 
ATOM     19  C   UNL     1       1.234  10.205  20.078  0.00  0.00    +0.000 A 
BRANCH  16  20
ATOM     20  O   UNL     1      -0.160   9.411  23.881  0.00  0.00    +0.000 OA
ATOM     21  H   UNL     1      -0.016  10.218  24.401  0.00  0.00    +0.000 HD
ENDBRANCH  16  20
ENDBRANCH   7  18
ENDBRANCH   1   8
BRANCH   5  22
ATOM     22  C   UNL     1      -5.074  12.252  20.294  0.00  0.00    +0.000 A 
ATOM     23  C   UNL     1      -6.374  11.872  19.933  0.00  0.00    +0.000 A 
ATOM     24  C   UNL     1      -7.413  11.917  20.865  0.00  0.00    +0.000 A 
ATOM     25  C   UNL     1      -7.131  12.341  22.152  0.00  0.00    +0.000 A 
ATOM     26  N   UNL     1      -5.902  12.706  22.557  0.00  0.00    +0.000 NA
ATOM     27  C   UNL     1      -4.913  12.654  21.624  0.00  0.00    +0.000 A 
ENDBRANCH   5  22
BRANCH   3  28
ATOM     28  N   UNL     1      -3.117  10.832  16.151  0.00  0.00    +0.000 N 
ATOM     29  C   UNL     1      -2.856   9.449  15.884  0.00  0.00    +0.000 C 
ATOM     30  C   UNL     1      -3.471   9.703  14.490  0.00  0.00    +0.000 C 
ATOM     31  C   UNL     1      -4.150  10.914  15.163  0.00  0.00    +0.000 C 
BRANCH  30  32
ATOM     32  O   UNL     1      -2.534  10.010  13.427  0.00  0.00    +0.000 OA
ATOM     33  H   UNL     1      -1.660   9.937  13.857  0.00  0.00    +0.000 HD
ENDBRANCH  30  32
ENDBRANCH   3  28
TORSDOF 6
ENDMDL
MODEL 7
REMARK VINA RESULT:      -7.7      6.960     10.679
REMARK  Name = 
REMARK  8 active torsions:
REMARK  status: ('A' for Active; 'I' for Inactive)
REMARK    1  A    between atoms: C_1  and  C_2
REMARK    2  A    between atoms: C_4  and  O_5
REMARK    3  A    between atoms: C_7  and  C_8
REMARK    4  A    between atoms: C_9  and  C_10
REMARK    5  A    between atoms: C_12  and  N_13
REMARK    6  A    between atoms: C_15  and  O_16
REMARK    7  A    between atoms: C_19  and  C_20
REMARK    8  A    between atoms: N_29  and  C_30
REMARK                            x       y       z     vdW  Elec       q    Type
REMARK                         _______ _______ _______ _____ _____    ______ ____
ROOT
ATOM      1  C   UNL     1      -0.606  12.842  20.512  0.00  0.00    +0.000 A 
ATOM      2  C   UNL     1      -1.825  12.950  19.888  0.00  0.00    +0.000 A 
ATOM      3  C   UNL     1      -2.229  11.884  19.113  0.00  0.00    +0.000 A 
ATOM      4  N   UNL     1      -1.439  10.810  18.925  0.00  0.00    +0.000 NA
ATOM      5  C   UNL     1      -0.236  10.809  19.534  0.00  0.00    +0.000 A 
ATOM      6  N   UNL     1       0.193  11.780  20.353  0.00  0.00    +0.000 NA
ENDROOT
BRANCH   1   8
ATOM      7  C   UNL     1       0.791  14.890  21.146  0.00  0.00    +0.000 A 
ATOM      8  C   UNL     1      -0.149  13.888  21.409  0.00  0.00    +0.000 A 
ATOM      9  C   UNL     1      -0.556  14.101  22.744  0.00  0.00    +0.000 A 
ATOM     10  N   UNL     1       0.065  15.127  23.314  0.00  0.00    +0.000 NA
ATOM     11  N   UNL     1       0.895  15.574  22.349  0.00  0.00    +0.000 N 
ATOM     12  C   UNL     1       1.746  16.694  22.688  0.00  0.00    +0.000 C 
BRANCH   7  18
ATOM     13  C   UNL     1       1.431  17.949  17.211  0.00  0.00    +0.000 C 
ATOM     14  C   UNL     1       1.875  16.753  18.002  0.00  0.00    +0.000 A 
ATOM     15  C   UNL     1       2.917  15.942  17.547  0.00  0.00    +0.000 A 
ATOM     16  C   UNL     1       3.246  14.795  18.258  0.00  0.00    +0.000 A 
ATOM     17  C   UNL     1       2.539  14.426  19.398  0.00  0.00    +0.000 A 
ATOM     18  C   UNL     1       1.525  15.242  19.909  0.00  0.00    +0.000 A 
ATOM     19  C   UNL     1       1.212  16.413  19.195  0.00  0.00    +0.000 A 
BRANCH  16  20
ATOM     20  O   UNL     1       4.271  13.984  17.863  0.00  0.00    +0.000 OA
ATOM     21  H   UNL     1       4.633  13.541  18.648  0.00  0.00    +0.000 HD
ENDBRANCH  16  20
ENDBRANCH   7  18
ENDBRANCH   1   8
BRANCH   5  22
ATOM     22  C   UNL     1       0.704   9.715  19.252  0.00  0.00    +0.000 A 
ATOM     23  C   UNL     1       1.282   9.507  17.992  0.00  0.00    +0.000 A 
ATOM     24  C   UNL     1       2.179   8.457  17.785  0.00  0.00    +0.000 A 
ATOM     25  C   UNL     1       2.487   7.630  18.851  0.00  0.00    +0.000 A 
ATOM     26  N   UNL     1       1.973   7.788  20.083  0.00  0.00    +0.000 NA
ATOM     27  C   UNL     1       1.100   8.819  20.250  0.00  0.00    +0.000 A 
ENDBRANCH   5  22
BRANCH   3  28
ATOM     28  N   UNL     1      -3.471  11.940  18.464  0.00  0.00    +0.000 N 
ATOM     29  C   UNL     1      -3.855  11.244  17.272  0.00  0.00    +0.000 C 
ATOM     30  C   UNL     1      -5.290  11.738  17.562  0.00  0.00    +0.000 C 
ATOM     31  C   UNL     1      -4.792  11.897  19.014  0.00  0.00    +0.000 C 
BRANCH  30  32
ATOM     32  O   UNL     1      -5.691  12.958  16.890  0.00  0.00    +0.000 OA
ATOM     33  H   UNL     1      -6.114  13.485  17.596  0.00  0.00    +0.000 HD
ENDBRANCH  30  32
ENDBRANCH   3  28
TORSDOF 6
ENDMDL
MODEL 8
REMARK VINA RESULT:      -7.5      8.975     12.197
REMARK  Name = 
REMARK  8 active torsions:
REMARK  status: ('A' for Active; 'I' for Inactive)
REMARK    1  A    between atoms: C_1  and  C_2
REMARK    2  A    between atoms: C_4  and  O_5
REMARK    3  A    between atoms: C_7  and  C_8
REMARK    4  A    between atoms: C_9  and  C_10
REMARK    5  A    between atoms: C_12  and  N_13
REMARK    6  A    between atoms: C_15  and  O_16
REMARK    7  A    between atoms: C_19  and  C_20
REMARK    8  A    between atoms: N_29  and  C_30
REMARK                            x       y       z     vdW  Elec       q    Type
REMARK                         _______ _______ _______ _____ _____    ______ ____
ROOT
ATOM      1  C   UNL     1      -1.539  12.785  19.677  0.00  0.00    +0.000 A 
ATOM      2  C   UNL     1      -1.605  12.152  18.460  0.00  0.00    +0.000 A 
ATOM      3  C   UNL     1      -2.849  11.733  18.038  0.00  0.00    +0.000 A 
ATOM      4  N   UNL     1      -3.941  11.882  18.810  0.00  0.00    +0.000 NA
ATOM      5  C   UNL     1      -3.778  12.467  20.013  0.00  0.00    +0.000 A 
ATOM      6  N   UNL     1      -2.613  12.957  20.458  0.00  0.00    +0.000 NA
ENDROOT
BRANCH   1   8
ATOM      7  C   UNL     1       0.170  14.649  20.063  0.00  0.00    +0.000 A 
ATOM      8  C   UNL     1      -0.279  13.327  20.152  0.00  0.00    +0.000 A 
ATOM      9  C   UNL     1       0.762  12.623  20.796  0.00  0.00    +0.000 A 
ATOM     10  N   UNL     1       1.802  13.395  21.086  0.00  0.00    +0.000 NA
ATOM     11  N   UNL     1       1.445  14.606  20.612  0.00  0.00    +0.000 N 
ATOM     12  C   UNL     1       2.409  15.675  20.757  0.00  0.00    +0.000 C 
BRANCH   7  18
ATOM     13  C   UNL     1      -0.104  18.332  16.656  0.00  0.00    +0.000 C 
ATOM     14  C   UNL     1      -0.661  17.659  17.876  0.00  0.00    +0.000 A 
ATOM     15  C   UNL     1      -1.739  18.214  18.569  0.00  0.00    +0.000 A 
ATOM     16  C   UNL     1      -2.174  17.613  19.744  0.00  0.00    +0.000 A 
ATOM     17  C   UNL     1      -1.538  16.485  20.254  0.00  0.00    +0.000 A 
ATOM     18  C   UNL     1      -0.490  15.875  19.558  0.00  0.00    +0.000 A 
ATOM     19  C   UNL     1      -0.069  16.478  18.359  0.00  0.00    +0.000 A 
BRANCH  16  20
ATOM     20  O   UNL     1      -3.237  18.106  20.443  0.00  0.00    +0.000 OA
ATOM     21  H   UNL     1      -3.381  17.544  21.222  0.00  0.00    +0.000 HD
ENDBRANCH  16  20
ENDBRANCH   7  18
ENDBRANCH   1   8
BRANCH   5  22
ATOM     22  C   UNL     1      -4.921  12.532  20.934  0.00  0.00    +0.000 A 
ATOM     23  C   UNL     1      -6.245  12.313  20.530  0.00  0.00    +0.000 A 
ATOM     24  C   UNL     1      -7.291  12.376  21.452  0.00  0.00    +0.000 A 
ATOM     25  C   UNL     1      -6.993  12.656  22.774  0.00  0.00    +0.000 A 
ATOM     26  N   UNL     1      -5.742  12.864  23.222  0.00  0.00    +0.000 NA
ATOM     27  C   UNL     1      -4.746  12.798  22.297  0.00  0.00    +0.000 A 
ENDBRANCH   5  22
BRANCH   3  28
ATOM     28  N   UNL     1      -2.970  11.093  16.796  0.00  0.00    +0.000 N 
ATOM     29  C   UNL     1      -2.428   9.819  16.424  0.00  0.00    +0.000 C 
ATOM     30  C   UNL     1      -3.271   9.945  15.136  0.00  0.00    +0.000 C 
ATOM     31  C   UNL     1      -4.119  10.942  15.954  0.00  0.00    +0.000 C 
BRANCH  30  32
ATOM     32  O   UNL     1      -2.588  10.491  13.979  0.00  0.00    +0.000 OA
ATOM     33  H   UNL     1      -1.794   9.930  13.891  0.00  0.00    +0.000 HD
ENDBRANCH  30  32
ENDBRANCH   3  28
TORSDOF 6
ENDMDL
MODEL 9
REMARK VINA RESULT:      -7.5      8.013     11.956
REMARK  Name = 
REMARK  8 active torsions:
REMARK  status: ('A' for Active; 'I' for Inactive)
REMARK    1  A    between atoms: C_1  and  C_2
REMARK    2  A    between atoms: C_4  and  O_5
REMARK    3  A    between atoms: C_7  and  C_8
REMARK    4  A    between atoms: C_9  and  C_10
REMARK    5  A    between atoms: C_12  and  N_13
REMARK    6  A    between atoms: C_15  and  O_16
REMARK    7  A    between atoms: C_19  and  C_20
REMARK    8  A    between atoms: N_29  and  C_30
REMARK                            x       y       z     vdW  Elec       q    Type
REMARK                         _______ _______ _______ _____ _____    ______ ____
ROOT
ATOM      1  C   UNL     1      -1.792  13.204  20.469  0.00  0.00    +0.000 A 
ATOM      2  C   UNL     1      -0.991  12.405  21.248  0.00  0.00    +0.000 A 
ATOM      3  C   UNL     1      -0.645  11.174  20.734  0.00  0.00    +0.000 A 
ATOM      4  N   UNL     1      -1.119  10.747  19.548  0.00  0.00    +0.000 NA
ATOM      5  C   UNL     1      -1.941  11.574  18.872  0.00  0.00    +0.000 A 
ATOM      6  N   UNL     1      -2.265  12.809  19.280  0.00  0.00    +0.000 NA
ENDROOT
BRANCH   1   8
ATOM      7  C   UNL     1      -3.193  14.934  21.730  0.00  0.00    +0.000 A 
ATOM      8  C   UNL     1      -2.132  14.547  20.906  0.00  0.00    +0.000 A 
ATOM      9  C   UNL     1      -1.461  15.744  20.575  0.00  0.00    +0.000 A 
ATOM     10  N   UNL     1      -2.031  16.817  21.110  0.00  0.00    +0.000 NA
ATOM     11  N   UNL     1      -3.091  16.317  21.779  0.00  0.00    +0.000 N 
ATOM     12  C   UNL     1      -3.943  17.269  22.457  0.00  0.00    +0.000 C 
BRANCH   7  18
ATOM     13  C   UNL     1      -7.808  12.954  21.931  0.00  0.00    +0.000 C 
ATOM     14  C   UNL     1      -6.451  13.130  22.547  0.00  0.00    +0.000 A 
ATOM     15  C   UNL     1      -6.170  12.614  23.814  0.00  0.00    +0.000 A 
ATOM     16  C   UNL     1      -4.933  12.868  24.393  0.00  0.00    +0.000 A 
ATOM     17  C   UNL     1      -3.981  13.649  23.744  0.00  0.00    +0.000 A 
ATOM     18  C   UNL     1      -4.211  14.138  22.454  0.00  0.00    +0.000 A 
ATOM     19  C   UNL     1      -5.458  13.858  21.867  0.00  0.00    +0.000 A 
BRANCH  16  20
ATOM     20  O   UNL     1      -4.605  12.366  25.619  0.00  0.00    +0.000 OA
ATOM     21  H   UNL     1      -4.166  11.509  25.494  0.00  0.00    +0.000 HD
ENDBRANCH  16  20
ENDBRANCH   7  18
ENDBRANCH   1   8
BRANCH   5  22
ATOM     22  C   UNL     1      -2.577  11.094  17.637  0.00  0.00    +0.000 A 
ATOM     23  C   UNL     1      -1.998  10.128  16.803  0.00  0.00    +0.000 A 
ATOM     24  C   UNL     1      -2.655   9.701  15.648  0.00  0.00    +0.000 A 
ATOM     25  C   UNL     1      -3.889  10.249  15.346  0.00  0.00    +0.000 A 
ATOM     26  N   UNL     1      -4.497  11.170  16.114  0.00  0.00    +0.000 NA
ATOM     27  C   UNL     1      -3.830  11.567  17.231  0.00  0.00    +0.000 A 
ENDBRANCH   5  22
BRANCH   3  28
ATOM     28  N   UNL     1       0.180  10.325  21.487  0.00  0.00    +0.000 N 
ATOM     29  C   UNL     1      -0.070   9.824  22.805  0.00  0.00    +0.000 C 
ATOM     30  C   UNL     1       1.155   8.910  22.585  0.00  0.00    +0.000 C 
ATOM     31  C   UNL     1       0.889   9.148  21.085  0.00  0.00    +0.000 C 
BRANCH  30  32
ATOM     32  O   UNL     1       2.419   9.407  23.093  0.00  0.00    +0.000 OA
ATOM     33  H   UNL     1       2.448   9.076  24.012  0.00  0.00    +0.000 HD
ENDBRANCH  30  32
ENDBRANCH   3  28
TORSDOF 6
ENDMDL
