MODEL 1
REMARK VINA RESULT:      -7.3      0.000      0.000
REMARK  Name = 
REMARK  6 active torsions:
REMARK  status: ('A' for Active; 'I' for Inactive)
REMARK    1  A    between atoms: C_1  and  C_2
REMARK    2  A    between atoms: C_2  and  C_3
REMARK    3  A    between atoms: C_2  and  S_4
REMARK    4  A    between atoms: S_4  and  C_5
REMARK    5  A    between atoms: C_16  and  O_17
REMARK    6  A    between atoms: N_18  and  C_19
REMARK                            x       y       z     vdW  Elec       q    Type
REMARK                         _______ _______ _______ _____ _____    ______ ____
ROOT
ATOM      1  C   UNL     1       5.031   4.099  17.583  0.00  0.00    +0.000 A 
ATOM      2  N   UNL     1       4.896   3.772  16.321  0.00  0.00    +0.000 NA
ATOM      3  C   UNL     1       5.834   4.291  15.465  0.00  0.00    +0.000 A 
ATOM      4  C   UNL     1       6.035   4.063  14.168  0.00  0.00    +0.000 A 
ATOM      5  C   UNL     1       5.451   3.254  13.151  0.00  0.00    +0.000 A 
ATOM      6  C   UNL     1       5.992   3.282  11.921  0.00  0.00    +0.000 A 
ATOM      7  C   UNL     1       7.142   4.120  11.611  0.00  0.00    +0.000 A 
ATOM      8  C   UNL     1       7.734   4.918  12.517  0.00  0.00    +0.000 A 
ATOM      9  C   UNL     1       7.205   4.934  13.896  0.00  0.00    +0.000 A 
ATOM     10  N   UNL     1       7.662   5.620  14.904  0.00  0.00    +0.000 NA
ATOM     11  C   UNL     1       6.838   5.224  15.927  0.00  0.00    +0.000 A 
ATOM     12  C   UNL     1       6.915   5.532  17.227  0.00  0.00    +0.000 A 
ATOM     13  N   UNL     1       6.026   4.939  18.121  0.00  0.00    +0.000 N 
ATOM     14  C   UNL     1       6.165   5.179  19.555  0.00  0.00    +0.000 C 
ENDROOT
BRANCH  12  15
ATOM     15  O   UNL     1       7.883   6.402  17.683  0.00  0.00    +0.000 OA
ATOM     16  H   UNL     1       7.964   6.198  18.638  0.00  0.00    +0.000 HD
ENDBRANCH  12  15
BRANCH   1  17
ATOM     17  S   UNL     1       3.817   3.421  18.689  0.00  0.00    +0.000 S 
BRANCH  17  19
ATOM     18  C   UNL     1       1.036   3.365  18.606  0.00  0.00    +0.000 C 
ATOM     19  C   UNL     1       2.254   3.998  17.936  0.00  0.00    +0.000 C 
ATOM     20  C   UNL     1       2.182   5.520  18.080  0.00  0.00    +0.000 C 
ENDBRANCH  17  19
ENDBRANCH   1  17
TORSDOF 3
ENDMDL
MODEL 2
REMARK VINA RESULT:      -7.3      0.891      1.191
REMARK  Name = 
REMARK  6 active torsions:
REMARK  status: ('A' for Active; 'I' for Inactive)
REMARK    1  A    between atoms: C_1  and  C_2
REMARK    2  A    between atoms: C_2  and  C_3
REMARK    3  A    between atoms: C_2  and  S_4
REMARK    4  A    between atoms: S_4  and  C_5
REMARK    5  A    between atoms: C_16  and  O_17
REMARK    6  A    between atoms: N_18  and  C_19
REMARK                            x       y       z     vdW  Elec       q    Type
REMARK                         _______ _______ _______ _____ _____    ______ ____
ROOT
ATOM      1  C   UNL     1       4.625   4.566  17.508  0.00  0.00    +0.000 A 
ATOM      2  N   UNL     1       4.466   4.215  16.255  0.00  0.00    +0.000 NA
ATOM      3  C   UNL     1       5.521   4.485  15.420  0.00  0.00    +0.000 A 
ATOM      4  C   UNL     1       5.713   4.158  14.144  0.00  0.00    +0.000 A 
ATOM      5  C   UNL     1       5.006   3.443  13.135  0.00  0.00    +0.000 A 
ATOM      6  C   UNL     1       5.581   3.299  11.929  0.00  0.00    +0.000 A 
ATOM      7  C   UNL     1       6.892   3.862  11.636  0.00  0.00    +0.000 A 
ATOM      8  C   UNL     1       7.609   4.559  12.535  0.00  0.00    +0.000 A 
ATOM      9  C   UNL     1       7.049   4.751  13.889  0.00  0.00    +0.000 A 
ATOM     10  N   UNL     1       7.607   5.373  14.887  0.00  0.00    +0.000 NA
ATOM     11  C   UNL     1       6.683   5.207  15.889  0.00  0.00    +0.000 A 
ATOM     12  C   UNL     1       6.779   5.552  17.178  0.00  0.00    +0.000 A 
ATOM     13  N   UNL     1       5.755   5.202  18.055  0.00  0.00    +0.000 N 
ATOM     14  C   UNL     1       5.893   5.475  19.483  0.00  0.00    +0.000 C 
ENDROOT
BRANCH  12  15
ATOM     15  O   UNL     1       7.893   6.220  17.641  0.00  0.00    +0.000 OA
ATOM     16  H   UNL     1       8.439   6.369  16.841  0.00  0.00    +0.000 HD
ENDBRANCH  12  15
BRANCH   1  17
ATOM     17  S   UNL     1       3.258   4.210  18.587  0.00  0.00    +0.000 S 
BRANCH  17  19
ATOM     18  C   UNL     1       3.627   1.458  18.402  0.00  0.00    +0.000 C 
ATOM     19  C   UNL     1       2.696   2.586  17.963  0.00  0.00    +0.000 C 
ATOM     20  C   UNL     1       1.287   2.323  18.500  0.00  0.00    +0.000 C 
ENDBRANCH  17  19
ENDBRANCH   1  17
TORSDOF 3
ENDMDL
MODEL 3
REMARK VINA RESULT:      -6.9      3.382      6.810
REMARK  Name = 
REMARK  6 active torsions:
REMARK  status: ('A' for Active; 'I' for Inactive)
REMARK    1  A    between atoms: C_1  and  C_2
REMARK    2  A    between atoms: C_2  and  C_3
REMARK    3  A    between atoms: C_2  and  S_4
REMARK    4  A    between atoms: S_4  and  C_5
REMARK    5  A    between atoms: C_16  and  O_17
REMARK    6  A    between atoms: N_18  and  C_19
REMARK                            x       y       z     vdW  Elec       q    Type
REMARK                         _______ _______ _______ _____ _____    ______ ____
ROOT
ATOM      1  C   UNL     1       3.713   4.562  18.183  0.00  0.00    +0.000 A 
ATOM      2  N   UNL     1       3.321   5.748  17.788  0.00  0.00    +0.000 NA
ATOM      3  C   UNL     1       2.632   6.490  18.714  0.00  0.00    +0.000 A 
ATOM      4  C   UNL     1       2.205   7.750  18.662  0.00  0.00    +0.000 A 
ATOM      5  C   UNL     1       2.256   8.828  17.732  0.00  0.00    +0.000 A 
ATOM      6  C   UNL     1       1.712  10.005  18.086  0.00  0.00    +0.000 A 
ATOM      7  C   UNL     1       1.073  10.193  19.381  0.00  0.00    +0.000 A 
ATOM      8  C   UNL     1       0.977   9.216  20.300  0.00  0.00    +0.000 A 
ATOM      9  C   UNL     1       1.561   7.896  19.991  0.00  0.00    +0.000 A 
ATOM     10  N   UNL     1       1.584   6.848  20.763  0.00  0.00    +0.000 NA
ATOM     11  C   UNL     1       2.277   5.938  20.004  0.00  0.00    +0.000 A 
ATOM     12  C   UNL     1       2.693   4.713  20.343  0.00  0.00    +0.000 A 
ATOM     13  N   UNL     1       3.473   3.986  19.446  0.00  0.00    +0.000 N 
ATOM     14  C   UNL     1       4.026   2.693  19.842  0.00  0.00    +0.000 C 
ENDROOT
BRANCH  12  15
ATOM     15  O   UNL     1       2.380   4.186  21.578  0.00  0.00    +0.000 OA
ATOM     16  H   UNL     1       3.230   4.188  22.066  0.00  0.00    +0.000 HD
ENDBRANCH  12  15
BRANCH   1  17
ATOM     17  S   UNL     1       4.610   3.606  16.983  0.00  0.00    +0.000 S 
BRANCH  17  19
ATOM     18  C   UNL     1       7.206   4.603  16.896  0.00  0.00    +0.000 C 
ATOM     19  C   UNL     1       5.803   4.833  16.339  0.00  0.00    +0.000 C 
ATOM     20  C   UNL     1       5.836   4.719  14.813  0.00  0.00    +0.000 C 
ENDBRANCH  17  19
ENDBRANCH   1  17
TORSDOF 3
ENDMDL
MODEL 4
REMARK VINA RESULT:      -6.8      1.924      5.987
REMARK  Name = 
REMARK  6 active torsions:
REMARK  status: ('A' for Active; 'I' for Inactive)
REMARK    1  A    between atoms: C_1  and  C_2
REMARK    2  A    between atoms: C_2  and  C_3
REMARK    3  A    between atoms: C_2  and  S_4
REMARK    4  A    between atoms: S_4  and  C_5
REMARK    5  A    between atoms: C_16  and  O_17
REMARK    6  A    between atoms: N_18  and  C_19
REMARK                            x       y       z     vdW  Elec       q    Type
REMARK                         _______ _______ _______ _____ _____    ______ ____
ROOT
ATOM      1  C   UNL     1       5.256   5.409  16.679  0.00  0.00    +0.000 A 
ATOM      2  N   UNL     1       4.139   4.753  16.878  0.00  0.00    +0.000 NA
ATOM      3  C   UNL     1       3.913   4.335  18.165  0.00  0.00    +0.000 A 
ATOM      4  C   UNL     1       2.843   3.754  18.705  0.00  0.00    +0.000 A 
ATOM      5  C   UNL     1       1.552   3.339  18.268  0.00  0.00    +0.000 A 
ATOM      6  C   UNL     1       0.713   2.801  19.169  0.00  0.00    +0.000 A 
ATOM      7  C   UNL     1       1.096   2.629  20.563  0.00  0.00    +0.000 A 
ATOM      8  C   UNL     1       2.301   2.986  21.041  0.00  0.00    +0.000 A 
ATOM      9  C   UNL     1       3.277   3.596  20.115  0.00  0.00    +0.000 A 
ATOM     10  N   UNL     1       4.473   4.021  20.404  0.00  0.00    +0.000 NA
ATOM     11  C   UNL     1       4.905   4.522  19.201  0.00  0.00    +0.000 A 
ATOM     12  C   UNL     1       6.034   5.186  18.931  0.00  0.00    +0.000 A 
ATOM     13  N   UNL     1       6.235   5.698  17.650  0.00  0.00    +0.000 N 
ATOM     14  C   UNL     1       7.409   6.517  17.368  0.00  0.00    +0.000 C 
ENDROOT
BRANCH  12  15
ATOM     15  O   UNL     1       6.976   5.392  19.917  0.00  0.00    +0.000 OA
ATOM     16  H   UNL     1       6.534   5.985  20.558  0.00  0.00    +0.000 HD
ENDBRANCH  12  15
BRANCH   1  17
ATOM     17  S   UNL     1       5.544   5.953  15.012  0.00  0.00    +0.000 S 
BRANCH  17  19
ATOM     18  C   UNL     1       5.699   3.679  13.416  0.00  0.00    +0.000 C 
ATOM     19  C   UNL     1       6.533   4.575  14.329  0.00  0.00    +0.000 C 
ATOM     20  C   UNL     1       7.701   5.165  13.536  0.00  0.00    +0.000 C 
ENDBRANCH  17  19
ENDBRANCH   1  17
TORSDOF 3
ENDMDL
MODEL 5
REMARK VINA RESULT:      -6.7      5.002      8.674
REMARK  Name = 
REMARK  6 active torsions:
REMARK  status: ('A' for Active; 'I' for Inactive)
REMARK    1  A    between atoms: C_1  and  C_2
REMARK    2  A    between atoms: C_2  and  C_3
REMARK    3  A    between atoms: C_2  and  S_4
REMARK    4  A    between atoms: S_4  and  C_5
REMARK    5  A    between atoms: C_16  and  O_17
REMARK    6  A    between atoms: N_18  and  C_19
REMARK                            x       y       z     vdW  Elec       q    Type
REMARK                         _______ _______ _______ _____ _____    ______ ____
ROOT
ATOM      1  C   UNL     1       2.237   6.437  20.032  0.00  0.00    +0.000 A 
ATOM      2  N   UNL     1       1.634   7.060  21.015  0.00  0.00    +0.000 NA
ATOM      3  C   UNL     1       1.198   8.331  20.740  0.00  0.00    +0.000 A 
ATOM      4  C   UNL     1       0.468   9.168  21.474  0.00  0.00    +0.000 A 
ATOM      5  C   UNL     1      -0.157   9.155  22.754  0.00  0.00    +0.000 A 
ATOM      6  C   UNL     1      -0.865  10.233  23.133  0.00  0.00    +0.000 A 
ATOM      7  C   UNL     1      -0.994  11.402  22.274  0.00  0.00    +0.000 A 
ATOM      8  C   UNL     1      -0.419  11.488  21.062  0.00  0.00    +0.000 A 
ATOM      9  C   UNL     1       0.365  10.338  20.568  0.00  0.00    +0.000 A 
ATOM     10  N   UNL     1       0.968  10.235  19.419  0.00  0.00    +0.000 NA
ATOM     11  C   UNL     1       1.489   8.966  19.473  0.00  0.00    +0.000 A 
ATOM     12  C   UNL     1       2.122   8.283  18.514  0.00  0.00    +0.000 A 
ATOM     13  N   UNL     1       2.488   6.959  18.748  0.00  0.00    +0.000 N 
ATOM     14  C   UNL     1       3.082   6.165  17.676  0.00  0.00    +0.000 C 
ENDROOT
BRANCH  12  15
ATOM     15  O   UNL     1       2.383   8.870  17.294  0.00  0.00    +0.000 OA
ATOM     16  H   UNL     1       2.045   8.228  16.636  0.00  0.00    +0.000 HD
ENDBRANCH  12  15
BRANCH   1  17
ATOM     17  S   UNL     1       2.795   4.788  20.391  0.00  0.00    +0.000 S 
BRANCH  17  19
ATOM     18  C   UNL     1       0.911   3.196  19.103  0.00  0.00    +0.000 C 
ATOM     19  C   UNL     1       1.222   3.858  20.444  0.00  0.00    +0.000 C 
ATOM     20  C   UNL     1       1.331   2.785  21.529  0.00  0.00    +0.000 C 
ENDBRANCH  17  19
ENDBRANCH   1  17
TORSDOF 3
ENDMDL
MODEL 6
REMARK VINA RESULT:      -6.5      1.261      1.381
REMARK  Name = 
REMARK  6 active torsions:
REMARK  status: ('A' for Active; 'I' for Inactive)
REMARK    1  A    between atoms: C_1  and  C_2
REMARK    2  A    between atoms: C_2  and  C_3
REMARK    3  A    between atoms: C_2  and  S_4
REMARK    4  A    between atoms: S_4  and  C_5
REMARK    5  A    between atoms: C_16  and  O_17
REMARK    6  A    between atoms: N_18  and  C_19
REMARK                            x       y       z     vdW  Elec       q    Type
REMARK                         _______ _______ _______ _____ _____    ______ ____
ROOT
ATOM      1  C   UNL     1       4.035   3.181  17.686  0.00  0.00    +0.000 A 
ATOM      2  N   UNL     1       4.206   3.249  16.389  0.00  0.00    +0.000 NA
ATOM      3  C   UNL     1       5.326   3.921  15.968  0.00  0.00    +0.000 A 
ATOM      4  C   UNL     1       5.833   4.067  14.745  0.00  0.00    +0.000 A 
ATOM      5  C   UNL     1       5.507   3.641  13.426  0.00  0.00    +0.000 A 
ATOM      6  C   UNL     1       6.328   3.986  12.419  0.00  0.00    +0.000 A 
ATOM      7  C   UNL     1       7.524   4.784  12.649  0.00  0.00    +0.000 A 
ATOM      8  C   UNL     1       7.885   5.232  13.865  0.00  0.00    +0.000 A 
ATOM      9  C   UNL     1       7.040   4.885  15.025  0.00  0.00    +0.000 A 
ATOM     10  N   UNL     1       7.244   5.207  16.269  0.00  0.00    +0.000 NA
ATOM     11  C   UNL     1       6.195   4.595  16.908  0.00  0.00    +0.000 A 
ATOM     12  C   UNL     1       5.958   4.501  18.221  0.00  0.00    +0.000 A 
ATOM     13  N   UNL     1       4.876   3.744  18.666  0.00  0.00    +0.000 N 
ATOM     14  C   UNL     1       4.666   3.541  20.097  0.00  0.00    +0.000 C 
ENDROOT
BRANCH  12  15
ATOM     15  O   UNL     1       6.792   5.120  19.128  0.00  0.00    +0.000 OA
ATOM     16  H   UNL     1       7.672   4.723  18.961  0.00  0.00    +0.000 HD
ENDBRANCH  12  15
BRANCH   1  17
ATOM     17  S   UNL     1       2.586   2.306  18.227  0.00  0.00    +0.000 S 
BRANCH  17  19
ATOM     18  C   UNL     1       1.019   3.853  19.929  0.00  0.00    +0.000 C 
ATOM     19  C   UNL     1       1.387   3.667  18.458  0.00  0.00    +0.000 C 
ATOM     20  C   UNL     1       2.011   4.957  17.921  0.00  0.00    +0.000 C 
ENDBRANCH  17  19
ENDBRANCH   1  17
TORSDOF 3
ENDMDL
MODEL 7
REMARK VINA RESULT:      -6.4      2.694      6.293
REMARK  Name = 
REMARK  6 active torsions:
REMARK  status: ('A' for Active; 'I' for Inactive)
REMARK    1  A    between atoms: C_1  and  C_2
REMARK    2  A    between atoms: C_2  and  C_3
REMARK    3  A    between atoms: C_2  and  S_4
REMARK    4  A    between atoms: S_4  and  C_5
REMARK    5  A    between atoms: C_16  and  O_17
REMARK    6  A    between atoms: N_18  and  C_19
REMARK                            x       y       z     vdW  Elec       q    Type
REMARK                         _______ _______ _______ _____ _____    ______ ____
ROOT
ATOM      1  C   UNL     1       5.483   5.976  17.173  0.00  0.00    +0.000 A 
ATOM      2  N   UNL     1       4.497   5.939  18.036  0.00  0.00    +0.000 NA
ATOM      3  C   UNL     1       3.889   4.719  18.196  0.00  0.00    +0.000 A 
ATOM      4  C   UNL     1       2.951   4.332  19.059  0.00  0.00    +0.000 A 
ATOM      5  C   UNL     1       2.210   4.921  20.123  0.00  0.00    +0.000 A 
ATOM      6  C   UNL     1       1.343   4.151  20.803  0.00  0.00    +0.000 A 
ATOM      7  C   UNL     1       1.144   2.747  20.469  0.00  0.00    +0.000 A 
ATOM      8  C   UNL     1       1.799   2.131  19.469  0.00  0.00    +0.000 A 
ATOM      9  C   UNL     1       2.778   2.907  18.682  0.00  0.00    +0.000 A 
ATOM     10  N   UNL     1       3.516   2.474  17.701  0.00  0.00    +0.000 NA
ATOM     11  C   UNL     1       4.256   3.584  17.378  0.00  0.00    +0.000 A 
ATOM     12  C   UNL     1       5.261   3.690  16.502  0.00  0.00    +0.000 A 
ATOM     13  N   UNL     1       5.949   4.898  16.397  0.00  0.00    +0.000 N 
ATOM     14  C   UNL     1       7.116   4.999  15.526  0.00  0.00    +0.000 C 
ENDROOT
BRANCH  12  15
ATOM     15  O   UNL     1       5.636   2.608  15.734  0.00  0.00    +0.000 OA
ATOM     16  H   UNL     1       6.230   2.986  15.053  0.00  0.00    +0.000 HD
ENDBRANCH  12  15
BRANCH   1  17
ATOM     17  S   UNL     1       6.271   7.556  16.972  0.00  0.00    +0.000 S 
BRANCH  17  19
ATOM     18  C   UNL     1       8.442   8.584  18.377  0.00  0.00    +0.000 C 
ATOM     19  C   UNL     1       7.877   7.286  17.803  0.00  0.00    +0.000 C 
ATOM     20  C   UNL     1       7.673   6.274  18.932  0.00  0.00    +0.000 C 
ENDBRANCH  17  19
ENDBRANCH   1  17
TORSDOF 3
ENDMDL
MODEL 8
REMARK VINA RESULT:      -6.4      3.466      6.596
REMARK  Name = 
REMARK  6 active torsions:
REMARK  status: ('A' for Active; 'I' for Inactive)
REMARK    1  A    between atoms: C_1  and  C_2
REMARK    2  A    between atoms: C_2  and  C_3
REMARK    3  A    between atoms: C_2  and  S_4
REMARK    4  A    between atoms: S_4  and  C_5
REMARK    5  A    between atoms: C_16  and  O_17
REMARK    6  A    between atoms: N_18  and  C_19
REMARK                            x       y       z     vdW  Elec       q    Type
REMARK                         _______ _______ _______ _____ _____    ______ ____
ROOT
ATOM      1  C   UNL     1       3.503   4.601  19.290  0.00  0.00    +0.000 A 
ATOM      2  N   UNL     1       2.796   5.423  20.026  0.00  0.00    +0.000 NA
ATOM      3  C   UNL     1       2.572   6.665  19.488  0.00  0.00    +0.000 A 
ATOM      4  C   UNL     1       1.813   7.668  19.926  0.00  0.00    +0.000 A 
ATOM      5  C   UNL     1       0.953   7.915  21.034  0.00  0.00    +0.000 A 
ATOM      6  C   UNL     1       0.314   9.096  21.099  0.00  0.00    +0.000 A 
ATOM      7  C   UNL     1       0.490  10.116  20.075  0.00  0.00    +0.000 A 
ATOM      8  C   UNL     1       1.296   9.956  19.011  0.00  0.00    +0.000 A 
ATOM      9  C   UNL     1       2.025   8.680  18.862  0.00  0.00    +0.000 A 
ATOM     10  N   UNL     1       2.824   8.342  17.892  0.00  0.00    +0.000 NA
ATOM     11  C   UNL     1       3.175   7.060  18.233  0.00  0.00    +0.000 A 
ATOM     12  C   UNL     1       3.901   6.179  17.536  0.00  0.00    +0.000 A 
ATOM     13  N   UNL     1       4.059   4.885  18.027  0.00  0.00    +0.000 N 
ATOM     14  C   UNL     1       4.755   3.881  17.228  0.00  0.00    +0.000 C 
ENDROOT
BRANCH  12  15
ATOM     15  O   UNL     1       4.461   6.537  16.328  0.00  0.00    +0.000 OA
ATOM     16  H   UNL     1       3.757   7.044  15.873  0.00  0.00    +0.000 HD
ENDBRANCH  12  15
BRANCH   1  17
ATOM     17  S   UNL     1       3.788   2.992  19.989  0.00  0.00    +0.000 S 
BRANCH  17  19
ATOM     18  C   UNL     1       1.262   2.806  21.142  0.00  0.00    +0.000 C 
ATOM     19  C   UNL     1       2.106   2.275  19.985  0.00  0.00    +0.000 C 
ATOM     20  C   UNL     1       1.432   2.629  18.658  0.00  0.00    +0.000 C 
ENDBRANCH  17  19
ENDBRANCH   1  17
TORSDOF 3
ENDMDL
MODEL 9
REMARK VINA RESULT:      -6.4      2.775      6.211
REMARK  Name = 
REMARK  6 active torsions:
REMARK  status: ('A' for Active; 'I' for Inactive)
REMARK    1  A    between atoms: C_1  and  C_2
REMARK    2  A    between atoms: C_2  and  C_3
REMARK    3  A    between atoms: C_2  and  S_4
REMARK    4  A    between atoms: S_4  and  C_5
REMARK    5  A    between atoms: C_16  and  O_17
REMARK    6  A    between atoms: N_18  and  C_19
REMARK                            x       y       z     vdW  Elec       q    Type
REMARK                         _______ _______ _______ _____ _____    ______ ____
ROOT
ATOM      1  C   UNL     1       6.301   5.155  18.271  0.00  0.00    +0.000 A 
ATOM      2  N   UNL     1       5.316   5.089  19.133  0.00  0.00    +0.000 NA
ATOM      3  C   UNL     1       4.193   4.427  18.707  0.00  0.00    +0.000 A 
ATOM      4  C   UNL     1       3.086   4.097  19.370  0.00  0.00    +0.000 A 
ATOM      5  C   UNL     1       2.584   4.242  20.695  0.00  0.00    +0.000 A 
ATOM      6  C   UNL     1       1.382   3.716  20.987  0.00  0.00    +0.000 A 
ATOM      7  C   UNL     1       0.590   3.019  19.983  0.00  0.00    +0.000 A 
ATOM      8  C   UNL     1       0.995   2.858  18.711  0.00  0.00    +0.000 A 
ATOM      9  C   UNL     1       2.311   3.397  18.315  0.00  0.00    +0.000 A 
ATOM     10  N   UNL     1       2.873   3.315  17.144  0.00  0.00    +0.000 NA
ATOM     11  C   UNL     1       4.080   3.932  17.352  0.00  0.00    +0.000 A 
ATOM     12  C   UNL     1       5.116   4.045  16.513  0.00  0.00    +0.000 A 
ATOM     13  N   UNL     1       6.297   4.632  16.963  0.00  0.00    +0.000 N 
ATOM     14  C   UNL     1       7.471   4.665  16.096  0.00  0.00    +0.000 C 
ENDROOT
BRANCH  12  15
ATOM     15  O   UNL     1       5.029   3.556  15.227  0.00  0.00    +0.000 OA
ATOM     16  H   UNL     1       4.685   2.645  15.334  0.00  0.00    +0.000 HD
ENDBRANCH  12  15
BRANCH   1  17
ATOM     17  S   UNL     1       7.757   6.009  18.827  0.00  0.00    +0.000 S 
BRANCH  17  19
ATOM     18  C   UNL     1       6.356   7.920  17.368  0.00  0.00    +0.000 C 
ATOM     19  C   UNL     1       7.770   7.481  17.743  0.00  0.00    +0.000 C 
ATOM     20  C   UNL     1       8.478   8.619  18.481  0.00  0.00    +0.000 C 
ENDBRANCH  17  19
ENDBRANCH   1  17
TORSDOF 3
ENDMDL
