MODEL 1
REMARK VINA RESULT:      -8.0      0.000      0.000
REMARK  Name = 
REMARK  6 active torsions:
REMARK  status: ('A' for Active; 'I' for Inactive)
REMARK    1  A    between atoms: C_1  and  C_2
REMARK    2  A    between atoms: C_7  and  C_8
REMARK    3  A    between atoms: C_16  and  C_17
REMARK    4  A    between atoms: C_21  and  N_22
REMARK    5  A    between atoms: C_26  and  C_27
REMARK    6  A    between atoms: C_27  and  O_28
REMARK                            x       y       z     vdW  Elec       q    Type
REMARK                         _______ _______ _______ _____ _____    ______ ____
ROOT
ATOM      1  C   UNL     1       6.524   6.795  15.863  0.00  0.00    +0.000 C 
ATOM      2  C   UNL     1       5.351   6.173  16.570  0.00  0.00    +0.000 A 
ATOM      3  C   UNL     1       4.516   7.001  17.344  0.00  0.00    +0.000 A 
ATOM      4  C   UNL     1       3.418   6.507  18.061  0.00  0.00    +0.000 A 
ATOM      5  C   UNL     1       3.129   5.131  17.965  0.00  0.00    +0.000 A 
ATOM      6  C   UNL     1       3.924   4.307  17.157  0.00  0.00    +0.000 A 
ATOM      7  C   UNL     1       5.061   4.800  16.485  0.00  0.00    +0.000 A 
ATOM      8  N   UNL     1       2.078   4.485  18.647  0.00  0.00    +0.000 N 
ATOM      9  C   UNL     1       1.560   4.837  19.861  0.00  0.00    +0.000 C 
ATOM     10  O   UNL     1       0.626   4.205  20.356  0.00  0.00    +0.000 OA
ATOM     11  C   UNL     1       2.238   5.952  20.595  0.00  0.00    +0.000 C 
ATOM     12  C   UNL     1       2.060   7.244  19.853  0.00  0.00    +0.000 C 
ATOM     13  N   UNL     1       2.628   7.478  18.711  0.00  0.00    +0.000 NA
ATOM     14  H   UNL     1       1.737   3.598  18.300  0.00  0.00    +0.000 HD
ENDROOT
BRANCH  12  15
ATOM     15  C   UNL     1       1.179   8.285  20.459  0.00  0.00    +0.000 A 
ATOM     16  C   UNL     1       0.528   8.039  21.675  0.00  0.00    +0.000 A 
ATOM     17  C   UNL     1      -0.283   9.013  22.245  0.00  0.00    +0.000 A 
ATOM     18  C   UNL     1      -0.458  10.236  21.604  0.00  0.00    +0.000 A 
ATOM     19  C   UNL     1       0.180  10.494  20.383  0.00  0.00    +0.000 A 
ATOM     20  C   UNL     1       0.985   9.507  19.797  0.00  0.00    +0.000 A 
BRANCH  19  21
ATOM     21  N   UNL     1      -0.018  11.730  19.715  0.00  0.00    +0.000 N 
ATOM     22  N   UNL     1       0.632  12.847  20.128  0.00  0.00    +0.000 NA
ATOM     23  N   UNL     1       0.444  13.802  19.228  0.00  0.00    +0.000 NA
ATOM     24  C   UNL     1      -0.436  13.336  18.305  0.00  0.00    +0.000 A 
ATOM     25  C   UNL     1      -0.807  12.044  18.619  0.00  0.00    +0.000 A 
BRANCH  25  26
ATOM     26  C   UNL     1      -1.885  11.206  18.066  0.00  0.00    +0.000 C 
BRANCH  26  27
ATOM     27  O   UNL     1      -1.304  10.312  17.132  0.00  0.00    +0.000 OA
ATOM     28  H   UNL     1      -1.476  10.662  16.243  0.00  0.00    +0.000 HD
ENDBRANCH  26  27
ENDBRANCH  25  26
ENDBRANCH  19  21
ENDBRANCH  12  15
BRANCH   7  29
ATOM     29  C   UNL     1       5.912   3.790  15.743  0.00  0.00    +0.000 C 
ATOM     30  F   UNL     1       5.607   2.486  15.974  0.00  0.00    +0.000 F 
ATOM     31  F   UNL     1       5.821   3.951  14.391  0.00  0.00    +0.000 F 
ATOM     32  F   UNL     1       7.238   3.918  16.038  0.00  0.00    +0.000 F 
ENDBRANCH   7  29
TORSDOF 5
ENDMDL
MODEL 2
REMARK VINA RESULT:      -7.9      4.780      8.454
REMARK  Name = 
REMARK  6 active torsions:
REMARK  status: ('A' for Active; 'I' for Inactive)
REMARK    1  A    between atoms: C_1  and  C_2
REMARK    2  A    between atoms: C_7  and  C_8
REMARK    3  A    between atoms: C_16  and  C_17
REMARK    4  A    between atoms: C_21  and  N_22
REMARK    5  A    between atoms: C_26  and  C_27
REMARK    6  A    between atoms: C_27  and  O_28
REMARK                            x       y       z     vdW  Elec       q    Type
REMARK                         _______ _______ _______ _____ _____    ______ ____
ROOT
ATOM      1  C   UNL     1       0.967  11.121  18.294  0.00  0.00    +0.000 C 
ATOM      2  C   UNL     1       1.231   9.866  19.081  0.00  0.00    +0.000 A 
ATOM      3  C   UNL     1       1.894   8.800  18.442  0.00  0.00    +0.000 A 
ATOM      4  C   UNL     1       2.158   7.583  19.084  0.00  0.00    +0.000 A 
ATOM      5  C   UNL     1       1.772   7.447  20.432  0.00  0.00    +0.000 A 
ATOM      6  C   UNL     1       1.157   8.520  21.092  0.00  0.00    +0.000 A 
ATOM      7  C   UNL     1       0.842   9.721  20.423  0.00  0.00    +0.000 A 
ATOM      8  N   UNL     1       1.945   6.278  21.200  0.00  0.00    +0.000 N 
ATOM      9  C   UNL     1       1.943   4.993  20.737  0.00  0.00    +0.000 C 
ATOM     10  O   UNL     1       2.120   4.046  21.502  0.00  0.00    +0.000 OA
ATOM     11  C   UNL     1       1.620   4.792  19.288  0.00  0.00    +0.000 C 
ATOM     12  C   UNL     1       2.703   5.375  18.430  0.00  0.00    +0.000 C 
ATOM     13  N   UNL     1       2.911   6.652  18.339  0.00  0.00    +0.000 NA
ATOM     14  H   UNL     1       1.944   6.347  22.210  0.00  0.00    +0.000 HD
ENDROOT
BRANCH  12  15
ATOM     15  C   UNL     1       3.578   4.435  17.670  0.00  0.00    +0.000 A 
ATOM     16  C   UNL     1       3.522   3.058  17.921  0.00  0.00    +0.000 A 
ATOM     17  C   UNL     1       4.329   2.181  17.206  0.00  0.00    +0.000 A 
ATOM     18  C   UNL     1       5.202   2.671  16.239  0.00  0.00    +0.000 A 
ATOM     19  C   UNL     1       5.275   4.047  15.981  0.00  0.00    +0.000 A 
ATOM     20  C   UNL     1       4.475   4.934  16.714  0.00  0.00    +0.000 A 
BRANCH  19  21
ATOM     21  N   UNL     1       6.183   4.550  15.013  0.00  0.00    +0.000 N 
ATOM     22  N   UNL     1       7.116   5.472  15.359  0.00  0.00    +0.000 NA
ATOM     23  N   UNL     1       7.960   5.618  14.348  0.00  0.00    +0.000 NA
ATOM     24  C   UNL     1       7.491   4.887  13.305  0.00  0.00    +0.000 A 
ATOM     25  C   UNL     1       6.322   4.247  13.667  0.00  0.00    +0.000 A 
BRANCH  25  26
ATOM     26  C   UNL     1       5.334   3.535  12.838  0.00  0.00    +0.000 C 
BRANCH  26  27
ATOM     27  O   UNL     1       6.010   2.493  12.156  0.00  0.00    +0.000 OA
ATOM     28  H   UNL     1       6.553   2.899  11.461  0.00  0.00    +0.000 HD
ENDBRANCH  26  27
ENDBRANCH  25  26
ENDBRANCH  19  21
ENDBRANCH  12  15
BRANCH   7  29
ATOM     29  C   UNL     1       0.067  10.760  21.207  0.00  0.00    +0.000 C 
ATOM     30  F   UNL     1       0.665  11.976  21.318  0.00  0.00    +0.000 F 
ATOM     31  F   UNL     1      -1.153  11.005  20.647  0.00  0.00    +0.000 F 
ATOM     32  F   UNL     1      -0.191  10.356  22.483  0.00  0.00    +0.000 F 
ENDBRANCH   7  29
TORSDOF 5
ENDMDL
MODEL 3
REMARK VINA RESULT:      -7.9      2.614      3.762
REMARK  Name = 
REMARK  6 active torsions:
REMARK  status: ('A' for Active; 'I' for Inactive)
REMARK    1  A    between atoms: C_1  and  C_2
REMARK    2  A    between atoms: C_7  and  C_8
REMARK    3  A    between atoms: C_16  and  C_17
REMARK    4  A    between atoms: C_21  and  N_22
REMARK    5  A    between atoms: C_26  and  C_27
REMARK    6  A    between atoms: C_27  and  O_28
REMARK                            x       y       z     vdW  Elec       q    Type
REMARK                         _______ _______ _______ _____ _____    ______ ____
ROOT
ATOM      1  C   UNL     1       1.930   3.252  21.040  0.00  0.00    +0.000 C 
ATOM      2  C   UNL     1       2.186   4.539  20.304  0.00  0.00    +0.000 A 
ATOM      3  C   UNL     1       1.643   5.730  20.825  0.00  0.00    +0.000 A 
ATOM      4  C   UNL     1       1.803   6.971  20.193  0.00  0.00    +0.000 A 
ATOM      5  C   UNL     1       2.571   7.020  19.013  0.00  0.00    +0.000 A 
ATOM      6  C   UNL     1       3.158   5.849  18.514  0.00  0.00    +0.000 A 
ATOM      7  C   UNL     1       2.944   4.594  19.122  0.00  0.00    +0.000 A 
ATOM      8  N   UNL     1       2.797   8.186  18.255  0.00  0.00    +0.000 N 
ATOM      9  C   UNL     1       1.952   9.252  18.131  0.00  0.00    +0.000 C 
ATOM     10  O   UNL     1       2.264  10.229  17.450  0.00  0.00    +0.000 OA
ATOM     11  C   UNL     1       0.605   9.134  18.776  0.00  0.00    +0.000 C 
ATOM     12  C   UNL     1       0.749   9.088  20.269  0.00  0.00    +0.000 C 
ATOM     13  N   UNL     1       1.278   8.080  20.890  0.00  0.00    +0.000 NA
ATOM     14  H   UNL     1       3.589   8.218  17.625  0.00  0.00    +0.000 HD
ENDROOT
BRANCH  12  15
ATOM     15  C   UNL     1       0.274  10.264  21.055  0.00  0.00    +0.000 A 
ATOM     16  C   UNL     1      -0.680  10.098  22.068  0.00  0.00    +0.000 A 
ATOM     17  C   UNL     1      -1.114  11.191  22.808  0.00  0.00    +0.000 A 
ATOM     18  C   UNL     1      -0.607  12.460  22.539  0.00  0.00    +0.000 A 
ATOM     19  C   UNL     1       0.342  12.643  21.523  0.00  0.00    +0.000 A 
ATOM     20  C   UNL     1       0.768  11.545  20.764  0.00  0.00    +0.000 A 
BRANCH  19  21
ATOM     21  N   UNL     1       0.841  13.939  21.231  0.00  0.00    +0.000 N 
ATOM     22  N   UNL     1       1.866  14.460  21.950  0.00  0.00    +0.000 NA
ATOM     23  N   UNL     1       2.277  15.571  21.355  0.00  0.00    +0.000 NA
ATOM     24  C   UNL     1       1.427  15.832  20.329  0.00  0.00    +0.000 A 
ATOM     25  C   UNL     1       0.457  14.852  20.261  0.00  0.00    +0.000 A 
BRANCH  25  26
ATOM     26  C   UNL     1      -0.793  14.807  19.482  0.00  0.00    +0.000 C 
BRANCH  26  27
ATOM     27  O   UNL     1      -0.563  14.001  18.339  0.00  0.00    +0.000 OA
ATOM     28  H   UNL     1      -1.416  13.873  17.892  0.00  0.00    +0.000 HD
ENDBRANCH  26  27
ENDBRANCH  25  26
ENDBRANCH  19  21
ENDBRANCH  12  15
BRANCH   7  29
ATOM     29  C   UNL     1       3.527   3.385  18.422  0.00  0.00    +0.000 C 
ATOM     30  F   UNL     1       2.630   2.435  18.049  0.00  0.00    +0.000 F 
ATOM     31  F   UNL     1       4.184   3.734  17.278  0.00  0.00    +0.000 F 
ATOM     32  F   UNL     1       4.451   2.740  19.191  0.00  0.00    +0.000 F 
ENDBRANCH   7  29
TORSDOF 5
ENDMDL
MODEL 4
REMARK VINA RESULT:      -7.9      2.407      3.549
REMARK  Name = 
REMARK  6 active torsions:
REMARK  status: ('A' for Active; 'I' for Inactive)
REMARK    1  A    between atoms: C_1  and  C_2
REMARK    2  A    between atoms: C_7  and  C_8
REMARK    3  A    between atoms: C_16  and  C_17
REMARK    4  A    between atoms: C_21  and  N_22
REMARK    5  A    between atoms: C_26  and  C_27
REMARK    6  A    between atoms: C_27  and  O_28
REMARK                            x       y       z     vdW  Elec       q    Type
REMARK                         _______ _______ _______ _____ _____    ______ ____
ROOT
ATOM      1  C   UNL     1       5.255   6.081  16.374  0.00  0.00    +0.000 C 
ATOM      2  C   UNL     1       4.262   6.300  17.483  0.00  0.00    +0.000 A 
ATOM      3  C   UNL     1       3.474   7.467  17.459  0.00  0.00    +0.000 A 
ATOM      4  C   UNL     1       2.546   7.770  18.464  0.00  0.00    +0.000 A 
ATOM      5  C   UNL     1       2.378   6.845  19.513  0.00  0.00    +0.000 A 
ATOM      6  C   UNL     1       3.121   5.656  19.519  0.00  0.00    +0.000 A 
ATOM      7  C   UNL     1       4.096   5.385  18.537  0.00  0.00    +0.000 A 
ATOM      8  N   UNL     1       1.505   7.023  20.605  0.00  0.00    +0.000 N 
ATOM      9  C   UNL     1       1.138   8.212  21.167  0.00  0.00    +0.000 C 
ATOM     10  O   UNL     1       0.352   8.248  22.113  0.00  0.00    +0.000 OA
ATOM     11  C   UNL     1       1.807   9.448  20.646  0.00  0.00    +0.000 C 
ATOM     12  C   UNL     1       1.400   9.696  19.224  0.00  0.00    +0.000 C 
ATOM     13  N   UNL     1       1.770   8.927  18.247  0.00  0.00    +0.000 NA
ATOM     14  H   UNL     1       1.203   6.213  21.132  0.00  0.00    +0.000 HD
ENDROOT
BRANCH  12  15
ATOM     15  C   UNL     1       0.521  10.869  18.941  0.00  0.00    +0.000 A 
ATOM     16  C   UNL     1       1.015  12.172  19.083  0.00  0.00    +0.000 A 
ATOM     17  C   UNL     1       0.201  13.264  18.808  0.00  0.00    +0.000 A 
ATOM     18  C   UNL     1      -1.115  13.065  18.397  0.00  0.00    +0.000 A 
ATOM     19  C   UNL     1      -1.626  11.767  18.257  0.00  0.00    +0.000 A 
ATOM     20  C   UNL     1      -0.811  10.665  18.551  0.00  0.00    +0.000 A 
BRANCH  19  21
ATOM     21  N   UNL     1      -2.973  11.564  17.863  0.00  0.00    +0.000 N 
ATOM     22  N   UNL     1      -3.990  11.844  18.717  0.00  0.00    +0.000 NA
ATOM     23  N   UNL     1      -5.133  11.771  18.049  0.00  0.00    +0.000 NA
ATOM     24  C   UNL     1      -4.858  11.315  16.801  0.00  0.00    +0.000 A 
ATOM     25  C   UNL     1      -3.500  11.105  16.666  0.00  0.00    +0.000 A 
BRANCH  25  26
ATOM     26  C   UNL     1      -2.748  10.417  15.601  0.00  0.00    +0.000 C 
BRANCH  26  27
ATOM     27  O   UNL     1      -3.525  10.472  14.417  0.00  0.00    +0.000 OA
ATOM     28  H   UNL     1      -4.358  10.003  14.588  0.00  0.00    +0.000 HD
ENDBRANCH  26  27
ENDBRANCH  25  26
ENDBRANCH  19  21
ENDBRANCH  12  15
BRANCH   7  29
ATOM     29  C   UNL     1       4.922   4.128  18.718  0.00  0.00    +0.000 C 
ATOM     30  F   UNL     1       4.822   3.213  17.718  0.00  0.00    +0.000 F 
ATOM     31  F   UNL     1       6.253   4.411  18.821  0.00  0.00    +0.000 F 
ATOM     32  F   UNL     1       4.601   3.462  19.864  0.00  0.00    +0.000 F 
ENDBRANCH   7  29
TORSDOF 5
ENDMDL
MODEL 5
REMARK VINA RESULT:      -7.9      2.609      4.004
REMARK  Name = 
REMARK  6 active torsions:
REMARK  status: ('A' for Active; 'I' for Inactive)
REMARK    1  A    between atoms: C_1  and  C_2
REMARK    2  A    between atoms: C_7  and  C_8
REMARK    3  A    between atoms: C_16  and  C_17
REMARK    4  A    between atoms: C_21  and  N_22
REMARK    5  A    between atoms: C_26  and  C_27
REMARK    6  A    between atoms: C_27  and  O_28
REMARK                            x       y       z     vdW  Elec       q    Type
REMARK                         _______ _______ _______ _____ _____    ______ ____
ROOT
ATOM      1  C   UNL     1       1.855   3.114  21.234  0.00  0.00    +0.000 C 
ATOM      2  C   UNL     1       2.165   4.344  20.425  0.00  0.00    +0.000 A 
ATOM      3  C   UNL     1       1.648   5.580  20.858  0.00  0.00    +0.000 A 
ATOM      4  C   UNL     1       1.859   6.774  20.154  0.00  0.00    +0.000 A 
ATOM      5  C   UNL     1       2.654   6.726  18.991  0.00  0.00    +0.000 A 
ATOM      6  C   UNL     1       3.215   5.509  18.580  0.00  0.00    +0.000 A 
ATOM      7  C   UNL     1       2.950   4.302  19.260  0.00  0.00    +0.000 A 
ATOM      8  N   UNL     1       2.931   7.834  18.166  0.00  0.00    +0.000 N 
ATOM      9  C   UNL     1       2.123   8.915  17.956  0.00  0.00    +0.000 C 
ATOM     10  O   UNL     1       2.478   9.837  17.222  0.00  0.00    +0.000 OA
ATOM     11  C   UNL     1       0.760   8.877  18.576  0.00  0.00    +0.000 C 
ATOM     12  C   UNL     1       0.870   8.922  20.072  0.00  0.00    +0.000 C 
ATOM     13  N   UNL     1       1.355   7.939  20.766  0.00  0.00    +0.000 NA
ATOM     14  H   UNL     1       3.737   7.803  17.554  0.00  0.00    +0.000 HD
ENDROOT
BRANCH  12  15
ATOM     15  C   UNL     1       0.414  10.158  20.771  0.00  0.00    +0.000 A 
ATOM     16  C   UNL     1      -0.271  10.069  21.990  0.00  0.00    +0.000 A 
ATOM     17  C   UNL     1      -0.686  11.221  22.648  0.00  0.00    +0.000 A 
ATOM     18  C   UNL     1      -0.426  12.471  22.091  0.00  0.00    +0.000 A 
ATOM     19  C   UNL     1       0.252  12.577  20.869  0.00  0.00    +0.000 A 
ATOM     20  C   UNL     1       0.655  11.416  20.196  0.00  0.00    +0.000 A 
BRANCH  19  21
ATOM     21  N   UNL     1       0.494  13.849  20.289  0.00  0.00    +0.000 N 
ATOM     22  N   UNL     1      -0.425  14.417  19.469  0.00  0.00    +0.000 NA
ATOM     23  N   UNL     1      -0.062  15.670  19.233  0.00  0.00    +0.000 NA
ATOM     24  C   UNL     1       1.159  15.863  19.795  0.00  0.00    +0.000 A 
ATOM     25  C   UNL     1       1.578  14.704  20.417  0.00  0.00    +0.000 A 
BRANCH  25  26
ATOM     26  C   UNL     1       2.898  14.345  20.963  0.00  0.00    +0.000 C 
BRANCH  26  27
ATOM     27  O   UNL     1       2.853  14.532  22.367  0.00  0.00    +0.000 OA
ATOM     28  H   UNL     1       2.883  13.654  22.782  0.00  0.00    +0.000 HD
ENDBRANCH  26  27
ENDBRANCH  25  26
ENDBRANCH  19  21
ENDBRANCH  12  15
BRANCH   7  29
ATOM     29  C   UNL     1       3.511   3.034  18.651  0.00  0.00    +0.000 C 
ATOM     30  F   UNL     1       2.596   2.073  18.353  0.00  0.00    +0.000 F 
ATOM     31  F   UNL     1       4.168   3.286  17.481  0.00  0.00    +0.000 F 
ATOM     32  F   UNL     1       4.427   2.434  19.463  0.00  0.00    +0.000 F 
ENDBRANCH   7  29
TORSDOF 5
ENDMDL
MODEL 6
REMARK VINA RESULT:      -7.8      3.011      4.560
REMARK  Name = 
REMARK  6 active torsions:
REMARK  status: ('A' for Active; 'I' for Inactive)
REMARK    1  A    between atoms: C_1  and  C_2
REMARK    2  A    between atoms: C_7  and  C_8
REMARK    3  A    between atoms: C_16  and  C_17
REMARK    4  A    between atoms: C_21  and  N_22
REMARK    5  A    between atoms: C_26  and  C_27
REMARK    6  A    between atoms: C_27  and  O_28
REMARK                            x       y       z     vdW  Elec       q    Type
REMARK                         _______ _______ _______ _____ _____    ______ ____
ROOT
ATOM      1  C   UNL     1       1.672   3.886  21.169  0.00  0.00    +0.000 C 
ATOM      2  C   UNL     1       2.000   5.109  20.356  0.00  0.00    +0.000 A 
ATOM      3  C   UNL     1       1.495   6.353  20.782  0.00  0.00    +0.000 A 
ATOM      4  C   UNL     1       1.722   7.540  20.074  0.00  0.00    +0.000 A 
ATOM      5  C   UNL     1       2.520   7.479  18.914  0.00  0.00    +0.000 A 
ATOM      6  C   UNL     1       3.069   6.254  18.511  0.00  0.00    +0.000 A 
ATOM      7  C   UNL     1       2.788   5.053  19.194  0.00  0.00    +0.000 A 
ATOM      8  N   UNL     1       2.814   8.581  18.086  0.00  0.00    +0.000 N 
ATOM      9  C   UNL     1       2.018   9.669  17.869  0.00  0.00    +0.000 C 
ATOM     10  O   UNL     1       2.387  10.584  17.133  0.00  0.00    +0.000 OA
ATOM     11  C   UNL     1       0.652   9.649  18.484  0.00  0.00    +0.000 C 
ATOM     12  C   UNL     1       0.757   9.699  19.980  0.00  0.00    +0.000 C 
ATOM     13  N   UNL     1       1.229   8.714  20.680  0.00  0.00    +0.000 NA
ATOM     14  H   UNL     1       3.621   8.538  17.477  0.00  0.00    +0.000 HD
ENDROOT
BRANCH  12  15
ATOM     15  C   UNL     1       0.313  10.944  20.672  0.00  0.00    +0.000 A 
ATOM     16  C   UNL     1       1.183  12.034  20.793  0.00  0.00    +0.000 A 
ATOM     17  C   UNL     1       0.766  13.198  21.428  0.00  0.00    +0.000 A 
ATOM     18  C   UNL     1      -0.521  13.280  21.955  0.00  0.00    +0.000 A 
ATOM     19  C   UNL     1      -1.401  12.194  21.849  0.00  0.00    +0.000 A 
ATOM     20  C   UNL     1      -0.975  11.014  21.224  0.00  0.00    +0.000 A 
BRANCH  19  21
ATOM     21  N   UNL     1      -2.703  12.267  22.408  0.00  0.00    +0.000 N 
ATOM     22  N   UNL     1      -2.946  11.782  23.651  0.00  0.00    +0.000 NA
ATOM     23  N   UNL     1      -4.165  12.154  24.018  0.00  0.00    +0.000 NA
ATOM     24  C   UNL     1      -4.751  12.765  22.956  0.00  0.00    +0.000 A 
ATOM     25  C   UNL     1      -3.876  12.794  21.889  0.00  0.00    +0.000 A 
BRANCH  25  26
ATOM     26  C   UNL     1      -4.114  13.138  20.477  0.00  0.00    +0.000 C 
BRANCH  26  27
ATOM     27  O   UNL     1      -3.758  14.497  20.295  0.00  0.00    +0.000 OA
ATOM     28  H   UNL     1      -3.015  14.689  20.890  0.00  0.00    +0.000 HD
ENDBRANCH  26  27
ENDBRANCH  25  26
ENDBRANCH  19  21
ENDBRANCH  12  15
BRANCH   7  29
ATOM     29  C   UNL     1       3.337   3.776  18.592  0.00  0.00    +0.000 C 
ATOM     30  F   UNL     1       3.924   3.908  17.374  0.00  0.00    +0.000 F 
ATOM     31  F   UNL     1       4.286   3.210  19.393  0.00  0.00    +0.000 F 
ATOM     32  F   UNL     1       2.373   2.823  18.439  0.00  0.00    +0.000 F 
ENDBRANCH   7  29
TORSDOF 5
ENDMDL
MODEL 7
REMARK VINA RESULT:      -7.8      1.111      1.480
REMARK  Name = 
REMARK  6 active torsions:
REMARK  status: ('A' for Active; 'I' for Inactive)
REMARK    1  A    between atoms: C_1  and  C_2
REMARK    2  A    between atoms: C_7  and  C_8
REMARK    3  A    between atoms: C_16  and  C_17
REMARK    4  A    between atoms: C_21  and  N_22
REMARK    5  A    between atoms: C_26  and  C_27
REMARK    6  A    between atoms: C_27  and  O_28
REMARK                            x       y       z     vdW  Elec       q    Type
REMARK                         _______ _______ _______ _____ _____    ______ ____
ROOT
ATOM      1  C   UNL     1       6.633   6.625  15.716  0.00  0.00    +0.000 C 
ATOM      2  C   UNL     1       5.452   6.033  16.434  0.00  0.00    +0.000 A 
ATOM      3  C   UNL     1       4.646   6.883  17.216  0.00  0.00    +0.000 A 
ATOM      4  C   UNL     1       3.543   6.417  17.944  0.00  0.00    +0.000 A 
ATOM      5  C   UNL     1       3.217   5.049  17.851  0.00  0.00    +0.000 A 
ATOM      6  C   UNL     1       3.982   4.205  17.034  0.00  0.00    +0.000 A 
ATOM      7  C   UNL     1       5.125   4.669  16.351  0.00  0.00    +0.000 A 
ATOM      8  N   UNL     1       2.157   4.431  18.543  0.00  0.00    +0.000 N 
ATOM      9  C   UNL     1       1.660   4.795  19.762  0.00  0.00    +0.000 C 
ATOM     10  O   UNL     1       0.715   4.188  20.265  0.00  0.00    +0.000 OA
ATOM     11  C   UNL     1       2.374   5.892  20.490  0.00  0.00    +0.000 C 
ATOM     12  C   UNL     1       2.222   7.189  19.750  0.00  0.00    +0.000 C 
ATOM     13  N   UNL     1       2.785   7.408  18.602  0.00  0.00    +0.000 NA
ATOM     14  H   UNL     1       1.789   3.553  18.199  0.00  0.00    +0.000 HD
ENDROOT
BRANCH  12  15
ATOM     15  C   UNL     1       1.375   8.252  20.365  0.00  0.00    +0.000 A 
ATOM     16  C   UNL     1       0.934   8.126  21.688  0.00  0.00    +0.000 A 
ATOM     17  C   UNL     1       0.154   9.122  22.265  0.00  0.00    +0.000 A 
ATOM     18  C   UNL     1      -0.198  10.247  21.524  0.00  0.00    +0.000 A 
ATOM     19  C   UNL     1       0.229  10.383  20.196  0.00  0.00    +0.000 A 
ATOM     20  C   UNL     1       1.001   9.372  19.607  0.00  0.00    +0.000 A 
BRANCH  19  21
ATOM     21  N   UNL     1      -0.150  11.517  19.431  0.00  0.00    +0.000 N 
ATOM     22  N   UNL     1      -1.448  11.711  19.087  0.00  0.00    +0.000 NA
ATOM     23  N   UNL     1      -1.569  12.925  18.568  0.00  0.00    +0.000 NA
ATOM     24  C   UNL     1      -0.325  13.457  18.458  0.00  0.00    +0.000 A 
ATOM     25  C   UNL     1       0.613  12.562  18.934  0.00  0.00    +0.000 A 
BRANCH  25  26
ATOM     26  C   UNL     1       2.082  12.580  18.824  0.00  0.00    +0.000 C 
BRANCH  26  27
ATOM     27  O   UNL     1       2.424  12.179  17.509  0.00  0.00    +0.000 OA
ATOM     28  H   UNL     1       1.602  12.121  16.995  0.00  0.00    +0.000 HD
ENDBRANCH  26  27
ENDBRANCH  25  26
ENDBRANCH  19  21
ENDBRANCH  12  15
BRANCH   7  29
ATOM     29  C   UNL     1       5.942   3.637  15.601  0.00  0.00    +0.000 C 
ATOM     30  F   UNL     1       5.891   3.723  14.245  0.00  0.00    +0.000 F 
ATOM     31  F   UNL     1       7.267   3.714  15.921  0.00  0.00    +0.000 F 
ATOM     32  F   UNL     1       5.567   2.362  15.906  0.00  0.00    +0.000 F 
ENDBRANCH   7  29
TORSDOF 5
ENDMDL
MODEL 8
REMARK VINA RESULT:      -7.8      5.297      9.091
REMARK  Name = 
REMARK  6 active torsions:
REMARK  status: ('A' for Active; 'I' for Inactive)
REMARK    1  A    between atoms: C_1  and  C_2
REMARK    2  A    between atoms: C_7  and  C_8
REMARK    3  A    between atoms: C_16  and  C_17
REMARK    4  A    between atoms: C_21  and  N_22
REMARK    5  A    between atoms: C_26  and  C_27
REMARK    6  A    between atoms: C_27  and  O_28
REMARK                            x       y       z     vdW  Elec       q    Type
REMARK                         _______ _______ _______ _____ _____    ______ ____
ROOT
ATOM      1  C   UNL     1      -3.580  11.848  18.115  0.00  0.00    +0.000 C 
ATOM      2  C   UNL     1      -2.462  11.547  19.076  0.00  0.00    +0.000 A 
ATOM      3  C   UNL     1      -1.464  10.635  18.680  0.00  0.00    +0.000 A 
ATOM      4  C   UNL     1      -0.402  10.270  19.518  0.00  0.00    +0.000 A 
ATOM      5  C   UNL     1      -0.320  10.876  20.788  0.00  0.00    +0.000 A 
ATOM      6  C   UNL     1      -1.280  11.823  21.171  0.00  0.00    +0.000 A 
ATOM      7  C   UNL     1      -2.379  12.141  20.346  0.00  0.00    +0.000 A 
ATOM      8  N   UNL     1       0.672  10.591  21.747  0.00  0.00    +0.000 N 
ATOM      9  C   UNL     1       1.319   9.401  21.919  0.00  0.00    +0.000 C 
ATOM     10  O   UNL     1       2.185   9.272  22.785  0.00  0.00    +0.000 OA
ATOM     11  C   UNL     1       0.861   8.248  21.079  0.00  0.00    +0.000 C 
ATOM     12  C   UNL     1       1.171   8.506  19.634  0.00  0.00    +0.000 C 
ATOM     13  N   UNL     1       0.563   9.419  18.941  0.00  0.00    +0.000 NA
ATOM     14  H   UNL     1       0.857  11.265  22.480  0.00  0.00    +0.000 HD
ENDROOT
BRANCH  12  15
ATOM     15  C   UNL     1       2.232   7.681  18.987  0.00  0.00    +0.000 A 
ATOM     16  C   UNL     1       2.977   8.199  17.920  0.00  0.00    +0.000 A 
ATOM     17  C   UNL     1       3.974   7.435  17.324  0.00  0.00    +0.000 A 
ATOM     18  C   UNL     1       4.231   6.146  17.783  0.00  0.00    +0.000 A 
ATOM     19  C   UNL     1       3.489   5.610  18.845  0.00  0.00    +0.000 A 
ATOM     20  C   UNL     1       2.472   6.373  19.436  0.00  0.00    +0.000 A 
BRANCH  19  21
ATOM     21  N   UNL     1       3.732   4.287  19.297  0.00  0.00    +0.000 N 
ATOM     22  N   UNL     1       5.001   3.840  19.467  0.00  0.00    +0.000 NA
ATOM     23  N   UNL     1       4.956   2.669  20.086  0.00  0.00    +0.000 NA
ATOM     24  C   UNL     1       3.653   2.304  20.194  0.00  0.00    +0.000 A 
ATOM     25  C   UNL     1       2.846   3.277  19.640  0.00  0.00    +0.000 A 
BRANCH  25  26
ATOM     26  C   UNL     1       1.409   3.246  19.316  0.00  0.00    +0.000 C 
BRANCH  26  27
ATOM     27  O   UNL     1       0.691   3.153  20.535  0.00  0.00    +0.000 OA
ATOM     28  H   UNL     1       0.313   2.260  20.588  0.00  0.00    +0.000 HD
ENDBRANCH  26  27
ENDBRANCH  25  26
ENDBRANCH  19  21
ENDBRANCH  12  15
BRANCH   7  29
ATOM     29  C   UNL     1      -3.416  13.085  20.919  0.00  0.00    +0.000 C 
ATOM     30  F   UNL     1      -3.231  13.439  22.219  0.00  0.00    +0.000 F 
ATOM     31  F   UNL     1      -3.465  14.260  20.226  0.00  0.00    +0.000 F 
ATOM     32  F   UNL     1      -4.676  12.568  20.851  0.00  0.00    +0.000 F 
ENDBRANCH   7  29
TORSDOF 5
ENDMDL
MODEL 9
REMARK VINA RESULT:      -7.7      1.405      1.745
REMARK  Name = 
REMARK  6 active torsions:
REMARK  status: ('A' for Active; 'I' for Inactive)
REMARK    1  A    between atoms: C_1  and  C_2
REMARK    2  A    between atoms: C_7  and  C_8
REMARK    3  A    between atoms: C_16  and  C_17
REMARK    4  A    between atoms: C_21  and  N_22
REMARK    5  A    between atoms: C_26  and  C_27
REMARK    6  A    between atoms: C_27  and  O_28
REMARK                            x       y       z     vdW  Elec       q    Type
REMARK                         _______ _______ _______ _____ _____    ______ ____
ROOT
ATOM      1  C   UNL     1       6.700   6.644  15.783  0.00  0.00    +0.000 C 
ATOM      2  C   UNL     1       5.505   6.037  16.468  0.00  0.00    +0.000 A 
ATOM      3  C   UNL     1       4.683   6.872  17.248  0.00  0.00    +0.000 A 
ATOM      4  C   UNL     1       3.567   6.391  17.946  0.00  0.00    +0.000 A 
ATOM      5  C   UNL     1       3.245   5.025  17.823  0.00  0.00    +0.000 A 
ATOM      6  C   UNL     1       4.028   4.196  17.008  0.00  0.00    +0.000 A 
ATOM      7  C   UNL     1       5.184   4.674  16.356  0.00  0.00    +0.000 A 
ATOM      8  N   UNL     1       2.173   4.393  18.483  0.00  0.00    +0.000 N 
ATOM      9  C   UNL     1       1.651   4.735  19.698  0.00  0.00    +0.000 C 
ATOM     10  O   UNL     1       0.697   4.117  20.172  0.00  0.00    +0.000 OA
ATOM     11  C   UNL     1       2.348   5.821  20.458  0.00  0.00    +0.000 C 
ATOM     12  C   UNL     1       2.208   7.129  19.738  0.00  0.00    +0.000 C 
ATOM     13  N   UNL     1       2.793   7.369  18.605  0.00  0.00    +0.000 NA
ATOM     14  H   UNL     1       1.814   3.520  18.117  0.00  0.00    +0.000 HD
ENDROOT
BRANCH  12  15
ATOM     15  C   UNL     1       1.346   8.180  20.354  0.00  0.00    +0.000 A 
ATOM     16  C   UNL     1       0.808   7.992  21.633  0.00  0.00    +0.000 A 
ATOM     17  C   UNL     1       0.014   8.976  22.212  0.00  0.00    +0.000 A 
ATOM     18  C   UNL     1      -0.254  10.151  21.516  0.00  0.00    +0.000 A 
ATOM     19  C   UNL     1       0.271  10.351  20.231  0.00  0.00    +0.000 A 
ATOM     20  C   UNL     1       1.057   9.353  19.639  0.00  0.00    +0.000 A 
BRANCH  19  21
ATOM     21  N   UNL     1      -0.023  11.538  19.511  0.00  0.00    +0.000 N 
ATOM     22  N   UNL     1      -0.918  11.520  18.492  0.00  0.00    +0.000 NA
ATOM     23  N   UNL     1      -1.169  12.770  18.129  0.00  0.00    +0.000 NA
ATOM     24  C   UNL     1      -0.333  13.582  18.826  0.00  0.00    +0.000 A 
ATOM     25  C   UNL     1       0.461  12.828  19.667  0.00  0.00    +0.000 A 
BRANCH  25  26
ATOM     26  C   UNL     1       1.652  13.213  20.444  0.00  0.00    +0.000 C 
BRANCH  26  27
ATOM     27  O   UNL     1       1.218  13.616  21.732  0.00  0.00    +0.000 OA
ATOM     28  H   UNL     1       0.334  14.009  21.635  0.00  0.00    +0.000 HD
ENDBRANCH  26  27
ENDBRANCH  25  26
ENDBRANCH  19  21
ENDBRANCH  12  15
BRANCH   7  29
ATOM     29  C   UNL     1       6.018   3.656  15.604  0.00  0.00    +0.000 C 
ATOM     30  F   UNL     1       7.351   3.682  15.869  0.00  0.00    +0.000 F 
ATOM     31  F   UNL     1       5.618   2.380  15.875  0.00  0.00    +0.000 F 
ATOM     32  F   UNL     1       5.905   3.795  14.252  0.00  0.00    +0.000 F 
ENDBRANCH   7  29
TORSDOF 5
ENDMDL
