MODEL 1
REMARK VINA RESULT:      -7.5      0.000      0.000
REMARK  Name = 
REMARK  10 active torsions:
REMARK  status: ('A' for Active; 'I' for Inactive)
REMARK    1  A    between atoms: O_1  and  C_2
REMARK    2  A    between atoms: C_8  and  C_9
REMARK    3  A    between atoms: N_10  and  C_11
REMARK    4  A    between atoms: C_11  and  C_12
REMARK    5  A    between atoms: C_12  and  N_13
REMARK    6  A    between atoms: N_13  and  C_14
REMARK    7  A    between atoms: C_14  and  C_15
REMARK    8  A    between atoms: C_15  and  N_16
REMARK    9  A    between atoms: C_17  and  C_18
REMARK   10  A    between atoms: C_24  and  O_25
REMARK                            x       y       z     vdW  Elec       q    Type
REMARK                         _______ _______ _______ _____ _____    ______ ____
ROOT
ATOM      1  N   UNL     1       7.402   5.273  18.042  0.00  0.00    +0.000 NA
ATOM      2  H   UNL     1       8.138   4.583  18.190  0.00  0.00    +0.000 HD
ENDROOT
BRANCH   1   3
ATOM      3  C   UNL     1       7.046   5.288  16.615  0.00  0.00    +0.000 C 
BRANCH   3   4
ATOM      4  C   UNL     1       5.994   4.231  16.223  0.00  0.00    +0.000 C 
BRANCH   4   6
ATOM      5  C   UNL     1       3.845   4.239  17.113  0.00  0.00    +0.000 C 
ATOM      6  N   UNL     1       5.094   4.032  17.353  0.00  0.00    +0.000 NA
BRANCH   5  13
ATOM      7  C   UNL     1       2.204   2.868  18.432  0.00  0.00    +0.000 A 
ATOM      8  C   UNL     1       1.283   2.762  19.476  0.00  0.00    +0.000 A 
ATOM      9  C   UNL     1       1.012   3.874  20.281  0.00  0.00    +0.000 A 
ATOM     10  C   UNL     1       1.660   5.083  20.042  0.00  0.00    +0.000 A 
ATOM     11 CL   UNL     1       1.326   6.448  21.034  0.00  0.00    +0.000 Cl
ATOM     12  C   UNL     1       2.577   5.195  19.005  0.00  0.00    +0.000 A 
ATOM     13  C   UNL     1       2.856   4.084  18.199  0.00  0.00    +0.000 A 
BRANCH   7  14
ATOM     14  O   UNL     1       2.463   1.781  17.647  0.00  0.00    +0.000 OA
ATOM     15  H   UNL     1       2.991   2.055  16.881  0.00  0.00    +0.000 HD
ENDBRANCH   7  14
ENDBRANCH   5  13
ENDBRANCH   4   6
ENDBRANCH   3   4
ENDBRANCH   1   3
BRANCH   1  16
ATOM     16  C   UNL     1       7.884   6.578  18.513  0.00  0.00    +0.000 C 
BRANCH  16  17
ATOM     17  C   UNL     1       7.472   7.743  17.601  0.00  0.00    +0.000 C 
BRANCH  17  18
ATOM     18  N   UNL     1       8.506   8.773  17.682  0.00  0.00    +0.000 NA
ATOM     19  C   UNL     1       8.486   9.427  18.791  0.00  0.00    +0.000 C 
BRANCH  19  20
ATOM     20  C   UNL     1       9.424  10.547  18.999  0.00  0.00    +0.000 A 
ATOM     21  C   UNL     1       9.933  11.210  17.883  0.00  0.00    +0.000 A 
ATOM     22  C   UNL     1      10.784  12.298  18.055  0.00  0.00    +0.000 A 
ATOM     23 CL   UNL     1      11.415  13.114  16.679  0.00  0.00    +0.000 Cl
ATOM     24  C   UNL     1      11.117  12.734  19.333  0.00  0.00    +0.000 A 
ATOM     25  C   UNL     1      10.610  12.066  20.456  0.00  0.00    +0.000 A 
ATOM     26  C   UNL     1       9.761  10.971  20.289  0.00  0.00    +0.000 A 
BRANCH  26  27
ATOM     27  O   UNL     1       9.261  10.322  21.378  0.00  0.00    +0.000 OA
ATOM     28  H   UNL     1       8.314  10.516  21.463  0.00  0.00    +0.000 HD
ENDBRANCH  26  27
ENDBRANCH  19  20
ENDBRANCH  17  18
ENDBRANCH  16  17
ENDBRANCH   1  16
TORSDOF 10
ENDMDL
MODEL 2
REMARK VINA RESULT:      -7.3      5.424      7.457
REMARK  Name = 
REMARK  10 active torsions:
REMARK  status: ('A' for Active; 'I' for Inactive)
REMARK    1  A    between atoms: O_1  and  C_2
REMARK    2  A    between atoms: C_8  and  C_9
REMARK    3  A    between atoms: N_10  and  C_11
REMARK    4  A    between atoms: C_11  and  C_12
REMARK    5  A    between atoms: C_12  and  N_13
REMARK    6  A    between atoms: N_13  and  C_14
REMARK    7  A    between atoms: C_14  and  C_15
REMARK    8  A    between atoms: C_15  and  N_16
REMARK    9  A    between atoms: C_17  and  C_18
REMARK   10  A    between atoms: C_24  and  O_25
REMARK                            x       y       z     vdW  Elec       q    Type
REMARK                         _______ _______ _______ _____ _____    ______ ____
ROOT
ATOM      1  N   UNL     1       2.060   2.336  20.075  0.00  0.00    +0.000 NA
ATOM      2  H   UNL     1       3.005   2.651  19.853  0.00  0.00    +0.000 HD
ENDROOT
BRANCH   1   3
ATOM      3  C   UNL     1       1.301   2.195  18.824  0.00  0.00    +0.000 C 
BRANCH   3   4
ATOM      4  C   UNL     1       1.358   3.440  17.915  0.00  0.00    +0.000 C 
BRANCH   4   6
ATOM      5  C   UNL     1       3.556   4.195  17.821  0.00  0.00    +0.000 C 
ATOM      6  N   UNL     1       2.656   3.469  17.252  0.00  0.00    +0.000 NA
BRANCH   5  13
ATOM      7  C   UNL     1       6.036   4.563  17.986  0.00  0.00    +0.000 A 
ATOM      8  C   UNL     1       7.287   4.650  17.373  0.00  0.00    +0.000 A 
ATOM      9  C   UNL     1       7.397   4.484  15.988  0.00  0.00    +0.000 A 
ATOM     10  C   UNL     1       6.261   4.232  15.224  0.00  0.00    +0.000 A 
ATOM     11 CL   UNL     1       6.399   4.026  13.521  0.00  0.00    +0.000 Cl
ATOM     12  C   UNL     1       5.014   4.145  15.827  0.00  0.00    +0.000 A 
ATOM     13  C   UNL     1       4.898   4.306  17.214  0.00  0.00    +0.000 A 
BRANCH   7  14
ATOM     14  O   UNL     1       5.933   4.730  19.338  0.00  0.00    +0.000 OA
ATOM     15  H   UNL     1       6.777   5.058  19.687  0.00  0.00    +0.000 HD
ENDBRANCH   7  14
ENDBRANCH   5  13
ENDBRANCH   4   6
ENDBRANCH   3   4
ENDBRANCH   1   3
BRANCH   1  16
ATOM     16  C   UNL     1       1.450   3.304  20.996  0.00  0.00    +0.000 C 
BRANCH  16  17
ATOM     17  C   UNL     1       2.329   4.537  21.251  0.00  0.00    +0.000 C 
BRANCH  17  18
ATOM     18  N   UNL     1       1.666   5.700  20.663  0.00  0.00    +0.000 NA
ATOM     19  C   UNL     1       2.488   6.560  20.172  0.00  0.00    +0.000 C 
BRANCH  19  20
ATOM     20  C   UNL     1       1.978   7.822  19.604  0.00  0.00    +0.000 A 
ATOM     21  C   UNL     1       1.113   8.600  20.373  0.00  0.00    +0.000 A 
ATOM     22  C   UNL     1       0.653   9.817  19.875  0.00  0.00    +0.000 A 
ATOM     23 CL   UNL     1      -0.416  10.776  20.821  0.00  0.00    +0.000 Cl
ATOM     24  C   UNL     1       1.062  10.265  18.624  0.00  0.00    +0.000 A 
ATOM     25  C   UNL     1       1.927   9.480  17.848  0.00  0.00    +0.000 A 
ATOM     26  C   UNL     1       2.386   8.258  18.339  0.00  0.00    +0.000 A 
BRANCH  26  27
ATOM     27  O   UNL     1       3.232   7.495  17.590  0.00  0.00    +0.000 OA
ATOM     28  H   UNL     1       3.053   6.556  17.757  0.00  0.00    +0.000 HD
ENDBRANCH  26  27
ENDBRANCH  19  20
ENDBRANCH  17  18
ENDBRANCH  16  17
ENDBRANCH   1  16
TORSDOF 10
ENDMDL
MODEL 3
REMARK VINA RESULT:      -7.3      4.955      7.454
REMARK  Name = 
REMARK  10 active torsions:
REMARK  status: ('A' for Active; 'I' for Inactive)
REMARK    1  A    between atoms: O_1  and  C_2
REMARK    2  A    between atoms: C_8  and  C_9
REMARK    3  A    between atoms: N_10  and  C_11
REMARK    4  A    between atoms: C_11  and  C_12
REMARK    5  A    between atoms: C_12  and  N_13
REMARK    6  A    between atoms: N_13  and  C_14
REMARK    7  A    between atoms: C_14  and  C_15
REMARK    8  A    between atoms: C_15  and  N_16
REMARK    9  A    between atoms: C_17  and  C_18
REMARK   10  A    between atoms: C_24  and  O_25
REMARK                            x       y       z     vdW  Elec       q    Type
REMARK                         _______ _______ _______ _____ _____    ______ ____
ROOT
ATOM      1  N   UNL     1       0.553   3.060  20.030  0.00  0.00    +0.000 NA
ATOM      2  H   UNL     1      -0.131   2.385  20.372  0.00  0.00    +0.000 HD
ENDROOT
BRANCH   1   3
ATOM      3  C   UNL     1       0.722   2.873  18.582  0.00  0.00    +0.000 C 
BRANCH   3   4
ATOM      4  C   UNL     1       2.045   2.183  18.191  0.00  0.00    +0.000 C 
BRANCH   4   6
ATOM      5  C   UNL     1       4.160   3.114  17.932  0.00  0.00    +0.000 C 
ATOM      6  N   UNL     1       2.922   3.175  17.581  0.00  0.00    +0.000 NA
BRANCH   5  13
ATOM      7  C   UNL     1       5.635   5.135  18.160  0.00  0.00    +0.000 A 
ATOM      8  C   UNL     1       6.552   6.029  17.606  0.00  0.00    +0.000 A 
ATOM      9  C   UNL     1       6.956   5.876  16.275  0.00  0.00    +0.000 A 
ATOM     10  C   UNL     1       6.443   4.836  15.505  0.00  0.00    +0.000 A 
ATOM     11 CL   UNL     1       6.941   4.649  13.869  0.00  0.00    +0.000 Cl
ATOM     12  C   UNL     1       5.529   3.943  16.051  0.00  0.00    +0.000 A 
ATOM     13  C   UNL     1       5.125   4.089  17.385  0.00  0.00    +0.000 A 
BRANCH   7  14
ATOM     14  O   UNL     1       5.242   5.290  19.460  0.00  0.00    +0.000 OA
ATOM     15  H   UNL     1       6.023   5.431  20.018  0.00  0.00    +0.000 HD
ENDBRANCH   7  14
ENDBRANCH   5  13
ENDBRANCH   4   6
ENDBRANCH   3   4
ENDBRANCH   1   3
BRANCH   1  16
ATOM     16  C   UNL     1       1.807   2.868  20.770  0.00  0.00    +0.000 C 
BRANCH  16  17
ATOM     17  C   UNL     1       2.279   4.131  21.503  0.00  0.00    +0.000 C 
BRANCH  17  18
ATOM     18  N   UNL     1       2.382   5.214  20.525  0.00  0.00    +0.000 NA
ATOM     19  C   UNL     1       1.733   6.272  20.868  0.00  0.00    +0.000 C 
BRANCH  19  20
ATOM     20  C   UNL     1       1.681   7.429  19.955  0.00  0.00    +0.000 A 
ATOM     21  C   UNL     1       1.240   8.655  20.452  0.00  0.00    +0.000 A 
ATOM     22  C   UNL     1       1.224   9.771  19.620  0.00  0.00    +0.000 A 
ATOM     23 CL   UNL     1       0.677  11.283  20.231  0.00  0.00    +0.000 Cl
ATOM     24  C   UNL     1       1.658   9.673  18.303  0.00  0.00    +0.000 A 
ATOM     25  C   UNL     1       2.098   8.440  17.800  0.00  0.00    +0.000 A 
ATOM     26  C   UNL     1       2.110   7.317  18.628  0.00  0.00    +0.000 A 
BRANCH  26  27
ATOM     27  O   UNL     1       2.542   6.117  18.145  0.00  0.00    +0.000 OA
ATOM     28  H   UNL     1       3.410   5.908  18.528  0.00  0.00    +0.000 HD
ENDBRANCH  26  27
ENDBRANCH  19  20
ENDBRANCH  17  18
ENDBRANCH  16  17
ENDBRANCH   1  16
TORSDOF 10
ENDMDL
MODEL 4
REMARK VINA RESULT:      -7.1      2.312      2.608
REMARK  Name = 
REMARK  10 active torsions:
REMARK  status: ('A' for Active; 'I' for Inactive)
REMARK    1  A    between atoms: O_1  and  C_2
REMARK    2  A    between atoms: C_8  and  C_9
REMARK    3  A    between atoms: N_10  and  C_11
REMARK    4  A    between atoms: C_11  and  C_12
REMARK    5  A    between atoms: C_12  and  N_13
REMARK    6  A    between atoms: N_13  and  C_14
REMARK    7  A    between atoms: C_14  and  C_15
REMARK    8  A    between atoms: C_15  and  N_16
REMARK    9  A    between atoms: C_17  and  C_18
REMARK   10  A    between atoms: C_24  and  O_25
REMARK                            x       y       z     vdW  Elec       q    Type
REMARK                         _______ _______ _______ _____ _____    ______ ____
ROOT
ATOM      1  N   UNL     1       7.606   5.594  17.204  0.00  0.00    +0.000 NA
ATOM      2  H   UNL     1       8.545   5.212  17.088  0.00  0.00    +0.000 HD
ENDROOT
BRANCH   1   3
ATOM      3  C   UNL     1       7.113   6.046  15.894  0.00  0.00    +0.000 C 
BRANCH   3   4
ATOM      4  C   UNL     1       6.012   5.146  15.297  0.00  0.00    +0.000 C 
BRANCH   4   6
ATOM      5  C   UNL     1       4.404   4.652  16.903  0.00  0.00    +0.000 C 
ATOM      6  N   UNL     1       5.505   4.274  16.349  0.00  0.00    +0.000 NA
BRANCH   5  13
ATOM      7  C   UNL     1       4.573   3.458  19.107  0.00  0.00    +0.000 A 
ATOM      8  C   UNL     1       3.978   2.704  20.120  0.00  0.00    +0.000 A 
ATOM      9  C   UNL     1       2.631   2.338  20.017  0.00  0.00    +0.000 A 
ATOM     10  C   UNL     1       1.887   2.724  18.905  0.00  0.00    +0.000 A 
ATOM     11 CL   UNL     1       0.231   2.274  18.780  0.00  0.00    +0.000 Cl
ATOM     12  C   UNL     1       2.473   3.473  17.893  0.00  0.00    +0.000 A 
ATOM     13  C   UNL     1       3.820   3.847  17.994  0.00  0.00    +0.000 A 
BRANCH   7  14
ATOM     14  O   UNL     1       5.888   3.810  19.211  0.00  0.00    +0.000 OA
ATOM     15  H   UNL     1       5.992   4.462  19.923  0.00  0.00    +0.000 HD
ENDBRANCH   7  14
ENDBRANCH   5  13
ENDBRANCH   4   6
ENDBRANCH   3   4
ENDBRANCH   1   3
BRANCH   1  16
ATOM     16  C   UNL     1       7.664   6.683  18.187  0.00  0.00    +0.000 C 
BRANCH  16  17
ATOM     17  C   UNL     1       7.820   8.070  17.549  0.00  0.00    +0.000 C 
BRANCH  17  18
ATOM     18  N   UNL     1       8.368   8.977  18.557  0.00  0.00    +0.000 NA
ATOM     19  C   UNL     1       8.971   9.996  18.050  0.00  0.00    +0.000 C 
BRANCH  19  20
ATOM     20  C   UNL     1       9.638  10.968  18.935  0.00  0.00    +0.000 A 
ATOM     21  C   UNL     1       9.119  11.177  20.213  0.00  0.00    +0.000 A 
ATOM     22  C   UNL     1       9.758  12.057  21.082  0.00  0.00    +0.000 A 
ATOM     23 CL   UNL     1       9.117  12.317  22.657  0.00  0.00    +0.000 Cl
ATOM     24  C   UNL     1      10.916  12.718  20.688  0.00  0.00    +0.000 A 
ATOM     25  C   UNL     1      11.436  12.513  19.402  0.00  0.00    +0.000 A 
ATOM     26  C   UNL     1      10.797  11.636  18.525  0.00  0.00    +0.000 A 
BRANCH  26  27
ATOM     27  O   UNL     1      11.302  11.430  17.276  0.00  0.00    +0.000 OA
ATOM     28  H   UNL     1      11.187  10.498  17.030  0.00  0.00    +0.000 HD
ENDBRANCH  26  27
ENDBRANCH  19  20
ENDBRANCH  17  18
ENDBRANCH  16  17
ENDBRANCH   1  16
TORSDOF 10
ENDMDL
MODEL 5
REMARK VINA RESULT:      -7.1      5.413      7.889
REMARK  Name = 
REMARK  10 active torsions:
REMARK  status: ('A' for Active; 'I' for Inactive)
REMARK    1  A    between atoms: O_1  and  C_2
REMARK    2  A    between atoms: C_8  and  C_9
REMARK    3  A    between atoms: N_10  and  C_11
REMARK    4  A    between atoms: C_11  and  C_12
REMARK    5  A    between atoms: C_12  and  N_13
REMARK    6  A    between atoms: N_13  and  C_14
REMARK    7  A    between atoms: C_14  and  C_15
REMARK    8  A    between atoms: C_15  and  N_16
REMARK    9  A    between atoms: C_17  and  C_18
REMARK   10  A    between atoms: C_24  and  O_25
REMARK                            x       y       z     vdW  Elec       q    Type
REMARK                         _______ _______ _______ _____ _____    ______ ____
ROOT
ATOM      1  N   UNL     1       2.383   4.398  20.889  0.00  0.00    +0.000 NA
ATOM      2  H   UNL     1       2.714   4.360  21.853  0.00  0.00    +0.000 HD
ENDROOT
BRANCH   1   3
ATOM      3  C   UNL     1       1.653   5.658  20.686  0.00  0.00    +0.000 C 
BRANCH   3   4
ATOM      4  C   UNL     1       2.477   6.749  19.972  0.00  0.00    +0.000 C 
BRANCH   4   6
ATOM      5  C   UNL     1       1.117   8.266  21.093  0.00  0.00    +0.000 C 
ATOM      6  N   UNL     1       1.712   7.990  19.984  0.00  0.00    +0.000 NA
BRANCH   5  13
ATOM      7  C   UNL     1       0.046  10.103  22.431  0.00  0.00    +0.000 A 
ATOM      8  C   UNL     1      -0.724  11.266  22.485  0.00  0.00    +0.000 A 
ATOM      9  C   UNL     1      -1.243  11.813  21.306  0.00  0.00    +0.000 A 
ATOM     10  C   UNL     1      -0.991  11.199  20.082  0.00  0.00    +0.000 A 
ATOM     11 CL   UNL     1      -1.628  11.874  18.634  0.00  0.00    +0.000 Cl
ATOM     12  C   UNL     1      -0.226  10.041  20.022  0.00  0.00    +0.000 A 
ATOM     13  C   UNL     1       0.299   9.491  21.199  0.00  0.00    +0.000 A 
BRANCH   7  14
ATOM     14  O   UNL     1       0.547   9.571  23.586  0.00  0.00    +0.000 OA
ATOM     15  H   UNL     1       1.516   9.548  23.535  0.00  0.00    +0.000 HD
ENDBRANCH   7  14
ENDBRANCH   5  13
ENDBRANCH   4   6
ENDBRANCH   3   4
ENDBRANCH   1   3
BRANCH   1  16
ATOM     16  C   UNL     1       1.545   3.218  20.637  0.00  0.00    +0.000 C 
BRANCH  16  17
ATOM     17  C   UNL     1       1.877   2.509  19.317  0.00  0.00    +0.000 C 
BRANCH  17  18
ATOM     18  N   UNL     1       3.261   2.823  18.966  0.00  0.00    +0.000 NA
ATOM     19  C   UNL     1       3.363   3.601  17.944  0.00  0.00    +0.000 C 
BRANCH  19  20
ATOM     20  C   UNL     1       4.696   3.956  17.422  0.00  0.00    +0.000 A 
ATOM     21  C   UNL     1       4.916   3.887  16.047  0.00  0.00    +0.000 A 
ATOM     22  C   UNL     1       6.153   4.259  15.527  0.00  0.00    +0.000 A 
ATOM     23 CL   UNL     1       6.427   4.172  13.831  0.00  0.00    +0.000 Cl
ATOM     24  C   UNL     1       7.162   4.712  16.369  0.00  0.00    +0.000 A 
ATOM     25  C   UNL     1       6.944   4.777  17.752  0.00  0.00    +0.000 A 
ATOM     26  C   UNL     1       5.708   4.399  18.280  0.00  0.00    +0.000 A 
BRANCH  26  27
ATOM     27  O   UNL     1       5.490   4.466  19.623  0.00  0.00    +0.000 OA
ATOM     28  H   UNL     1       5.108   3.628  19.931  0.00  0.00    +0.000 HD
ENDBRANCH  26  27
ENDBRANCH  19  20
ENDBRANCH  17  18
ENDBRANCH  16  17
ENDBRANCH   1  16
TORSDOF 10
ENDMDL
MODEL 6
REMARK VINA RESULT:      -7.0      0.711      9.918
REMARK  Name = 
REMARK  10 active torsions:
REMARK  status: ('A' for Active; 'I' for Inactive)
REMARK    1  A    between atoms: O_1  and  C_2
REMARK    2  A    between atoms: C_8  and  C_9
REMARK    3  A    between atoms: N_10  and  C_11
REMARK    4  A    between atoms: C_11  and  C_12
REMARK    5  A    between atoms: C_12  and  N_13
REMARK    6  A    between atoms: N_13  and  C_14
REMARK    7  A    between atoms: C_14  and  C_15
REMARK    8  A    between atoms: C_15  and  N_16
REMARK    9  A    between atoms: C_17  and  C_18
REMARK   10  A    between atoms: C_24  and  O_25
REMARK                            x       y       z     vdW  Elec       q    Type
REMARK                         _______ _______ _______ _____ _____    ______ ____
ROOT
ATOM      1  N   UNL     1       6.946   5.750  17.198  0.00  0.00    +0.000 NA
ATOM      2  H   UNL     1       6.010   5.689  17.600  0.00  0.00    +0.000 HD
ENDROOT
BRANCH   1   3
ATOM      3  C   UNL     1       7.349   7.163  17.149  0.00  0.00    +0.000 C 
BRANCH   3   4
ATOM      4  C   UNL     1       8.087   7.647  18.414  0.00  0.00    +0.000 C 
BRANCH   4   6
ATOM      5  C   UNL     1       9.188   9.556  19.157  0.00  0.00    +0.000 C 
ATOM      6  N   UNL     1       8.446   9.048  18.234  0.00  0.00    +0.000 NA
BRANCH   5  13
ATOM      7  C   UNL     1       9.387  11.860  20.139  0.00  0.00    +0.000 A 
ATOM      8  C   UNL     1       9.790  13.191  20.023  0.00  0.00    +0.000 A 
ATOM      9  C   UNL     1      10.391  13.636  18.840  0.00  0.00    +0.000 A 
ATOM     10  C   UNL     1      10.586  12.753  17.782  0.00  0.00    +0.000 A 
ATOM     11 CL   UNL     1      11.325  13.302  16.329  0.00  0.00    +0.000 Cl
ATOM     12  C   UNL     1      10.186  11.427  17.891  0.00  0.00    +0.000 A 
ATOM     13  C   UNL     1       9.589  10.975  19.075  0.00  0.00    +0.000 A 
BRANCH   7  14
ATOM     14  O   UNL     1       8.799  11.431  21.295  0.00  0.00    +0.000 OA
ATOM     15  H   UNL     1       8.503  12.199  21.810  0.00  0.00    +0.000 HD
ENDBRANCH   7  14
ENDBRANCH   5  13
ENDBRANCH   4   6
ENDBRANCH   3   4
ENDBRANCH   1   3
BRANCH   1  16
ATOM     16  C   UNL     1       6.924   5.126  15.869  0.00  0.00    +0.000 C 
BRANCH  16  17
ATOM     17  C   UNL     1       5.778   4.122  15.688  0.00  0.00    +0.000 C 
BRANCH  17  18
ATOM     18  N   UNL     1       5.092   3.976  16.971  0.00  0.00    +0.000 NA
ATOM     19  C   UNL     1       3.810   4.045  16.874  0.00  0.00    +0.000 C 
BRANCH  19  20
ATOM     20  C   UNL     1       2.978   3.986  18.090  0.00  0.00    +0.000 A 
ATOM     21  C   UNL     1       2.714   5.169  18.779  0.00  0.00    +0.000 A 
ATOM     22  C   UNL     1       1.894   5.143  19.904  0.00  0.00    +0.000 A 
ATOM     23 CL   UNL     1       1.570   6.602  20.757  0.00  0.00    +0.000 Cl
ATOM     24  C   UNL     1       1.328   3.949  20.336  0.00  0.00    +0.000 A 
ATOM     25  C   UNL     1       1.597   2.758  19.647  0.00  0.00    +0.000 A 
ATOM     26  C   UNL     1       2.422   2.776  18.522  0.00  0.00    +0.000 A 
BRANCH  26  27
ATOM     27  O   UNL     1       2.681   1.621  17.846  0.00  0.00    +0.000 OA
ATOM     28  H   UNL     1       2.316   1.683  16.948  0.00  0.00    +0.000 HD
ENDBRANCH  26  27
ENDBRANCH  19  20
ENDBRANCH  17  18
ENDBRANCH  16  17
ENDBRANCH   1  16
TORSDOF 10
ENDMDL
MODEL 7
REMARK VINA RESULT:      -7.0      5.677      8.093
REMARK  Name = 
REMARK  10 active torsions:
REMARK  status: ('A' for Active; 'I' for Inactive)
REMARK    1  A    between atoms: O_1  and  C_2
REMARK    2  A    between atoms: C_8  and  C_9
REMARK    3  A    between atoms: N_10  and  C_11
REMARK    4  A    between atoms: C_11  and  C_12
REMARK    5  A    between atoms: C_12  and  N_13
REMARK    6  A    between atoms: N_13  and  C_14
REMARK    7  A    between atoms: C_14  and  C_15
REMARK    8  A    between atoms: C_15  and  N_16
REMARK    9  A    between atoms: C_17  and  C_18
REMARK   10  A    between atoms: C_24  and  O_25
REMARK                            x       y       z     vdW  Elec       q    Type
REMARK                         _______ _______ _______ _____ _____    ______ ____
ROOT
ATOM      1  N   UNL     1       5.134   4.694  19.339  0.00  0.00    +0.000 NA
ATOM      2  H   UNL     1       5.562   5.594  19.555  0.00  0.00    +0.000 HD
ENDROOT
BRANCH   1   3
ATOM      3  C   UNL     1       5.789   4.130  18.150  0.00  0.00    +0.000 C 
BRANCH   3   4
ATOM      4  C   UNL     1       7.109   4.832  17.771  0.00  0.00    +0.000 C 
BRANCH   4   6
ATOM      5  C   UNL     1       6.383   4.734  15.564  0.00  0.00    +0.000 C 
ATOM      6  N   UNL     1       7.382   4.577  16.362  0.00  0.00    +0.000 NA
BRANCH   5  13
ATOM      7  C   UNL     1       7.605   5.046  13.391  0.00  0.00    +0.000 A 
ATOM      8  C   UNL     1       7.735   4.771  12.029  0.00  0.00    +0.000 A 
ATOM      9  C   UNL     1       6.810   3.933  11.396  0.00  0.00    +0.000 A 
ATOM     10  C   UNL     1       5.762   3.375  12.124  0.00  0.00    +0.000 A 
ATOM     11 CL   UNL     1       4.626   2.345  11.345  0.00  0.00    +0.000 Cl
ATOM     12  C   UNL     1       5.627   3.646  13.480  0.00  0.00    +0.000 A 
ATOM     13  C   UNL     1       6.554   4.480  14.120  0.00  0.00    +0.000 A 
BRANCH   7  14
ATOM     14  O   UNL     1       8.510   5.867  14.003  0.00  0.00    +0.000 OA
ATOM     15  H   UNL     1       8.063   6.677  14.295  0.00  0.00    +0.000 HD
ENDBRANCH   7  14
ENDBRANCH   5  13
ENDBRANCH   4   6
ENDBRANCH   3   4
ENDBRANCH   1   3
BRANCH   1  16
ATOM     16  C   UNL     1       3.693   4.899  19.142  0.00  0.00    +0.000 C 
BRANCH  16  17
ATOM     17  C   UNL     1       3.358   5.638  17.839  0.00  0.00    +0.000 C 
BRANCH  17  18
ATOM     18  N   UNL     1       2.316   6.622  18.128  0.00  0.00    +0.000 NA
ATOM     19  C   UNL     1       2.650   7.461  19.046  0.00  0.00    +0.000 C 
BRANCH  19  20
ATOM     20  C   UNL     1       1.680   8.475  19.501  0.00  0.00    +0.000 A 
ATOM     21  C   UNL     1       1.191   8.396  20.805  0.00  0.00    +0.000 A 
ATOM     22  C   UNL     1       0.308   9.367  21.271  0.00  0.00    +0.000 A 
ATOM     23 CL   UNL     1      -0.298   9.269  22.878  0.00  0.00    +0.000 Cl
ATOM     24  C   UNL     1      -0.076  10.420  20.449  0.00  0.00    +0.000 A 
ATOM     25  C   UNL     1       0.410  10.498  19.136  0.00  0.00    +0.000 A 
ATOM     26  C   UNL     1       1.290   9.524  18.662  0.00  0.00    +0.000 A 
BRANCH  26  27
ATOM     27  O   UNL     1       1.770   9.599  17.389  0.00  0.00    +0.000 OA
ATOM     28  H   UNL     1       2.354   8.843  17.218  0.00  0.00    +0.000 HD
ENDBRANCH  26  27
ENDBRANCH  19  20
ENDBRANCH  17  18
ENDBRANCH  16  17
ENDBRANCH   1  16
TORSDOF 10
ENDMDL
MODEL 8
REMARK VINA RESULT:      -7.0      2.217     10.393
REMARK  Name = 
REMARK  10 active torsions:
REMARK  status: ('A' for Active; 'I' for Inactive)
REMARK    1  A    between atoms: O_1  and  C_2
REMARK    2  A    between atoms: C_8  and  C_9
REMARK    3  A    between atoms: N_10  and  C_11
REMARK    4  A    between atoms: C_11  and  C_12
REMARK    5  A    between atoms: C_12  and  N_13
REMARK    6  A    between atoms: N_13  and  C_14
REMARK    7  A    between atoms: C_14  and  C_15
REMARK    8  A    between atoms: C_15  and  N_16
REMARK    9  A    between atoms: C_17  and  C_18
REMARK   10  A    between atoms: C_24  and  O_25
REMARK                            x       y       z     vdW  Elec       q    Type
REMARK                         _______ _______ _______ _____ _____    ______ ____
ROOT
ATOM      1  N   UNL     1       7.702   6.783  16.999  0.00  0.00    +0.000 NA
ATOM      2  H   UNL     1       8.457   6.677  16.320  0.00  0.00    +0.000 HD
ENDROOT
BRANCH   1   3
ATOM      3  C   UNL     1       8.134   7.720  18.047  0.00  0.00    +0.000 C 
BRANCH   3   4
ATOM      4  C   UNL     1       7.834   9.198  17.726  0.00  0.00    +0.000 C 
BRANCH   4   6
ATOM      5  C   UNL     1       9.162  11.090  17.989  0.00  0.00    +0.000 C 
ATOM      6  N   UNL     1       8.688  10.036  18.559  0.00  0.00    +0.000 NA
BRANCH   5  13
ATOM      7  C   UNL     1      11.400  12.156  18.397  0.00  0.00    +0.000 A 
ATOM      8  C   UNL     1      12.206  13.027  19.132  0.00  0.00    +0.000 A 
ATOM      9  C   UNL     1      11.666  13.729  20.215  0.00  0.00    +0.000 A 
ATOM     10  C   UNL     1      10.327  13.558  20.560  0.00  0.00    +0.000 A 
ATOM     11 CL   UNL     1       9.665  14.423  21.891  0.00  0.00    +0.000 Cl
ATOM     12  C   UNL     1       9.520  12.693  19.832  0.00  0.00    +0.000 A 
ATOM     13  C   UNL     1      10.055  11.992  18.743  0.00  0.00    +0.000 A 
BRANCH   7  14
ATOM     14  O   UNL     1      11.933  11.472  17.342  0.00  0.00    +0.000 OA
ATOM     15  H   UNL     1      11.217  11.160  16.765  0.00  0.00    +0.000 HD
ENDBRANCH   7  14
ENDBRANCH   5  13
ENDBRANCH   4   6
ENDBRANCH   3   4
ENDBRANCH   1   3
BRANCH   1  16
ATOM     16  C   UNL     1       7.367   5.458  17.535  0.00  0.00    +0.000 C 
BRANCH  16  17
ATOM     17  C   UNL     1       6.942   5.489  19.009  0.00  0.00    +0.000 C 
BRANCH  17  18
ATOM     18  N   UNL     1       5.495   5.289  19.071  0.00  0.00    +0.000 NA
ATOM     19  C   UNL     1       5.158   4.055  19.219  0.00  0.00    +0.000 C 
BRANCH  19  20
ATOM     20  C   UNL     1       3.731   3.681  19.230  0.00  0.00    +0.000 A 
ATOM     21  C   UNL     1       3.156   3.270  20.431  0.00  0.00    +0.000 A 
ATOM     22  C   UNL     1       1.801   2.954  20.475  0.00  0.00    +0.000 A 
ATOM     23 CL   UNL     1       1.090   2.444  21.956  0.00  0.00    +0.000 Cl
ATOM     24  C   UNL     1       1.017   3.059  19.331  0.00  0.00    +0.000 A 
ATOM     25  C   UNL     1       1.595   3.467  18.121  0.00  0.00    +0.000 A 
ATOM     26  C   UNL     1       2.954   3.779  18.071  0.00  0.00    +0.000 A 
BRANCH  26  27
ATOM     27  O   UNL     1       3.519   4.182  16.897  0.00  0.00    +0.000 OA
ATOM     28  H   UNL     1       4.278   4.758  17.085  0.00  0.00    +0.000 HD
ENDBRANCH  26  27
ENDBRANCH  19  20
ENDBRANCH  17  18
ENDBRANCH  16  17
ENDBRANCH   1  16
TORSDOF 10
ENDMDL
MODEL 9
REMARK VINA RESULT:      -7.0      4.838      6.022
REMARK  Name = 
REMARK  10 active torsions:
REMARK  status: ('A' for Active; 'I' for Inactive)
REMARK    1  A    between atoms: O_1  and  C_2
REMARK    2  A    between atoms: C_8  and  C_9
REMARK    3  A    between atoms: N_10  and  C_11
REMARK    4  A    between atoms: C_11  and  C_12
REMARK    5  A    between atoms: C_12  and  N_13
REMARK    6  A    between atoms: N_13  and  C_14
REMARK    7  A    between atoms: C_14  and  C_15
REMARK    8  A    between atoms: C_15  and  N_16
REMARK    9  A    between atoms: C_17  and  C_18
REMARK   10  A    between atoms: C_24  and  O_25
REMARK                            x       y       z     vdW  Elec       q    Type
REMARK                         _______ _______ _______ _____ _____    ______ ____
ROOT
ATOM      1  N   UNL     1       6.694   5.782  16.017  0.00  0.00    +0.000 NA
ATOM      2  H   UNL     1       6.101   5.590  15.209  0.00  0.00    +0.000 HD
ENDROOT
BRANCH   1   3
ATOM      3  C   UNL     1       6.843   4.546  16.800  0.00  0.00    +0.000 C 
BRANCH   3   4
ATOM      4  C   UNL     1       6.921   4.777  18.323  0.00  0.00    +0.000 C 
BRANCH   4   6
ATOM      5  C   UNL     1       4.838   3.752  18.180  0.00  0.00    +0.000 C 
ATOM      6  N   UNL     1       5.617   4.481  18.903  0.00  0.00    +0.000 NA
BRANCH   5  13
ATOM      7  C   UNL     1       2.390   3.327  17.809  0.00  0.00    +0.000 A 
ATOM      8  C   UNL     1       1.132   2.995  18.315  0.00  0.00    +0.000 A 
ATOM      9  C   UNL     1       0.973   2.755  19.684  0.00  0.00    +0.000 A 
ATOM     10  C   UNL     1       2.068   2.847  20.540  0.00  0.00    +0.000 A 
ATOM     11 CL   UNL     1       1.870   2.550  22.223  0.00  0.00    +0.000 Cl
ATOM     12  C   UNL     1       3.322   3.178  20.043  0.00  0.00    +0.000 A 
ATOM     13  C   UNL     1       3.487   3.414  18.672  0.00  0.00    +0.000 A 
BRANCH   7  14
ATOM     14  O   UNL     1       2.539   3.564  16.472  0.00  0.00    +0.000 OA
ATOM     15  H   UNL     1       2.293   2.767  15.975  0.00  0.00    +0.000 HD
ENDBRANCH   7  14
ENDBRANCH   5  13
ENDBRANCH   4   6
ENDBRANCH   3   4
ENDBRANCH   1   3
BRANCH   1  16
ATOM     16  C   UNL     1       6.085   6.868  16.795  0.00  0.00    +0.000 C 
BRANCH  16  17
ATOM     17  C   UNL     1       4.583   7.040  16.525  0.00  0.00    +0.000 C 
BRANCH  17  18
ATOM     18  N   UNL     1       3.940   7.449  17.773  0.00  0.00    +0.000 NA
ATOM     19  C   UNL     1       2.714   7.812  17.617  0.00  0.00    +0.000 C 
BRANCH  19  20
ATOM     20  C   UNL     1       1.947   8.318  18.771  0.00  0.00    +0.000 A 
ATOM     21  C   UNL     1       1.148   9.448  18.600  0.00  0.00    +0.000 A 
ATOM     22  C   UNL     1       0.381   9.918  19.663  0.00  0.00    +0.000 A 
ATOM     23 CL   UNL     1      -0.603  11.313  19.454  0.00  0.00    +0.000 Cl
ATOM     24  C   UNL     1       0.397   9.259  20.887  0.00  0.00    +0.000 A 
ATOM     25  C   UNL     1       1.204   8.127  21.062  0.00  0.00    +0.000 A 
ATOM     26  C   UNL     1       1.979   7.655  20.002  0.00  0.00    +0.000 A 
BRANCH  26  27
ATOM     27  O   UNL     1       2.761   6.550  20.167  0.00  0.00    +0.000 OA
ATOM     28  H   UNL     1       3.503   6.763  20.755  0.00  0.00    +0.000 HD
ENDBRANCH  26  27
ENDBRANCH  19  20
ENDBRANCH  17  18
ENDBRANCH  16  17
ENDBRANCH   1  16
TORSDOF 10
ENDMDL
