MODEL 1
REMARK VINA RESULT:      -7.8      0.000      0.000
REMARK  Name = 
REMARK  5 active torsions:
REMARK  status: ('A' for Active; 'I' for Inactive)
REMARK    1  A    between atoms: C_1  and  O_2
REMARK    2  A    between atoms: O_2  and  C_3
REMARK    3  A    between atoms: C_3  and  C_5
REMARK    4  A    between atoms: C_8  and  N_9
REMARK    5  A    between atoms: C_10  and  C_12
REMARK                            x       y       z     vdW  Elec       q    Type
REMARK                         _______ _______ _______ _____ _____    ______ ____
ROOT
ATOM      1  C   UNL     1       4.600   6.058  17.089  0.00  0.00    +0.000 A 
ATOM      2  C   UNL     1       3.818   6.746  18.016  0.00  0.00    +0.000 A 
ATOM      3  C   UNL     1       2.933   6.068  18.881  0.00  0.00    +0.000 A 
ATOM      4  C   UNL     1       2.065   6.704  19.816  0.00  0.00    +0.000 A 
ATOM      5  C   UNL     1       1.361   5.932  20.748  0.00  0.00    +0.000 A 
ATOM      6  C   UNL     1       1.426   4.545  20.691  0.00  0.00    +0.000 A 
ATOM      7  C   UNL     1       2.214   3.927  19.722  0.00  0.00    +0.000 A 
ATOM      8  C   UNL     1       2.979   4.657  18.825  0.00  0.00    +0.000 A 
ATOM      9  N   UNL     1       3.748   3.978  17.954  0.00  0.00    +0.000 NA
ATOM     10  C   UNL     1       4.527   4.681  17.096  0.00  0.00    +0.000 A 
ATOM     11 CL   UNL     1       5.481   3.649  16.101  0.00  0.00    +0.000 Cl
ENDROOT
BRANCH   4  12
ATOM     12  N   UNL     1       1.838   8.106  19.877  0.00  0.00    +0.000 N 
ATOM     13  C   UNL     1       1.329   8.843  18.814  0.00  0.00    +0.000 C 
ATOM     14  O   UNL     1       1.006   8.349  17.736  0.00  0.00    +0.000 OA
ATOM     15  H   UNL     1       1.643   8.481  20.796  0.00  0.00    +0.000 HD
BRANCH  13  16
ATOM     16  C   UNL     1       1.047  10.328  19.125  0.00  0.00    +0.000 C 
ATOM     17  C   UNL     1       2.071  11.287  18.469  0.00  0.00    +0.000 C 
ATOM     18  C   UNL     1       1.741  12.751  18.817  0.00  0.00    +0.000 C 
ATOM     19  C   UNL     1       0.340  13.098  18.291  0.00  0.00    +0.000 C 
ATOM     20  C   UNL     1      -0.703  12.169  18.929  0.00  0.00    +0.000 C 
ATOM     21  C   UNL     1      -0.676  12.351  20.454  0.00  0.00    +0.000 C 
ATOM     22  C   UNL     1       0.721  12.005  21.000  0.00  0.00    +0.000 C 
ATOM     23  C   UNL     1       1.764  12.927  20.347  0.00  0.00    +0.000 C 
ATOM     24  C   UNL     1       1.057  10.544  20.657  0.00  0.00    +0.000 C 
ATOM     25  C   UNL     1      -0.361  10.708  18.591  0.00  0.00    +0.000 C 
ENDBRANCH  13  16
ENDBRANCH   4  12
BRANCH   1  26
ATOM     26  C   UNL     1       5.459   6.854  16.201  0.00  0.00    +0.000 C 
ATOM     27  O   UNL     1       5.365   6.809  14.983  0.00  0.00    +0.000 OA
BRANCH  26  29
ATOM     28  C   UNL     1       7.455   6.628  17.383  0.00  0.00    +0.000 C 
ATOM     29  O   UNL     1       6.418   7.490  16.908  0.00  0.00    +0.000 OA
ENDBRANCH  26  29
ENDBRANCH   1  26
TORSDOF 4
ENDMDL
MODEL 2
REMARK VINA RESULT:      -7.7      2.144      4.066
REMARK  Name = 
REMARK  5 active torsions:
REMARK  status: ('A' for Active; 'I' for Inactive)
REMARK    1  A    between atoms: C_1  and  O_2
REMARK    2  A    between atoms: O_2  and  C_3
REMARK    3  A    between atoms: C_3  and  C_5
REMARK    4  A    between atoms: C_8  and  N_9
REMARK    5  A    between atoms: C_10  and  C_12
REMARK                            x       y       z     vdW  Elec       q    Type
REMARK                         _______ _______ _______ _____ _____    ______ ____
ROOT
ATOM      1  C   UNL     1       2.149   3.509  18.838  0.00  0.00    +0.000 A 
ATOM      2  C   UNL     1       2.137   4.896  18.694  0.00  0.00    +0.000 A 
ATOM      3  C   UNL     1       3.224   5.587  18.118  0.00  0.00    +0.000 A 
ATOM      4  C   UNL     1       3.308   7.004  17.985  0.00  0.00    +0.000 A 
ATOM      5  C   UNL     1       4.348   7.572  17.239  0.00  0.00    +0.000 A 
ATOM      6  C   UNL     1       5.353   6.765  16.721  0.00  0.00    +0.000 A 
ATOM      7  C   UNL     1       5.309   5.386  16.924  0.00  0.00    +0.000 A 
ATOM      8  C   UNL     1       4.260   4.779  17.599  0.00  0.00    +0.000 A 
ATOM      9  N   UNL     1       4.275   3.437  17.707  0.00  0.00    +0.000 NA
ATOM     10  C   UNL     1       3.238   2.829  18.332  0.00  0.00    +0.000 A 
ATOM     11 CL   UNL     1       3.398   1.115  18.324  0.00  0.00    +0.000 Cl
ENDROOT
BRANCH   4  12
ATOM     12  N   UNL     1       2.398   7.921  18.576  0.00  0.00    +0.000 N 
ATOM     13  C   UNL     1       2.150   9.189  18.061  0.00  0.00    +0.000 C 
ATOM     14  O   UNL     1       2.673   9.621  17.035  0.00  0.00    +0.000 OA
ATOM     15  H   UNL     1       1.636   7.511  19.100  0.00  0.00    +0.000 HD
BRANCH  13  16
ATOM     16  C   UNL     1       1.041   9.982  18.783  0.00  0.00    +0.000 C 
ATOM     17  C   UNL     1       0.778   9.478  20.224  0.00  0.00    +0.000 C 
ATOM     18  C   UNL     1      -0.339  10.304  20.890  0.00  0.00    +0.000 C 
ATOM     19  C   UNL     1       0.088  11.779  20.959  0.00  0.00    +0.000 C 
ATOM     20  C   UNL     1       0.349  12.314  19.543  0.00  0.00    +0.000 C 
ATOM     21  C   UNL     1      -0.939  12.197  18.713  0.00  0.00    +0.000 C 
ATOM     22  C   UNL     1      -1.380  10.725  18.632  0.00  0.00    +0.000 C 
ATOM     23  C   UNL     1      -1.625  10.189  20.053  0.00  0.00    +0.000 C 
ATOM     24  C   UNL     1      -0.270   9.894  17.966  0.00  0.00    +0.000 C 
ATOM     25  C   UNL     1       1.454  11.477  18.876  0.00  0.00    +0.000 C 
ENDBRANCH  13  16
ENDBRANCH   4  12
BRANCH   1  26
ATOM     26  C   UNL     1       0.990   2.884  19.490  0.00  0.00    +0.000 C 
ATOM     27  O   UNL     1       0.197   2.179  18.882  0.00  0.00    +0.000 OA
BRANCH  26  29
ATOM     28  C   UNL     1       1.727   2.649  21.688  0.00  0.00    +0.000 C 
ATOM     29  O   UNL     1       0.866   3.317  20.762  0.00  0.00    +0.000 OA
ENDBRANCH  26  29
ENDBRANCH   1  26
TORSDOF 4
ENDMDL
MODEL 3
REMARK VINA RESULT:      -7.6      2.142      4.015
REMARK  Name = 
REMARK  5 active torsions:
REMARK  status: ('A' for Active; 'I' for Inactive)
REMARK    1  A    between atoms: C_1  and  O_2
REMARK    2  A    between atoms: O_2  and  C_3
REMARK    3  A    between atoms: C_3  and  C_5
REMARK    4  A    between atoms: C_8  and  N_9
REMARK    5  A    between atoms: C_10  and  C_12
REMARK                            x       y       z     vdW  Elec       q    Type
REMARK                         _______ _______ _______ _____ _____    ______ ____
ROOT
ATOM      1  C   UNL     1       2.148   3.514  18.847  0.00  0.00    +0.000 A 
ATOM      2  C   UNL     1       2.150   4.902  18.715  0.00  0.00    +0.000 A 
ATOM      3  C   UNL     1       3.240   5.587  18.137  0.00  0.00    +0.000 A 
ATOM      4  C   UNL     1       3.337   7.004  18.016  0.00  0.00    +0.000 A 
ATOM      5  C   UNL     1       4.376   7.569  17.267  0.00  0.00    +0.000 A 
ATOM      6  C   UNL     1       5.369   6.755  16.734  0.00  0.00    +0.000 A 
ATOM      7  C   UNL     1       5.312   5.376  16.924  0.00  0.00    +0.000 A 
ATOM      8  C   UNL     1       4.262   4.773  17.602  0.00  0.00    +0.000 A 
ATOM      9  N   UNL     1       4.264   3.431  17.697  0.00  0.00    +0.000 NA
ATOM     10  C   UNL     1       3.225   2.827  18.326  0.00  0.00    +0.000 A 
ATOM     11 CL   UNL     1       3.367   1.112  18.300  0.00  0.00    +0.000 Cl
ENDROOT
BRANCH   4  12
ATOM     12  N   UNL     1       2.441   7.926  18.623  0.00  0.00    +0.000 N 
ATOM     13  C   UNL     1       2.123   9.160  18.067  0.00  0.00    +0.000 C 
ATOM     14  O   UNL     1       2.566   9.555  16.990  0.00  0.00    +0.000 OA
ATOM     15  H   UNL     1       1.728   7.522  19.216  0.00  0.00    +0.000 HD
BRANCH  13  16
ATOM     16  C   UNL     1       1.042   9.959  18.824  0.00  0.00    +0.000 C 
ATOM     17  C   UNL     1      -0.337   9.925  18.121  0.00  0.00    +0.000 C 
ATOM     18  C   UNL     1      -1.371  10.741  18.919  0.00  0.00    +0.000 C 
ATOM     19  C   UNL     1      -1.524  10.138  20.324  0.00  0.00    +0.000 C 
ATOM     20  C   UNL     1      -0.173  10.164  21.054  0.00  0.00    +0.000 C 
ATOM     21  C   UNL     1       0.307  11.618  21.177  0.00  0.00    +0.000 C 
ATOM     22  C   UNL     1       0.468  12.239  19.778  0.00  0.00    +0.000 C 
ATOM     23  C   UNL     1      -0.884  12.196  19.045  0.00  0.00    +0.000 C 
ATOM     24  C   UNL     1       1.500  11.429  18.974  0.00  0.00    +0.000 C 
ATOM     25  C   UNL     1       0.860   9.360  20.246  0.00  0.00    +0.000 C 
ENDBRANCH  13  16
ENDBRANCH   4  12
BRANCH   1  26
ATOM     26  C   UNL     1       0.988   2.895  19.502  0.00  0.00    +0.000 C 
ATOM     27  O   UNL     1       0.185   2.200  18.895  0.00  0.00    +0.000 OA
BRANCH  26  29
ATOM     28  C   UNL     1       1.740   2.642  21.693  0.00  0.00    +0.000 C 
ATOM     29  O   UNL     1       0.876   3.321  20.778  0.00  0.00    +0.000 OA
ENDBRANCH  26  29
ENDBRANCH   1  26
TORSDOF 4
ENDMDL
MODEL 4
REMARK VINA RESULT:      -7.6      0.096      1.428
REMARK  Name = 
REMARK  5 active torsions:
REMARK  status: ('A' for Active; 'I' for Inactive)
REMARK    1  A    between atoms: C_1  and  O_2
REMARK    2  A    between atoms: O_2  and  C_3
REMARK    3  A    between atoms: C_3  and  C_5
REMARK    4  A    between atoms: C_8  and  N_9
REMARK    5  A    between atoms: C_10  and  C_12
REMARK                            x       y       z     vdW  Elec       q    Type
REMARK                         _______ _______ _______ _____ _____    ______ ____
ROOT
ATOM      1  C   UNL     1       4.589   6.093  17.108  0.00  0.00    +0.000 A 
ATOM      2  C   UNL     1       3.803   6.786  18.029  0.00  0.00    +0.000 A 
ATOM      3  C   UNL     1       2.918   6.113  18.897  0.00  0.00    +0.000 A 
ATOM      4  C   UNL     1       2.046   6.754  19.825  0.00  0.00    +0.000 A 
ATOM      5  C   UNL     1       1.341   5.987  20.762  0.00  0.00    +0.000 A 
ATOM      6  C   UNL     1       1.410   4.600  20.716  0.00  0.00    +0.000 A 
ATOM      7  C   UNL     1       2.202   3.976  19.753  0.00  0.00    +0.000 A 
ATOM      8  C   UNL     1       2.967   4.702  18.852  0.00  0.00    +0.000 A 
ATOM      9  N   UNL     1       3.739   4.017  17.988  0.00  0.00    +0.000 NA
ATOM     10  C   UNL     1       4.519   4.715  17.126  0.00  0.00    +0.000 A 
ATOM     11 CL   UNL     1       5.477   3.678  16.142  0.00  0.00    +0.000 Cl
ENDROOT
BRANCH   4  12
ATOM     12  N   UNL     1       1.815   8.155  19.875  0.00  0.00    +0.000 N 
ATOM     13  C   UNL     1       1.291   8.881  18.811  0.00  0.00    +0.000 C 
ATOM     14  O   UNL     1       0.956   8.375  17.742  0.00  0.00    +0.000 OA
ATOM     15  H   UNL     1       1.630   8.539  20.793  0.00  0.00    +0.000 HD
BRANCH  13  16
ATOM     16  C   UNL     1       1.009  10.368  19.110  0.00  0.00    +0.000 C 
ATOM     17  C   UNL     1      -0.383  10.830  18.614  0.00  0.00    +0.000 C 
ATOM     18  C   UNL     1      -0.605  12.320  18.936  0.00  0.00    +0.000 C 
ATOM     19  C   UNL     1      -0.534  12.530  20.457  0.00  0.00    +0.000 C 
ATOM     20  C   UNL     1       0.841  12.089  20.981  0.00  0.00    +0.000 C 
ATOM     21  C   UNL     1       1.934  12.928  20.301  0.00  0.00    +0.000 C 
ATOM     22  C   UNL     1       1.878  12.728  18.777  0.00  0.00    +0.000 C 
ATOM     23  C   UNL     1       0.495  13.156  18.258  0.00  0.00    +0.000 C 
ATOM     24  C   UNL     1       2.100  11.241  18.447  0.00  0.00    +0.000 C 
ATOM     25  C   UNL     1       1.064  10.605  20.644  0.00  0.00    +0.000 C 
ENDBRANCH  13  16
ENDBRANCH   4  12
BRANCH   1  26
ATOM     26  C   UNL     1       5.447   6.884  16.217  0.00  0.00    +0.000 C 
ATOM     27  O   UNL     1       5.340   6.847  14.999  0.00  0.00    +0.000 OA
BRANCH  26  29
ATOM     28  C   UNL     1       7.450   6.627  17.380  0.00  0.00    +0.000 C 
ATOM     29  O   UNL     1       6.421   7.505  16.917  0.00  0.00    +0.000 OA
ENDBRANCH  26  29
ENDBRANCH   1  26
TORSDOF 4
ENDMDL
MODEL 5
REMARK VINA RESULT:      -7.6      0.072      1.415
REMARK  Name = 
REMARK  5 active torsions:
REMARK  status: ('A' for Active; 'I' for Inactive)
REMARK    1  A    between atoms: C_1  and  O_2
REMARK    2  A    between atoms: O_2  and  C_3
REMARK    3  A    between atoms: C_3  and  C_5
REMARK    4  A    between atoms: C_8  and  N_9
REMARK    5  A    between atoms: C_10  and  C_12
REMARK                            x       y       z     vdW  Elec       q    Type
REMARK                         _______ _______ _______ _____ _____    ______ ____
ROOT
ATOM      1  C   UNL     1       4.567   6.066  17.086  0.00  0.00    +0.000 A 
ATOM      2  C   UNL     1       3.786   6.739  18.025  0.00  0.00    +0.000 A 
ATOM      3  C   UNL     1       2.900   6.048  18.878  0.00  0.00    +0.000 A 
ATOM      4  C   UNL     1       2.032   6.670  19.823  0.00  0.00    +0.000 A 
ATOM      5  C   UNL     1       1.326   5.884  20.741  0.00  0.00    +0.000 A 
ATOM      6  C   UNL     1       1.389   4.498  20.661  0.00  0.00    +0.000 A 
ATOM      7  C   UNL     1       2.176   3.895  19.682  0.00  0.00    +0.000 A 
ATOM      8  C   UNL     1       2.943   4.639  18.798  0.00  0.00    +0.000 A 
ATOM      9  N   UNL     1       3.711   3.973  17.916  0.00  0.00    +0.000 NA
ATOM     10  C   UNL     1       4.492   4.688  17.071  0.00  0.00    +0.000 A 
ATOM     11 CL   UNL     1       5.444   3.672  16.059  0.00  0.00    +0.000 Cl
ENDROOT
BRANCH   4  12
ATOM     12  N   UNL     1       1.807   8.071  19.908  0.00  0.00    +0.000 N 
ATOM     13  C   UNL     1       1.310   8.829  18.853  0.00  0.00    +0.000 C 
ATOM     14  O   UNL     1       0.996   8.355  17.763  0.00  0.00    +0.000 OA
ATOM     15  H   UNL     1       1.604   8.430  20.831  0.00  0.00    +0.000 HD
BRANCH  13  16
ATOM     16  C   UNL     1       1.029  10.309  19.188  0.00  0.00    +0.000 C 
ATOM     17  C   UNL     1       1.105  10.610  20.705  0.00  0.00    +0.000 C 
ATOM     18  C   UNL     1       0.812  12.098  20.976  0.00  0.00    +0.000 C 
ATOM     19  C   UNL     1       1.854  12.964  20.253  0.00  0.00    +0.000 C 
ATOM     20  C   UNL     1       1.799  12.696  18.741  0.00  0.00    +0.000 C 
ATOM     21  C   UNL     1       0.397  13.045  18.217  0.00  0.00    +0.000 C 
ATOM     22  C   UNL     1      -0.660  12.184  18.930  0.00  0.00    +0.000 C 
ATOM     23  C   UNL     1      -0.591  12.445  20.445  0.00  0.00    +0.000 C 
ATOM     24  C   UNL     1      -0.374  10.696  18.663  0.00  0.00    +0.000 C 
ATOM     25  C   UNL     1       2.077  11.207  18.476  0.00  0.00    +0.000 C 
ENDBRANCH  13  16
ENDBRANCH   4  12
BRANCH   1  26
ATOM     26  C   UNL     1       5.428   6.875  16.213  0.00  0.00    +0.000 C 
ATOM     27  O   UNL     1       5.331   6.853  14.994  0.00  0.00    +0.000 OA
BRANCH  26  29
ATOM     28  C   UNL     1       7.451   6.628  17.342  0.00  0.00    +0.000 C 
ATOM     29  O   UNL     1       6.391   7.493  16.930  0.00  0.00    +0.000 OA
ENDBRANCH  26  29
ENDBRANCH   1  26
TORSDOF 4
ENDMDL
MODEL 6
REMARK VINA RESULT:      -7.6      2.149      3.833
REMARK  Name = 
REMARK  5 active torsions:
REMARK  status: ('A' for Active; 'I' for Inactive)
REMARK    1  A    between atoms: C_1  and  O_2
REMARK    2  A    between atoms: O_2  and  C_3
REMARK    3  A    between atoms: C_3  and  C_5
REMARK    4  A    between atoms: C_8  and  N_9
REMARK    5  A    between atoms: C_10  and  C_12
REMARK                            x       y       z     vdW  Elec       q    Type
REMARK                         _______ _______ _______ _____ _____    ______ ____
ROOT
ATOM      1  C   UNL     1       2.146   3.520  18.826  0.00  0.00    +0.000 A 
ATOM      2  C   UNL     1       2.135   4.907  18.681  0.00  0.00    +0.000 A 
ATOM      3  C   UNL     1       3.217   5.595  18.091  0.00  0.00    +0.000 A 
ATOM      4  C   UNL     1       3.302   7.011  17.956  0.00  0.00    +0.000 A 
ATOM      5  C   UNL     1       4.333   7.577  17.197  0.00  0.00    +0.000 A 
ATOM      6  C   UNL     1       5.330   6.767  16.667  0.00  0.00    +0.000 A 
ATOM      7  C   UNL     1       5.285   5.389  16.871  0.00  0.00    +0.000 A 
ATOM      8  C   UNL     1       4.244   4.784  17.560  0.00  0.00    +0.000 A 
ATOM      9  N   UNL     1       4.256   3.443  17.668  0.00  0.00    +0.000 NA
ATOM     10  C   UNL     1       3.226   2.837  18.307  0.00  0.00    +0.000 A 
ATOM     11 CL   UNL     1       3.382   1.123  18.297  0.00  0.00    +0.000 Cl
ENDROOT
BRANCH   4  12
ATOM     12  N   UNL     1       2.401   7.932  18.558  0.00  0.00    +0.000 N 
ATOM     13  C   UNL     1       2.176   9.212  18.066  0.00  0.00    +0.000 C 
ATOM     14  O   UNL     1       2.714   9.656  17.053  0.00  0.00    +0.000 OA
ATOM     15  H   UNL     1       1.629   7.523  19.069  0.00  0.00    +0.000 HD
BRANCH  13  16
ATOM     16  C   UNL     1       1.074  10.009  18.795  0.00  0.00    +0.000 C 
ATOM     17  C   UNL     1       1.401  11.518  18.919  0.00  0.00    +0.000 C 
ATOM     18  C   UNL     1       0.269  12.257  19.657  0.00  0.00    +0.000 C 
ATOM     19  C   UNL     1      -1.041  12.103  18.870  0.00  0.00    +0.000 C 
ATOM     20  C   UNL     1      -1.400  10.615  18.736  0.00  0.00    +0.000 C 
ATOM     21  C   UNL     1      -1.576  10.011  20.138  0.00  0.00    +0.000 C 
ATOM     22  C   UNL     1      -0.272  10.155  20.941  0.00  0.00    +0.000 C 
ATOM     23  C   UNL     1       0.092  11.645  21.058  0.00  0.00    +0.000 C 
ATOM     24  C   UNL     1       0.863   9.417  20.209  0.00  0.00    +0.000 C 
ATOM     25  C   UNL     1      -0.261   9.879  18.012  0.00  0.00    +0.000 C 
ENDBRANCH  13  16
ENDBRANCH   4  12
BRANCH   1  26
ATOM     26  C   UNL     1       0.993   2.898  19.492  0.00  0.00    +0.000 C 
ATOM     27  O   UNL     1       0.192   2.192  18.895  0.00  0.00    +0.000 OA
BRANCH  26  29
ATOM     28  C   UNL     1       1.728   2.641  21.689  0.00  0.00    +0.000 C 
ATOM     29  O   UNL     1       0.884   3.334  20.766  0.00  0.00    +0.000 OA
ENDBRANCH  26  29
ENDBRANCH   1  26
TORSDOF 4
ENDMDL
MODEL 7
REMARK VINA RESULT:      -7.5      1.526      1.944
REMARK  Name = 
REMARK  5 active torsions:
REMARK  status: ('A' for Active; 'I' for Inactive)
REMARK    1  A    between atoms: C_1  and  O_2
REMARK    2  A    between atoms: O_2  and  C_3
REMARK    3  A    between atoms: C_3  and  C_5
REMARK    4  A    between atoms: C_8  and  N_9
REMARK    5  A    between atoms: C_10  and  C_12
REMARK                            x       y       z     vdW  Elec       q    Type
REMARK                         _______ _______ _______ _____ _____    ______ ____
ROOT
ATOM      1  C   UNL     1       6.213   6.164  17.749  0.00  0.00    +0.000 A 
ATOM      2  C   UNL     1       4.936   6.520  18.180  0.00  0.00    +0.000 A 
ATOM      3  C   UNL     1       3.819   5.690  17.943  0.00  0.00    +0.000 A 
ATOM      4  C   UNL     1       2.478   6.010  18.306  0.00  0.00    +0.000 A 
ATOM      5  C   UNL     1       1.475   5.041  18.186  0.00  0.00    +0.000 A 
ATOM      6  C   UNL     1       1.766   3.807  17.615  0.00  0.00    +0.000 A 
ATOM      7  C   UNL     1       3.063   3.530  17.188  0.00  0.00    +0.000 A 
ATOM      8  C   UNL     1       4.099   4.439  17.352  0.00  0.00    +0.000 A 
ATOM      9  N   UNL     1       5.329   4.068  16.954  0.00  0.00    +0.000 NA
ATOM     10  C   UNL     1       6.356   4.933  17.141  0.00  0.00    +0.000 A 
ATOM     11 CL   UNL     1       7.859   4.269  16.627  0.00  0.00    +0.000 Cl
ENDROOT
BRANCH   4  12
ATOM     12  N   UNL     1       2.056   7.280  18.786  0.00  0.00    +0.000 N 
ATOM     13  C   UNL     1       2.029   8.424  17.997  0.00  0.00    +0.000 C 
ATOM     14  O   UNL     1       2.342   8.438  16.807  0.00  0.00    +0.000 OA
ATOM     15  H   UNL     1       1.390   7.264  19.547  0.00  0.00    +0.000 HD
BRANCH  13  16
ATOM     16  C   UNL     1       1.428   9.672  18.675  0.00  0.00    +0.000 C 
ATOM     17  C   UNL     1       2.224  10.966  18.375  0.00  0.00    +0.000 C 
ATOM     18  C   UNL     1       1.580  12.174  19.081  0.00  0.00    +0.000 C 
ATOM     19  C   UNL     1       0.142  12.356  18.572  0.00  0.00    +0.000 C 
ATOM     20  C   UNL     1      -0.680  11.091  18.863  0.00  0.00    +0.000 C 
ATOM     21  C   UNL     1      -0.706  10.844  20.379  0.00  0.00    +0.000 C 
ATOM     22  C   UNL     1       0.727  10.657  20.906  0.00  0.00    +0.000 C 
ATOM     23  C   UNL     1       1.550  11.919  20.599  0.00  0.00    +0.000 C 
ATOM     24  C   UNL     1       1.377   9.451  20.206  0.00  0.00    +0.000 C 
ATOM     25  C   UNL     1      -0.025   9.886  18.168  0.00  0.00    +0.000 C 
ENDBRANCH  13  16
ENDBRANCH   4  12
BRANCH   1  26
ATOM     26  C   UNL     1       7.305   7.113  18.004  0.00  0.00    +0.000 C 
ATOM     27  O   UNL     1       8.166   6.911  18.848  0.00  0.00    +0.000 OA
BRANCH  26  29
ATOM     28  C   UNL     1       7.972   9.326  17.707  0.00  0.00    +0.000 C 
ATOM     29  O   UNL     1       7.124   8.250  17.299  0.00  0.00    +0.000 OA
ENDBRANCH  26  29
ENDBRANCH   1  26
TORSDOF 4
ENDMDL
MODEL 8
REMARK VINA RESULT:      -7.4      1.515      2.394
REMARK  Name = 
REMARK  5 active torsions:
REMARK  status: ('A' for Active; 'I' for Inactive)
REMARK    1  A    between atoms: C_1  and  O_2
REMARK    2  A    between atoms: O_2  and  C_3
REMARK    3  A    between atoms: C_3  and  C_5
REMARK    4  A    between atoms: C_8  and  N_9
REMARK    5  A    between atoms: C_10  and  C_12
REMARK                            x       y       z     vdW  Elec       q    Type
REMARK                         _______ _______ _______ _____ _____    ______ ____
ROOT
ATOM      1  C   UNL     1       6.198   6.163  17.734  0.00  0.00    +0.000 A 
ATOM      2  C   UNL     1       4.923   6.510  18.179  0.00  0.00    +0.000 A 
ATOM      3  C   UNL     1       3.808   5.680  17.939  0.00  0.00    +0.000 A 
ATOM      4  C   UNL     1       2.468   5.991  18.315  0.00  0.00    +0.000 A 
ATOM      5  C   UNL     1       1.467   5.020  18.189  0.00  0.00    +0.000 A 
ATOM      6  C   UNL     1       1.758   3.795  17.600  0.00  0.00    +0.000 A 
ATOM      7  C   UNL     1       3.053   3.527  17.160  0.00  0.00    +0.000 A 
ATOM      8  C   UNL     1       4.086   4.437  17.328  0.00  0.00    +0.000 A 
ATOM      9  N   UNL     1       5.315   4.076  16.917  0.00  0.00    +0.000 NA
ATOM     10  C   UNL     1       6.341   4.942  17.109  0.00  0.00    +0.000 A 
ATOM     11 CL   UNL     1       7.841   4.289  16.575  0.00  0.00    +0.000 Cl
ENDROOT
BRANCH   4  12
ATOM     12  N   UNL     1       2.046   7.252  18.816  0.00  0.00    +0.000 N 
ATOM     13  C   UNL     1       2.000   8.405  18.039  0.00  0.00    +0.000 C 
ATOM     14  O   UNL     1       2.295   8.433  16.846  0.00  0.00    +0.000 OA
ATOM     15  H   UNL     1       1.391   7.224  19.586  0.00  0.00    +0.000 HD
BRANCH  13  16
ATOM     16  C   UNL     1       1.402   9.642  18.740  0.00  0.00    +0.000 C 
ATOM     17  C   UNL     1       1.392   9.516  20.284  0.00  0.00    +0.000 C 
ATOM     18  C   UNL     1       0.781  10.776  20.925  0.00  0.00    +0.000 C 
ATOM     19  C   UNL     1       1.621  12.004  20.540  0.00  0.00    +0.000 C 
ATOM     20  C   UNL     1       1.644  12.164  19.013  0.00  0.00    +0.000 C 
ATOM     21  C   UNL     1       0.207  12.352  18.502  0.00  0.00    +0.000 C 
ATOM     22  C   UNL     1      -0.649  11.130  18.878  0.00  0.00    +0.000 C 
ATOM     23  C   UNL     1      -0.656  10.965  20.407  0.00  0.00    +0.000 C 
ATOM     24  C   UNL     1      -0.045   9.867  18.239  0.00  0.00    +0.000 C 
ATOM     25  C   UNL     1       2.241  10.898  18.376  0.00  0.00    +0.000 C 
ENDBRANCH  13  16
ENDBRANCH   4  12
BRANCH   1  26
ATOM     26  C   UNL     1       7.290   7.112  17.993  0.00  0.00    +0.000 C 
ATOM     27  O   UNL     1       8.154   6.905  18.833  0.00  0.00    +0.000 OA
BRANCH  26  29
ATOM     28  C   UNL     1       7.951   9.329  17.715  0.00  0.00    +0.000 C 
ATOM     29  O   UNL     1       7.104   8.255  17.298  0.00  0.00    +0.000 OA
ENDBRANCH  26  29
ENDBRANCH   1  26
TORSDOF 4
ENDMDL
MODEL 9
REMARK VINA RESULT:      -7.3      2.047      3.799
REMARK  Name = 
REMARK  5 active torsions:
REMARK  status: ('A' for Active; 'I' for Inactive)
REMARK    1  A    between atoms: C_1  and  O_2
REMARK    2  A    between atoms: O_2  and  C_3
REMARK    3  A    between atoms: C_3  and  C_5
REMARK    4  A    between atoms: C_8  and  N_9
REMARK    5  A    between atoms: C_10  and  C_12
REMARK                            x       y       z     vdW  Elec       q    Type
REMARK                         _______ _______ _______ _____ _____    ______ ____
ROOT
ATOM      1  C   UNL     1       2.945   4.238  19.808  0.00  0.00    +0.000 A 
ATOM      2  C   UNL     1       2.884   5.512  19.243  0.00  0.00    +0.000 A 
ATOM      3  C   UNL     1       3.751   5.897  18.199  0.00  0.00    +0.000 A 
ATOM      4  C   UNL     1       3.785   7.194  17.608  0.00  0.00    +0.000 A 
ATOM      5  C   UNL     1       4.557   7.417  16.461  0.00  0.00    +0.000 A 
ATOM      6  C   UNL     1       5.370   6.405  15.965  0.00  0.00    +0.000 A 
ATOM      7  C   UNL     1       5.395   5.163  16.596  0.00  0.00    +0.000 A 
ATOM      8  C   UNL     1       4.594   4.882  17.693  0.00  0.00    +0.000 A 
ATOM      9  N   UNL     1       4.646   3.641  18.210  0.00  0.00    +0.000 NA
ATOM     10  C   UNL     1       3.841   3.344  19.259  0.00  0.00    +0.000 A 
ATOM     11 CL   UNL     1       4.001   1.701  19.747  0.00  0.00    +0.000 Cl
ENDROOT
BRANCH   4  12
ATOM     12  N   UNL     1       3.083   8.324  18.109  0.00  0.00    +0.000 N 
ATOM     13  C   UNL     1       1.731   8.547  17.876  0.00  0.00    +0.000 C 
ATOM     14  O   UNL     1       1.013   7.778  17.240  0.00  0.00    +0.000 OA
ATOM     15  H   UNL     1       3.447   8.725  18.963  0.00  0.00    +0.000 HD
BRANCH  13  16
ATOM     16  C   UNL     1       1.135   9.769  18.606  0.00  0.00    +0.000 C 
ATOM     17  C   UNL     1       1.940  11.070  18.365  0.00  0.00    +0.000 C 
ATOM     18  C   UNL     1       1.301  12.250  19.120  0.00  0.00    +0.000 C 
ATOM     19  C   UNL     1      -0.134  12.463  18.615  0.00  0.00    +0.000 C 
ATOM     20  C   UNL     1      -0.965  11.192  18.848  0.00  0.00    +0.000 C 
ATOM     21  C   UNL     1      -0.998  10.879  20.352  0.00  0.00    +0.000 C 
ATOM     22  C   UNL     1       0.432  10.661  20.875  0.00  0.00    +0.000 C 
ATOM     23  C   UNL     1       1.265  11.930  20.626  0.00  0.00    +0.000 C 
ATOM     24  C   UNL     1       1.077   9.482  20.126  0.00  0.00    +0.000 C 
ATOM     25  C   UNL     1      -0.315  10.014  18.104  0.00  0.00    +0.000 C 
ENDBRANCH  13  16
ENDBRANCH   4  12
BRANCH   1  26
ATOM     26  C   UNL     1       2.031   3.944  20.920  0.00  0.00    +0.000 C 
ATOM     27  O   UNL     1       2.431   3.688  22.048  0.00  0.00    +0.000 OA
BRANCH  26  29
ATOM     28  C   UNL     1       0.542   2.808  19.534  0.00  0.00    +0.000 C 
ATOM     29  O   UNL     1       0.757   3.857  20.482  0.00  0.00    +0.000 OA
ENDBRANCH  26  29
ENDBRANCH   1  26
TORSDOF 4
ENDMDL
