MODEL 1
REMARK VINA RESULT:      -7.7      0.000      0.000
REMARK  Name = 
REMARK  9 active torsions:
REMARK  status: ('A' for Active; 'I' for Inactive)
REMARK    1  A    between atoms: C_1  and  C_2
REMARK    2  A    between atoms: C_2  and  O_3
REMARK    3  A    between atoms: O_3  and  C_4
REMARK    4  A    between atoms: C_4  and  C_5
REMARK    5  A    between atoms: C_4  and  C_9
REMARK    6  A    between atoms: C_5  and  C_6
REMARK    7  A    between atoms: C_6  and  O_8
REMARK    8  A    between atoms: C_12  and  O_13
REMARK    9  A    between atoms: O_13  and  C_14
REMARK                            x       y       z     vdW  Elec       q    Type
REMARK                         _______ _______ _______ _____ _____    ______ ____
ROOT
ATOM      1  C   UNL     1      -0.315  10.180  19.065  0.00  0.00    +0.000 A 
ATOM      2  C   UNL     1       0.606   9.812  18.066  0.00  0.00    +0.000 A 
ATOM      3  C   UNL     1       1.574   8.817  18.320  0.00  0.00    +0.000 A 
ATOM      4  C   UNL     1       1.737   8.304  19.615  0.00  0.00    +0.000 A 
ATOM      5  C   UNL     1       0.895   8.767  20.610  0.00  0.00    +0.000 A 
ATOM      6  C   UNL     1      -0.129   9.655  20.342  0.00  0.00    +0.000 A 
ENDROOT
BRANCH   1   7
ATOM      7  C   UNL     1      -1.567  10.991  18.738  0.00  0.00    +0.000 C 
BRANCH   7   8
ATOM      8  O   UNL     1      -1.035  12.222  18.177  0.00  0.00    +0.000 OA
BRANCH   8  10
ATOM      9  C   UNL     1      -0.259  14.502  18.755  0.00  0.00    +0.000 C 
ATOM     10  C   UNL     1      -0.696  13.143  19.199  0.00  0.00    +0.000 C 
ENDBRANCH   8  10
ENDBRANCH   7   8
BRANCH   7  11
ATOM     11  C   UNL     1      -2.521  10.248  17.751  0.00  0.00    +0.000 C 
BRANCH  11  12
ATOM     12  C   UNL     1      -3.063  11.106  16.619  0.00  0.00    +0.000 C 
ATOM     13  O   UNL     1      -2.753  10.992  15.442  0.00  0.00    +0.000 OA
BRANCH  12  14
ATOM     14  O   UNL     1      -3.966  12.040  16.980  0.00  0.00    +0.000 OA
ATOM     15  H   UNL     1      -3.913  12.371  17.893  0.00  0.00    +0.000 HD
ENDBRANCH  12  14
ENDBRANCH  11  12
ENDBRANCH   7  11
ENDBRANCH   1   7
BRANCH   4  16
ATOM     16  O   UNL     1       2.721   7.377  19.869  0.00  0.00    +0.000 OA
BRANCH  16  17
ATOM     17  C   UNL     1       2.701   6.141  19.210  0.00  0.00    +0.000 A 
ATOM     18  C   UNL     1       1.867   5.174  19.835  0.00  0.00    +0.000 A 
ATOM     19  C   UNL     1       1.895   3.856  19.408  0.00  0.00    +0.000 A 
ATOM     20  C   UNL     1       2.735   3.521  18.347  0.00  0.00    +0.000 A 
ATOM     21 CL   UNL     1       2.610   1.905  17.712  0.00  0.00    +0.000 Cl
ATOM     22  C   UNL     1       3.587   4.478  17.720  0.00  0.00    +0.000 A 
ATOM     23  C   UNL     1       4.593   4.122  16.817  0.00  0.00    +0.000 A 
ATOM     24  C   UNL     1       5.571   5.042  16.367  0.00  0.00    +0.000 A 
ATOM     25  C   UNL     1       5.174   6.292  15.950  0.00  0.00    +0.000 A 
ATOM     26  C   UNL     1       4.429   6.655  17.074  0.00  0.00    +0.000 A 
ATOM     27  C   UNL     1       3.572   5.820  18.048  0.00  0.00    +0.000 A 
ENDBRANCH  16  17
ENDBRANCH   4  16
TORSDOF 8
ENDMDL
MODEL 2
REMARK VINA RESULT:      -7.6      0.686      1.220
REMARK  Name = 
REMARK  9 active torsions:
REMARK  status: ('A' for Active; 'I' for Inactive)
REMARK    1  A    between atoms: C_1  and  C_2
REMARK    2  A    between atoms: C_2  and  O_3
REMARK    3  A    between atoms: O_3  and  C_4
REMARK    4  A    between atoms: C_4  and  C_5
REMARK    5  A    between atoms: C_4  and  C_9
REMARK    6  A    between atoms: C_5  and  C_6
REMARK    7  A    between atoms: C_6  and  O_8
REMARK    8  A    between atoms: C_12  and  O_13
REMARK    9  A    between atoms: O_13  and  C_14
REMARK                            x       y       z     vdW  Elec       q    Type
REMARK                         _______ _______ _______ _____ _____    ______ ____
ROOT
ATOM      1  C   UNL     1      -0.259  10.410  19.414  0.00  0.00    +0.000 A 
ATOM      2  C   UNL     1      -0.268   9.688  20.623  0.00  0.00    +0.000 A 
ATOM      3  C   UNL     1       0.725   8.719  20.883  0.00  0.00    +0.000 A 
ATOM      4  C   UNL     1       1.630   8.347  19.878  0.00  0.00    +0.000 A 
ATOM      5  C   UNL     1       1.546   8.989  18.655  0.00  0.00    +0.000 A 
ATOM      6  C   UNL     1       0.652  10.019  18.434  0.00  0.00    +0.000 A 
ENDROOT
BRANCH   1   7
ATOM      7  C   UNL     1      -1.093  11.675  19.233  0.00  0.00    +0.000 C 
BRANCH   7   8
ATOM      8  O   UNL     1      -0.280  12.494  18.350  0.00  0.00    +0.000 OA
BRANCH   8  10
ATOM      9  C   UNL     1       1.008  14.555  18.826  0.00  0.00    +0.000 C 
ATOM     10  C   UNL     1      -0.310  13.854  18.745  0.00  0.00    +0.000 C 
ENDBRANCH   8  10
ENDBRANCH   7   8
BRANCH   7  11
ATOM     11  C   UNL     1      -2.508  11.379  18.641  0.00  0.00    +0.000 C 
BRANCH  11  12
ATOM     12  C   UNL     1      -2.507  10.891  17.202  0.00  0.00    +0.000 C 
ATOM     13  O   UNL     1      -2.847   9.774  16.839  0.00  0.00    +0.000 OA
BRANCH  12  14
ATOM     14  O   UNL     1      -2.113  11.796  16.282  0.00  0.00    +0.000 OA
ATOM     15  H   UNL     1      -1.163  12.001  16.249  0.00  0.00    +0.000 HD
ENDBRANCH  12  14
ENDBRANCH  11  12
ENDBRANCH   7  11
ENDBRANCH   1   7
BRANCH   4  16
ATOM     16  O   UNL     1       2.558   7.361  20.119  0.00  0.00    +0.000 OA
BRANCH  16  17
ATOM     17  C   UNL     1       2.529   6.177  19.369  0.00  0.00    +0.000 A 
ATOM     18  C   UNL     1       1.679   5.177  19.913  0.00  0.00    +0.000 A 
ATOM     19  C   UNL     1       1.695   3.894  19.389  0.00  0.00    +0.000 A 
ATOM     20  C   UNL     1       2.539   3.630  18.312  0.00  0.00    +0.000 A 
ATOM     21 CL   UNL     1       2.401   2.067  17.556  0.00  0.00    +0.000 Cl
ATOM     22  C   UNL     1       3.407   4.621  17.764  0.00  0.00    +0.000 A 
ATOM     23  C   UNL     1       4.417   4.321  16.844  0.00  0.00    +0.000 A 
ATOM     24  C   UNL     1       5.408   5.260  16.472  0.00  0.00    +0.000 A 
ATOM     25  C   UNL     1       5.029   6.543  16.147  0.00  0.00    +0.000 A 
ATOM     26  C   UNL     1       4.279   6.830  17.289  0.00  0.00    +0.000 A 
ATOM     27  C   UNL     1       3.405   5.934  18.192  0.00  0.00    +0.000 A 
ENDBRANCH  16  17
ENDBRANCH   4  16
TORSDOF 8
ENDMDL
MODEL 3
REMARK VINA RESULT:      -7.4      3.140      8.542
REMARK  Name = 
REMARK  9 active torsions:
REMARK  status: ('A' for Active; 'I' for Inactive)
REMARK    1  A    between atoms: C_1  and  C_2
REMARK    2  A    between atoms: C_2  and  O_3
REMARK    3  A    between atoms: O_3  and  C_4
REMARK    4  A    between atoms: C_4  and  C_5
REMARK    5  A    between atoms: C_4  and  C_9
REMARK    6  A    between atoms: C_5  and  C_6
REMARK    7  A    between atoms: C_6  and  O_8
REMARK    8  A    between atoms: C_12  and  O_13
REMARK    9  A    between atoms: O_13  and  C_14
REMARK                            x       y       z     vdW  Elec       q    Type
REMARK                         _______ _______ _______ _____ _____    ______ ____
ROOT
ATOM      1  C   UNL     1       2.484   6.903  19.337  0.00  0.00    +0.000 A 
ATOM      2  C   UNL     1       1.846   7.638  20.354  0.00  0.00    +0.000 A 
ATOM      3  C   UNL     1       1.174   8.841  20.051  0.00  0.00    +0.000 A 
ATOM      4  C   UNL     1       1.273   9.402  18.769  0.00  0.00    +0.000 A 
ATOM      5  C   UNL     1       2.004   8.720  17.814  0.00  0.00    +0.000 A 
ATOM      6  C   UNL     1       2.568   7.485  18.073  0.00  0.00    +0.000 A 
ENDROOT
BRANCH   1   7
ATOM      7  C   UNL     1       2.927   5.458  19.553  0.00  0.00    +0.000 C 
BRANCH   7   8
ATOM      8  O   UNL     1       2.181   4.721  18.546  0.00  0.00    +0.000 OA
BRANCH   8  10
ATOM      9  C   UNL     1       1.151   3.821  20.610  0.00  0.00    +0.000 C 
ATOM     10  C   UNL     1       1.392   3.705  19.139  0.00  0.00    +0.000 C 
ENDBRANCH   8  10
ENDBRANCH   7   8
BRANCH   7  11
ATOM     11  C   UNL     1       4.471   5.277  19.406  0.00  0.00    +0.000 C 
BRANCH  11  12
ATOM     12  C   UNL     1       4.913   4.582  18.128  0.00  0.00    +0.000 C 
ATOM     13  O   UNL     1       5.349   5.147  17.136  0.00  0.00    +0.000 OA
BRANCH  12  14
ATOM     14  O   UNL     1       4.820   3.236  18.138  0.00  0.00    +0.000 OA
ATOM     15  H   UNL     1       5.430   2.750  17.558  0.00  0.00    +0.000 HD
ENDBRANCH  12  14
ENDBRANCH  11  12
ENDBRANCH   7  11
ENDBRANCH   1   7
BRANCH   4  16
ATOM     16  O   UNL     1       0.663  10.605  18.496  0.00  0.00    +0.000 OA
BRANCH  16  17
ATOM     17  C   UNL     1      -0.735  10.692  18.487  0.00  0.00    +0.000 A 
ATOM     18  C   UNL     1      -1.339  10.058  17.368  0.00  0.00    +0.000 A 
ATOM     19  C   UNL     1      -2.694  10.225  17.126  0.00  0.00    +0.000 A 
ATOM     20  C   UNL     1      -3.435  11.000  18.016  0.00  0.00    +0.000 A 
ATOM     21 CL   UNL     1      -5.162  11.037  17.794  0.00  0.00    +0.000 Cl
ATOM     22  C   UNL     1      -2.839  11.652  19.136  0.00  0.00    +0.000 A 
ATOM     23  C   UNL     1      -3.510  12.609  19.903  0.00  0.00    +0.000 A 
ATOM     24  C   UNL     1      -2.851  13.407  20.869  0.00  0.00    +0.000 A 
ATOM     25  C   UNL     1      -1.990  12.807  21.760  0.00  0.00    +0.000 A 
ATOM     26  C   UNL     1      -1.187  12.127  20.843  0.00  0.00    +0.000 A 
ATOM     27  C   UNL     1      -1.511  11.486  19.477  0.00  0.00    +0.000 A 
ENDBRANCH  16  17
ENDBRANCH   4  16
TORSDOF 8
ENDMDL
MODEL 4
REMARK VINA RESULT:      -7.4      1.309      2.491
REMARK  Name = 
REMARK  9 active torsions:
REMARK  status: ('A' for Active; 'I' for Inactive)
REMARK    1  A    between atoms: C_1  and  C_2
REMARK    2  A    between atoms: C_2  and  O_3
REMARK    3  A    between atoms: O_3  and  C_4
REMARK    4  A    between atoms: C_4  and  C_5
REMARK    5  A    between atoms: C_4  and  C_9
REMARK    6  A    between atoms: C_5  and  C_6
REMARK    7  A    between atoms: C_6  and  O_8
REMARK    8  A    between atoms: C_12  and  O_13
REMARK    9  A    between atoms: O_13  and  C_14
REMARK                            x       y       z     vdW  Elec       q    Type
REMARK                         _______ _______ _______ _____ _____    ______ ____
ROOT
ATOM      1  C   UNL     1      -0.331  10.412  19.068  0.00  0.00    +0.000 A 
ATOM      2  C   UNL     1      -0.372   9.855  20.360  0.00  0.00    +0.000 A 
ATOM      3  C   UNL     1       0.612   8.931  20.771  0.00  0.00    +0.000 A 
ATOM      4  C   UNL     1       1.543   8.434  19.848  0.00  0.00    +0.000 A 
ATOM      5  C   UNL     1       1.493   8.910  18.550  0.00  0.00    +0.000 A 
ATOM      6  C   UNL     1       0.606   9.899  18.172  0.00  0.00    +0.000 A 
ENDROOT
BRANCH   1   7
ATOM      7  C   UNL     1      -1.159  11.641  18.701  0.00  0.00    +0.000 C 
BRANCH   7   8
ATOM      8  O   UNL     1      -2.468  11.088  18.397  0.00  0.00    +0.000 OA
BRANCH   8  10
ATOM      9  C   UNL     1      -2.620   9.984  16.185  0.00  0.00    +0.000 C 
ATOM     10  C   UNL     1      -2.768  11.216  17.018  0.00  0.00    +0.000 C 
ENDBRANCH   8  10
ENDBRANCH   7   8
BRANCH   7  11
ATOM     11  C   UNL     1      -1.208  12.696  19.851  0.00  0.00    +0.000 C 
BRANCH  11  12
ATOM     12  C   UNL     1      -2.552  12.815  20.551  0.00  0.00    +0.000 C 
ATOM     13  O   UNL     1      -2.787  12.435  21.689  0.00  0.00    +0.000 OA
BRANCH  12  14
ATOM     14  O   UNL     1      -3.528  13.408  19.834  0.00  0.00    +0.000 OA
ATOM     15  H   UNL     1      -4.437  13.096  19.989  0.00  0.00    +0.000 HD
ENDBRANCH  12  14
ENDBRANCH  11  12
ENDBRANCH   7  11
ENDBRANCH   1   7
BRANCH   4  16
ATOM     16  O   UNL     1       2.464   7.490  20.240  0.00  0.00    +0.000 OA
BRANCH  16  17
ATOM     17  C   UNL     1       2.404   6.194  19.711  0.00  0.00    +0.000 A 
ATOM     18  C   UNL     1       1.549   5.320  20.436  0.00  0.00    +0.000 A 
ATOM     19  C   UNL     1       1.537   3.965  20.145  0.00  0.00    +0.000 A 
ATOM     20  C   UNL     1       2.357   3.500  19.118  0.00  0.00    +0.000 A 
ATOM     21 CL   UNL     1       2.182   1.832  18.651  0.00  0.00    +0.000 Cl
ATOM     22  C   UNL     1       3.230   4.364  18.392  0.00  0.00    +0.000 A 
ATOM     23  C   UNL     1       4.218   3.890  17.523  0.00  0.00    +0.000 A 
ATOM     24  C   UNL     1       5.217   4.731  16.977  0.00  0.00    +0.000 A 
ATOM     25  C   UNL     1       4.851   5.944  16.438  0.00  0.00    +0.000 A 
ATOM     26  C   UNL     1       4.126   6.440  17.523  0.00  0.00    +0.000 A 
ATOM     27  C   UNL     1       3.255   5.732  18.582  0.00  0.00    +0.000 A 
ENDBRANCH  16  17
ENDBRANCH   4  16
TORSDOF 8
ENDMDL
MODEL 5
REMARK VINA RESULT:      -7.3      3.415      8.332
REMARK  Name = 
REMARK  9 active torsions:
REMARK  status: ('A' for Active; 'I' for Inactive)
REMARK    1  A    between atoms: C_1  and  C_2
REMARK    2  A    between atoms: C_2  and  O_3
REMARK    3  A    between atoms: O_3  and  C_4
REMARK    4  A    between atoms: C_4  and  C_5
REMARK    5  A    between atoms: C_4  and  C_9
REMARK    6  A    between atoms: C_5  and  C_6
REMARK    7  A    between atoms: C_6  and  O_8
REMARK    8  A    between atoms: C_12  and  O_13
REMARK    9  A    between atoms: O_13  and  C_14
REMARK                            x       y       z     vdW  Elec       q    Type
REMARK                         _______ _______ _______ _____ _____    ______ ____
ROOT
ATOM      1  C   UNL     1       2.187   7.185  19.441  0.00  0.00    +0.000 A 
ATOM      2  C   UNL     1       2.370   7.730  18.156  0.00  0.00    +0.000 A 
ATOM      3  C   UNL     1       2.074   9.088  17.908  0.00  0.00    +0.000 A 
ATOM      4  C   UNL     1       1.441   9.863  18.890  0.00  0.00    +0.000 A 
ATOM      5  C   UNL     1       1.163   9.272  20.109  0.00  0.00    +0.000 A 
ATOM      6  C   UNL     1       1.555   7.979  20.397  0.00  0.00    +0.000 A 
ENDROOT
BRANCH   1   7
ATOM      7  C   UNL     1       2.796   5.841  19.834  0.00  0.00    +0.000 C 
BRANCH   7   8
ATOM      8  O   UNL     1       1.785   4.880  19.428  0.00  0.00    +0.000 OA
BRANCH   8  10
ATOM      9  C   UNL     1       1.321   2.844  20.760  0.00  0.00    +0.000 C 
ATOM     10  C   UNL     1       1.138   4.314  20.554  0.00  0.00    +0.000 C 
ENDBRANCH   8  10
ENDBRANCH   7   8
BRANCH   7  11
ATOM     11  C   UNL     1       4.175   5.586  19.148  0.00  0.00    +0.000 C 
BRANCH  11  12
ATOM     12  C   UNL     1       4.484   4.125  18.861  0.00  0.00    +0.000 C 
ATOM     13  O   UNL     1       5.259   3.432  19.503  0.00  0.00    +0.000 OA
BRANCH  12  14
ATOM     14  O   UNL     1       3.816   3.585  17.821  0.00  0.00    +0.000 OA
ATOM     15  H   UNL     1       4.317   3.457  16.997  0.00  0.00    +0.000 HD
ENDBRANCH  12  14
ENDBRANCH  11  12
ENDBRANCH   7  11
ENDBRANCH   1   7
BRANCH   4  16
ATOM     16  O   UNL     1       1.102  11.169  18.621  0.00  0.00    +0.000 OA
BRANCH  16  17
ATOM     17  C   UNL     1      -0.200  11.619  18.876  0.00  0.00    +0.000 A 
ATOM     18  C   UNL     1      -0.281  12.559  19.939  0.00  0.00    +0.000 A 
ATOM     19  C   UNL     1      -1.519  12.947  20.427  0.00  0.00    +0.000 A 
ATOM     20  C   UNL     1      -2.662  12.413  19.835  0.00  0.00    +0.000 A 
ATOM     21 CL   UNL     1      -4.198  13.057  20.341  0.00  0.00    +0.000 Cl
ATOM     22  C   UNL     1      -2.594  11.458  18.776  0.00  0.00    +0.000 A 
ATOM     23  C   UNL     1      -3.709  10.745  18.325  0.00  0.00    +0.000 A 
ATOM     24  C   UNL     1      -3.601   9.651  17.433  0.00  0.00    +0.000 A 
ATOM     25  C   UNL     1      -2.807   9.773  16.315  0.00  0.00    +0.000 A 
ATOM     26  C   UNL     1      -1.635  10.200  16.943  0.00  0.00    +0.000 A 
ATOM     27  C   UNL     1      -1.403  11.069  18.196  0.00  0.00    +0.000 A 
ENDBRANCH  16  17
ENDBRANCH   4  16
TORSDOF 8
ENDMDL
MODEL 6
REMARK VINA RESULT:      -7.3      3.352      8.234
REMARK  Name = 
REMARK  9 active torsions:
REMARK  status: ('A' for Active; 'I' for Inactive)
REMARK    1  A    between atoms: C_1  and  C_2
REMARK    2  A    between atoms: C_2  and  O_3
REMARK    3  A    between atoms: O_3  and  C_4
REMARK    4  A    between atoms: C_4  and  C_5
REMARK    5  A    between atoms: C_4  and  C_9
REMARK    6  A    between atoms: C_5  and  C_6
REMARK    7  A    between atoms: C_6  and  O_8
REMARK    8  A    between atoms: C_12  and  O_13
REMARK    9  A    between atoms: O_13  and  C_14
REMARK                            x       y       z     vdW  Elec       q    Type
REMARK                         _______ _______ _______ _____ _____    ______ ____
ROOT
ATOM      1  C   UNL     1       2.170   7.106  19.343  0.00  0.00    +0.000 A 
ATOM      2  C   UNL     1       1.633   7.925  20.354  0.00  0.00    +0.000 A 
ATOM      3  C   UNL     1       1.226   9.245  20.061  0.00  0.00    +0.000 A 
ATOM      4  C   UNL     1       1.504   9.808  18.807  0.00  0.00    +0.000 A 
ATOM      5  C   UNL     1       2.139   9.019  17.865  0.00  0.00    +0.000 A 
ATOM      6  C   UNL     1       2.435   7.692  18.107  0.00  0.00    +0.000 A 
ENDROOT
BRANCH   1   7
ATOM      7  C   UNL     1       2.310   5.597  19.529  0.00  0.00    +0.000 C 
BRANCH   7   8
ATOM      8  O   UNL     1       3.692   5.433  19.946  0.00  0.00    +0.000 OA
BRANCH   8  10
ATOM      9  C   UNL     1       3.727   4.017  17.915  0.00  0.00    +0.000 C 
ATOM     10  C   UNL     1       4.468   4.838  18.921  0.00  0.00    +0.000 C 
ENDBRANCH   8  10
ENDBRANCH   7   8
BRANCH   7  11
ATOM     11  C   UNL     1       1.298   5.025  20.571  0.00  0.00    +0.000 C 
BRANCH  11  12
ATOM     12  C   UNL     1       1.552   3.584  20.984  0.00  0.00    +0.000 C 
ATOM     13  O   UNL     1       1.173   2.600  20.367  0.00  0.00    +0.000 OA
BRANCH  12  14
ATOM     14  O   UNL     1       2.272   3.424  22.113  0.00  0.00    +0.000 OA
ATOM     15  H   UNL     1       3.238   3.498  22.031  0.00  0.00    +0.000 HD
ENDBRANCH  12  14
ENDBRANCH  11  12
ENDBRANCH   7  11
ENDBRANCH   1   7
BRANCH   4  16
ATOM     16  O   UNL     1       1.156  11.114  18.547  0.00  0.00    +0.000 OA
BRANCH  16  17
ATOM     17  C   UNL     1      -0.141  11.560  18.831  0.00  0.00    +0.000 A 
ATOM     18  C   UNL     1      -0.205  12.476  19.916  0.00  0.00    +0.000 A 
ATOM     19  C   UNL     1      -1.435  12.854  20.430  0.00  0.00    +0.000 A 
ATOM     20  C   UNL     1      -2.588  12.335  19.842  0.00  0.00    +0.000 A 
ATOM     21 CL   UNL     1      -4.115  12.971  20.384  0.00  0.00    +0.000 Cl
ATOM     22  C   UNL     1      -2.537  11.405  18.762  0.00  0.00    +0.000 A 
ATOM     23  C   UNL     1      -3.660  10.703  18.311  0.00  0.00    +0.000 A 
ATOM     24  C   UNL     1      -3.566   9.630  17.393  0.00  0.00    +0.000 A 
ATOM     25  C   UNL     1      -2.788   9.776  16.267  0.00  0.00    +0.000 A 
ATOM     26  C   UNL     1      -1.606  10.186  16.887  0.00  0.00    +0.000 A 
ATOM     27  C   UNL     1      -1.355  11.027  18.156  0.00  0.00    +0.000 A 
ENDBRANCH  16  17
ENDBRANCH   4  16
TORSDOF 8
ENDMDL
MODEL 7
REMARK VINA RESULT:      -7.2      3.318      8.767
REMARK  Name = 
REMARK  9 active torsions:
REMARK  status: ('A' for Active; 'I' for Inactive)
REMARK    1  A    between atoms: C_1  and  C_2
REMARK    2  A    between atoms: C_2  and  O_3
REMARK    3  A    between atoms: O_3  and  C_4
REMARK    4  A    between atoms: C_4  and  C_5
REMARK    5  A    between atoms: C_4  and  C_9
REMARK    6  A    between atoms: C_5  and  C_6
REMARK    7  A    between atoms: C_6  and  O_8
REMARK    8  A    between atoms: C_12  and  O_13
REMARK    9  A    between atoms: O_13  and  C_14
REMARK                            x       y       z     vdW  Elec       q    Type
REMARK                         _______ _______ _______ _____ _____    ______ ____
ROOT
ATOM      1  C   UNL     1       2.416   6.817  19.410  0.00  0.00    +0.000 A 
ATOM      2  C   UNL     1       2.462   7.365  18.114  0.00  0.00    +0.000 A 
ATOM      3  C   UNL     1       2.020   8.685  17.881  0.00  0.00    +0.000 A 
ATOM      4  C   UNL     1       1.379   9.406  18.899  0.00  0.00    +0.000 A 
ATOM      5  C   UNL     1       1.240   8.802  20.136  0.00  0.00    +0.000 A 
ATOM      6  C   UNL     1       1.773   7.556  20.402  0.00  0.00    +0.000 A 
ENDROOT
BRANCH   1   7
ATOM      7  C   UNL     1       3.176   5.543  19.766  0.00  0.00    +0.000 C 
BRANCH   7   8
ATOM      8  O   UNL     1       2.121   4.567  19.980  0.00  0.00    +0.000 OA
BRANCH   8  10
ATOM      9  C   UNL     1       1.352   2.774  21.506  0.00  0.00    +0.000 C 
ATOM     10  C   UNL     1       2.265   3.927  21.236  0.00  0.00    +0.000 C 
ENDBRANCH   8  10
ENDBRANCH   7   8
BRANCH   7  11
ATOM     11  C   UNL     1       4.175   5.109  18.647  0.00  0.00    +0.000 C 
BRANCH  11  12
ATOM     12  C   UNL     1       5.427   4.406  19.147  0.00  0.00    +0.000 C 
ATOM     13  O   UNL     1       6.508   4.944  19.332  0.00  0.00    +0.000 OA
BRANCH  12  14
ATOM     14  O   UNL     1       5.285   3.091  19.414  0.00  0.00    +0.000 OA
ATOM     15  H   UNL     1       4.948   2.531  18.694  0.00  0.00    +0.000 HD
ENDBRANCH  12  14
ENDBRANCH  11  12
ENDBRANCH   7  11
ENDBRANCH   1   7
BRANCH   4  16
ATOM     16  O   UNL     1       0.899  10.670  18.649  0.00  0.00    +0.000 OA
BRANCH  16  17
ATOM     17  C   UNL     1      -0.456  10.958  18.864  0.00  0.00    +0.000 A 
ATOM     18  C   UNL     1      -1.308  10.499  17.823  0.00  0.00    +0.000 A 
ATOM     19  C   UNL     1      -2.642  10.875  17.805  0.00  0.00    +0.000 A 
ATOM     20  C   UNL     1      -3.117  11.683  18.837  0.00  0.00    +0.000 A 
ATOM     21 CL   UNL     1      -4.831  11.984  18.890  0.00  0.00    +0.000 Cl
ATOM     22  C   UNL     1      -2.269  12.161  19.880  0.00  0.00    +0.000 A 
ATOM     23  C   UNL     1      -2.665  13.147  20.789  0.00  0.00    +0.000 A 
ATOM     24  C   UNL     1      -1.757  13.771  21.677  0.00  0.00    +0.000 A 
ATOM     25  C   UNL     1      -0.876  12.991  22.392  0.00  0.00    +0.000 A 
ATOM     26  C   UNL     1      -0.330  12.270  21.328  0.00  0.00    +0.000 A 
ATOM     27  C   UNL     1      -0.946  11.782  20.000  0.00  0.00    +0.000 A 
ENDBRANCH  16  17
ENDBRANCH   4  16
TORSDOF 8
ENDMDL
MODEL 8
REMARK VINA RESULT:      -7.2      0.958      2.279
REMARK  Name = 
REMARK  9 active torsions:
REMARK  status: ('A' for Active; 'I' for Inactive)
REMARK    1  A    between atoms: C_1  and  C_2
REMARK    2  A    between atoms: C_2  and  O_3
REMARK    3  A    between atoms: O_3  and  C_4
REMARK    4  A    between atoms: C_4  and  C_5
REMARK    5  A    between atoms: C_4  and  C_9
REMARK    6  A    between atoms: C_5  and  C_6
REMARK    7  A    between atoms: C_6  and  O_8
REMARK    8  A    between atoms: C_12  and  O_13
REMARK    9  A    between atoms: O_13  and  C_14
REMARK                            x       y       z     vdW  Elec       q    Type
REMARK                         _______ _______ _______ _____ _____    ______ ____
ROOT
ATOM      1  C   UNL     1      -0.209  10.285  18.853  0.00  0.00    +0.000 A 
ATOM      2  C   UNL     1       0.726   9.831  17.904  0.00  0.00    +0.000 A 
ATOM      3  C   UNL     1       1.632   8.799  18.231  0.00  0.00    +0.000 A 
ATOM      4  C   UNL     1       1.723   8.331  19.550  0.00  0.00    +0.000 A 
ATOM      5  C   UNL     1       0.872   8.875  20.495  0.00  0.00    +0.000 A 
ATOM      6  C   UNL     1      -0.095   9.801  20.156  0.00  0.00    +0.000 A 
ENDROOT
BRANCH   1   7
ATOM      7  C   UNL     1      -1.404  11.144  18.450  0.00  0.00    +0.000 C 
BRANCH   7   8
ATOM      8  O   UNL     1      -2.450  10.170  18.189  0.00  0.00    +0.000 OA
BRANCH   8  10
ATOM      9  C   UNL     1      -2.696  10.875  15.827  0.00  0.00    +0.000 C 
ATOM     10  C   UNL     1      -3.318  10.617  17.162  0.00  0.00    +0.000 C 
ENDBRANCH   8  10
ENDBRANCH   7   8
BRANCH   7  11
ATOM     11  C   UNL     1      -1.805  12.170  19.557  0.00  0.00    +0.000 C 
BRANCH  11  12
ATOM     12  C   UNL     1      -0.937  13.417  19.615  0.00  0.00    +0.000 C 
ATOM     13  O   UNL     1      -0.397  13.850  20.623  0.00  0.00    +0.000 OA
BRANCH  12  14
ATOM     14  O   UNL     1      -0.758  14.054  18.440  0.00  0.00    +0.000 OA
ATOM     15  H   UNL     1      -1.309  14.839  18.279  0.00  0.00    +0.000 HD
ENDBRANCH  12  14
ENDBRANCH  11  12
ENDBRANCH   7  11
ENDBRANCH   1   7
BRANCH   4  16
ATOM     16  O   UNL     1       2.648   7.366  19.875  0.00  0.00    +0.000 OA
BRANCH  16  17
ATOM     17  C   UNL     1       2.637   6.135  19.206  0.00  0.00    +0.000 A 
ATOM     18  C   UNL     1       1.789   5.166  19.807  0.00  0.00    +0.000 A 
ATOM     19  C   UNL     1       1.821   3.851  19.369  0.00  0.00    +0.000 A 
ATOM     20  C   UNL     1       2.679   3.523  18.321  0.00  0.00    +0.000 A 
ATOM     21 CL   UNL     1       2.561   1.912  17.670  0.00  0.00    +0.000 Cl
ATOM     22  C   UNL     1       3.544   4.482  17.717  0.00  0.00    +0.000 A 
ATOM     23  C   UNL     1       4.566   4.131  16.829  0.00  0.00    +0.000 A 
ATOM     24  C   UNL     1       5.554   5.052  16.406  0.00  0.00    +0.000 A 
ATOM     25  C   UNL     1       5.169   6.307  15.992  0.00  0.00    +0.000 A 
ATOM     26  C   UNL     1       4.404   6.663  17.105  0.00  0.00    +0.000 A 
ATOM     27  C   UNL     1       3.527   5.821  18.056  0.00  0.00    +0.000 A 
ENDBRANCH  16  17
ENDBRANCH   4  16
TORSDOF 8
ENDMDL
MODEL 9
REMARK VINA RESULT:      -7.2      0.995      1.271
REMARK  Name = 
REMARK  9 active torsions:
REMARK  status: ('A' for Active; 'I' for Inactive)
REMARK    1  A    between atoms: C_1  and  C_2
REMARK    2  A    between atoms: C_2  and  O_3
REMARK    3  A    between atoms: O_3  and  C_4
REMARK    4  A    between atoms: C_4  and  C_5
REMARK    5  A    between atoms: C_4  and  C_9
REMARK    6  A    between atoms: C_5  and  C_6
REMARK    7  A    between atoms: C_6  and  O_8
REMARK    8  A    between atoms: C_12  and  O_13
REMARK    9  A    between atoms: O_13  and  C_14
REMARK                            x       y       z     vdW  Elec       q    Type
REMARK                         _______ _______ _______ _____ _____    ______ ____
ROOT
ATOM      1  C   UNL     1      -0.395  10.248  19.503  0.00  0.00    +0.000 A 
ATOM      2  C   UNL     1       0.537   9.970  18.485  0.00  0.00    +0.000 A 
ATOM      3  C   UNL     1       1.501   8.954  18.657  0.00  0.00    +0.000 A 
ATOM      4  C   UNL     1       1.649   8.325  19.902  0.00  0.00    +0.000 A 
ATOM      5  C   UNL     1       0.797   8.697  20.926  0.00  0.00    +0.000 A 
ATOM      6  C   UNL     1      -0.223   9.608  20.729  0.00  0.00    +0.000 A 
ENDROOT
BRANCH   1   7
ATOM      7  C   UNL     1      -1.641  11.089  19.238  0.00  0.00    +0.000 C 
BRANCH   7   8
ATOM      8  O   UNL     1      -1.300  12.386  19.797  0.00  0.00    +0.000 OA
BRANCH   8  10
ATOM      9  C   UNL     1      -2.231  12.383  22.092  0.00  0.00    +0.000 C 
ATOM     10  C   UNL     1      -2.314  12.846  20.673  0.00  0.00    +0.000 C 
ENDBRANCH   8  10
ENDBRANCH   7   8
BRANCH   7  11
ATOM     11  C   UNL     1      -1.999  11.166  17.721  0.00  0.00    +0.000 C 
BRANCH  11  12
ATOM     12  C   UNL     1      -3.471  11.408  17.424  0.00  0.00    +0.000 C 
ATOM     13  O   UNL     1      -4.385  11.233  18.217  0.00  0.00    +0.000 OA
BRANCH  12  14
ATOM     14  O   UNL     1      -3.744  11.870  16.187  0.00  0.00    +0.000 OA
ATOM     15  H   UNL     1      -4.305  12.663  16.129  0.00  0.00    +0.000 HD
ENDBRANCH  12  14
ENDBRANCH  11  12
ENDBRANCH   7  11
ENDBRANCH   1   7
BRANCH   4  16
ATOM     16  O   UNL     1       2.630   7.376  20.081  0.00  0.00    +0.000 OA
BRANCH  16  17
ATOM     17  C   UNL     1       2.589   6.184  19.347  0.00  0.00    +0.000 A 
ATOM     18  C   UNL     1       1.751   5.189  19.920  0.00  0.00    +0.000 A 
ATOM     19  C   UNL     1       1.759   3.900  19.411  0.00  0.00    +0.000 A 
ATOM     20  C   UNL     1       2.583   3.623  18.321  0.00  0.00    +0.000 A 
ATOM     21 CL   UNL     1       2.433   2.051  17.587  0.00  0.00    +0.000 Cl
ATOM     22  C   UNL     1       3.438   4.609  17.745  0.00  0.00    +0.000 A 
ATOM     23  C   UNL     1       4.430   4.300  16.809  0.00  0.00    +0.000 A 
ATOM     24  C   UNL     1       5.413   5.235  16.407  0.00  0.00    +0.000 A 
ATOM     25  C   UNL     1       5.026   6.514  16.073  0.00  0.00    +0.000 A 
ATOM     26  C   UNL     1       4.298   6.814  17.227  0.00  0.00    +0.000 A 
ATOM     27  C   UNL     1       3.442   5.927  18.156  0.00  0.00    +0.000 A 
ENDBRANCH  16  17
ENDBRANCH   4  16
TORSDOF 8
ENDMDL
