MODEL 1
REMARK VINA RESULT:      -6.8      0.000      0.000
REMARK  Name = 
REMARK  3 active torsions:
REMARK  status: ('A' for Active; 'I' for Inactive)
REMARK    1  A    between atoms: C_1  and  C_2
REMARK    2  A    between atoms: N_4  and  C_5
REMARK    3  A    between atoms: C_5  and  C_6
REMARK                            x       y       z     vdW  Elec       q    Type
REMARK                         _______ _______ _______ _____ _____    ______ ____
ROOT
ATOM      1  C   UNL     1       5.828   5.067  18.002  0.00  0.00    +0.000 C 
ATOM      2  N   UNL     1       4.890   6.232  17.791  0.00  0.00    +0.000 NA
ATOM      3  C   UNL     1       3.980   6.051  18.679  0.00  0.00    +0.000 C 
ATOM      4  S   UNL     1       2.575   6.988  18.982  0.00  0.00    +0.000 S 
ATOM      5  C   UNL     1       1.889   5.765  20.153  0.00  0.00    +0.000 C 
ATOM      6  C   UNL     1       2.963   4.699  20.364  0.00  0.00    +0.000 C 
ATOM      7  N   UNL     1       4.061   4.991  19.483  0.00  0.00    +0.000 N 
ATOM      8  C   UNL     1       5.108   4.239  19.082  0.00  0.00    +0.000 C 
ATOM      9  O   UNL     1       5.338   3.081  19.391  0.00  0.00    +0.000 OA
ENDROOT
BRANCH   1  13
ATOM     10  C   UNL     1       6.174   3.760  14.466  0.00  0.00    +0.000 C 
ATOM     11  C   UNL     1       6.162   4.772  15.578  0.00  0.00    +0.000 C 
ATOM     12  O   UNL     1       6.452   5.948  15.410  0.00  0.00    +0.000 OA
ATOM     13  N   UNL     1       5.827   4.237  16.796  0.00  0.00    +0.000 N 
ATOM     14  H   UNL     1       5.965   3.240  16.924  0.00  0.00    +0.000 HD
ENDBRANCH   1  13
BRANCH   1  15
ATOM     15  C   UNL     1       7.213   5.476  18.588  0.00  0.00    +0.000 C 
ATOM     16  F   UNL     1       7.632   6.680  18.126  0.00  0.00    +0.000 F 
ATOM     17  F   UNL     1       7.213   5.534  19.941  0.00  0.00    +0.000 F 
ATOM     18  F   UNL     1       8.186   4.586  18.256  0.00  0.00    +0.000 F 
ENDBRANCH   1  15
TORSDOF 2
ENDMDL
MODEL 2
REMARK VINA RESULT:      -6.5      2.681      3.423
REMARK  Name = 
REMARK  3 active torsions:
REMARK  status: ('A' for Active; 'I' for Inactive)
REMARK    1  A    between atoms: C_1  and  C_2
REMARK    2  A    between atoms: N_4  and  C_5
REMARK    3  A    between atoms: C_5  and  C_6
REMARK                            x       y       z     vdW  Elec       q    Type
REMARK                         _______ _______ _______ _____ _____    ______ ____
ROOT
ATOM      1  C   UNL     1       4.880   4.783  18.021  0.00  0.00    +0.000 C 
ATOM      2  N   UNL     1       5.015   3.649  19.010  0.00  0.00    +0.000 NA
ATOM      3  C   UNL     1       3.881   3.639  19.614  0.00  0.00    +0.000 C 
ATOM      4  S   UNL     1       3.355   2.622  20.892  0.00  0.00    +0.000 S 
ATOM      5  C   UNL     1       1.831   3.590  21.170  0.00  0.00    +0.000 C 
ATOM      6  C   UNL     1       1.754   4.630  20.054  0.00  0.00    +0.000 C 
ATOM      7  N   UNL     1       2.957   4.536  19.272  0.00  0.00    +0.000 N 
ATOM      8  C   UNL     1       3.503   5.379  18.369  0.00  0.00    +0.000 C 
ATOM      9  O   UNL     1       3.069   6.467  18.028  0.00  0.00    +0.000 OA
ENDROOT
BRANCH   1  13
ATOM     10  C   UNL     1       8.061   6.729  18.674  0.00  0.00    +0.000 C 
ATOM     11  C   UNL     1       7.200   5.531  18.380  0.00  0.00    +0.000 C 
ATOM     12  O   UNL     1       7.660   4.420  18.159  0.00  0.00    +0.000 OA
ATOM     13  N   UNL     1       5.859   5.819  18.355  0.00  0.00    +0.000 N 
ATOM     14  H   UNL     1       5.589   6.781  18.178  0.00  0.00    +0.000 HD
ENDBRANCH   1  13
BRANCH   1  15
ATOM     15  C   UNL     1       4.811   4.315  16.537  0.00  0.00    +0.000 C 
ATOM     16  F   UNL     1       4.980   5.340  15.665  0.00  0.00    +0.000 F 
ATOM     17  F   UNL     1       5.737   3.371  16.241  0.00  0.00    +0.000 F 
ATOM     18  F   UNL     1       3.608   3.759  16.235  0.00  0.00    +0.000 F 
ENDBRANCH   1  15
TORSDOF 2
ENDMDL
MODEL 3
REMARK VINA RESULT:      -6.4      1.055      1.404
REMARK  Name = 
REMARK  3 active torsions:
REMARK  status: ('A' for Active; 'I' for Inactive)
REMARK    1  A    between atoms: C_1  and  C_2
REMARK    2  A    between atoms: N_4  and  C_5
REMARK    3  A    between atoms: C_5  and  C_6
REMARK                            x       y       z     vdW  Elec       q    Type
REMARK                         _______ _______ _______ _____ _____    ______ ____
ROOT
ATOM      1  C   UNL     1       5.866   5.257  17.160  0.00  0.00    +0.000 C 
ATOM      2  N   UNL     1       5.252   6.608  16.877  0.00  0.00    +0.000 NA
ATOM      3  C   UNL     1       4.263   6.666  17.695  0.00  0.00    +0.000 C 
ATOM      4  S   UNL     1       3.105   7.917  17.890  0.00  0.00    +0.000 S 
ATOM      5  C   UNL     1       2.063   6.916  19.008  0.00  0.00    +0.000 C 
ATOM      6  C   UNL     1       2.833   5.629  19.301  0.00  0.00    +0.000 C 
ATOM      7  N   UNL     1       4.030   5.633  18.505  0.00  0.00    +0.000 N 
ATOM      8  C   UNL     1       4.893   4.645  18.185  0.00  0.00    +0.000 C 
ATOM      9  O   UNL     1       4.816   3.472  18.511  0.00  0.00    +0.000 OA
ENDROOT
BRANCH   1  13
ATOM     10  C   UNL     1       6.310   3.712  13.732  0.00  0.00    +0.000 C 
ATOM     11  C   UNL     1       6.502   4.707  14.844  0.00  0.00    +0.000 C 
ATOM     12  O   UNL     1       7.273   5.653  14.763  0.00  0.00    +0.000 OA
ATOM     13  N   UNL     1       5.754   4.427  15.959  0.00  0.00    +0.000 N 
ATOM     14  H   UNL     1       5.446   3.469  16.088  0.00  0.00    +0.000 HD
ENDBRANCH   1  13
BRANCH   1  15
ATOM     15  C   UNL     1       7.262   5.335  17.848  0.00  0.00    +0.000 C 
ATOM     16  F   UNL     1       8.056   4.284  17.521  0.00  0.00    +0.000 F 
ATOM     17  F   UNL     1       7.937   6.468  17.540  0.00  0.00    +0.000 F 
ATOM     18  F   UNL     1       7.161   5.322  19.204  0.00  0.00    +0.000 F 
ENDBRANCH   1  15
TORSDOF 2
ENDMDL
MODEL 4
REMARK VINA RESULT:      -6.4      2.781      3.589
REMARK  Name = 
REMARK  3 active torsions:
REMARK  status: ('A' for Active; 'I' for Inactive)
REMARK    1  A    between atoms: C_1  and  C_2
REMARK    2  A    between atoms: N_4  and  C_5
REMARK    3  A    between atoms: C_5  and  C_6
REMARK                            x       y       z     vdW  Elec       q    Type
REMARK                         _______ _______ _______ _____ _____    ______ ____
ROOT
ATOM      1  C   UNL     1       5.234   5.172  17.034  0.00  0.00    +0.000 C 
ATOM      2  N   UNL     1       5.140   3.685  17.280  0.00  0.00    +0.000 NA
ATOM      3  C   UNL     1       3.899   3.504  17.558  0.00  0.00    +0.000 C 
ATOM      4  S   UNL     1       3.096   2.047  17.979  0.00  0.00    +0.000 S 
ATOM      5  C   UNL     1       1.551   2.911  18.430  0.00  0.00    +0.000 C 
ATOM      6  C   UNL     1       1.730   4.377  18.039  0.00  0.00    +0.000 C 
ATOM      7  N   UNL     1       3.078   4.553  17.571  0.00  0.00    +0.000 N 
ATOM      8  C   UNL     1       3.816   5.667  17.373  0.00  0.00    +0.000 C 
ATOM      9  O   UNL     1       3.473   6.819  17.583  0.00  0.00    +0.000 OA
ENDROOT
BRANCH   1  13
ATOM     10  C   UNL     1       8.178   6.073  19.236  0.00  0.00    +0.000 C 
ATOM     11  C   UNL     1       7.398   5.307  18.204  0.00  0.00    +0.000 C 
ATOM     12  O   UNL     1       7.879   4.387  17.557  0.00  0.00    +0.000 OA
ATOM     13  N   UNL     1       6.115   5.763  18.043  0.00  0.00    +0.000 N 
ATOM     14  H   UNL     1       5.918   6.718  18.323  0.00  0.00    +0.000 HD
ENDBRANCH   1  13
BRANCH   1  15
ATOM     15  C   UNL     1       5.502   5.545  15.545  0.00  0.00    +0.000 C 
ATOM     16  F   UNL     1       4.961   6.742  15.208  0.00  0.00    +0.000 F 
ATOM     17  F   UNL     1       6.822   5.595  15.245  0.00  0.00    +0.000 F 
ATOM     18  F   UNL     1       4.964   4.635  14.689  0.00  0.00    +0.000 F 
ENDBRANCH   1  15
TORSDOF 2
ENDMDL
MODEL 5
REMARK VINA RESULT:      -6.2      3.130      5.027
REMARK  Name = 
REMARK  3 active torsions:
REMARK  status: ('A' for Active; 'I' for Inactive)
REMARK    1  A    between atoms: C_1  and  C_2
REMARK    2  A    between atoms: N_4  and  C_5
REMARK    3  A    between atoms: C_5  and  C_6
REMARK                            x       y       z     vdW  Elec       q    Type
REMARK                         _______ _______ _______ _____ _____    ______ ____
ROOT
ATOM      1  C   UNL     1       3.379   4.943  18.762  0.00  0.00    +0.000 C 
ATOM      2  N   UNL     1       4.527   5.424  19.618  0.00  0.00    +0.000 NA
ATOM      3  C   UNL     1       5.558   5.228  18.878  0.00  0.00    +0.000 C 
ATOM      4  S   UNL     1       7.210   5.519  19.241  0.00  0.00    +0.000 S 
ATOM      5  C   UNL     1       7.795   4.667  17.734  0.00  0.00    +0.000 C 
ATOM      6  C   UNL     1       6.557   4.325  16.906  0.00  0.00    +0.000 C 
ATOM      7  N   UNL     1       5.395   4.696  17.667  0.00  0.00    +0.000 N 
ATOM      8  C   UNL     1       4.093   4.367  17.524  0.00  0.00    +0.000 C 
ATOM      9  O   UNL     1       3.613   3.630  16.680  0.00  0.00    +0.000 OA
ENDROOT
BRANCH   1  13
ATOM     10  C   UNL     1       1.543   2.677  21.175  0.00  0.00    +0.000 C 
ATOM     11  C   UNL     1       2.215   3.929  20.681  0.00  0.00    +0.000 C 
ATOM     12  O   UNL     1       2.256   4.962  21.335  0.00  0.00    +0.000 OA
ATOM     13  N   UNL     1       2.744   3.802  19.422  0.00  0.00    +0.000 N 
ATOM     14  H   UNL     1       2.360   3.079  18.823  0.00  0.00    +0.000 HD
ENDBRANCH   1  13
BRANCH   1  15
ATOM     15  C   UNL     1       2.449   6.088  18.260  0.00  0.00    +0.000 C 
ATOM     16  F   UNL     1       1.347   5.615  17.625  0.00  0.00    +0.000 F 
ATOM     17  F   UNL     1       2.028   6.899  19.259  0.00  0.00    +0.000 F 
ATOM     18  F   UNL     1       3.078   6.898  17.367  0.00  0.00    +0.000 F 
ENDBRANCH   1  15
TORSDOF 2
ENDMDL
MODEL 6
REMARK VINA RESULT:      -6.2      2.862      4.842
REMARK  Name = 
REMARK  3 active torsions:
REMARK  status: ('A' for Active; 'I' for Inactive)
REMARK    1  A    between atoms: C_1  and  C_2
REMARK    2  A    between atoms: N_4  and  C_5
REMARK    3  A    between atoms: C_5  and  C_6
REMARK                            x       y       z     vdW  Elec       q    Type
REMARK                         _______ _______ _______ _____ _____    ______ ____
ROOT
ATOM      1  C   UNL     1       4.178   4.255  18.936  0.00  0.00    +0.000 C 
ATOM      2  N   UNL     1       3.835   4.256  17.465  0.00  0.00    +0.000 NA
ATOM      3  C   UNL     1       4.981   4.327  16.888  0.00  0.00    +0.000 C 
ATOM      4  S   UNL     1       5.334   4.405  15.211  0.00  0.00    +0.000 S 
ATOM      5  C   UNL     1       7.102   4.763  15.497  0.00  0.00    +0.000 C 
ATOM      6  C   UNL     1       7.346   4.630  16.999  0.00  0.00    +0.000 C 
ATOM      7  N   UNL     1       6.081   4.387  17.637  0.00  0.00    +0.000 N 
ATOM      8  C   UNL     1       5.704   4.466  18.932  0.00  0.00    +0.000 C 
ATOM      9  O   UNL     1       6.400   4.799  19.877  0.00  0.00    +0.000 OA
ENDROOT
BRANCH   1  13
ATOM     10  C   UNL     1       1.852   6.875  20.367  0.00  0.00    +0.000 C 
ATOM     11  C   UNL     1       2.253   5.619  19.644  0.00  0.00    +0.000 C 
ATOM     12  O   UNL     1       1.441   4.816  19.208  0.00  0.00    +0.000 OA
ATOM     13  N   UNL     1       3.612   5.455  19.553  0.00  0.00    +0.000 N 
ATOM     14  H   UNL     1       4.189   5.939  20.233  0.00  0.00    +0.000 HD
ENDBRANCH   1  13
BRANCH   1  15
ATOM     15  C   UNL     1       3.909   2.892  19.642  0.00  0.00    +0.000 C 
ATOM     16  F   UNL     1       2.985   2.146  18.986  0.00  0.00    +0.000 F 
ATOM     17  F   UNL     1       5.026   2.137  19.770  0.00  0.00    +0.000 F 
ATOM     18  F   UNL     1       3.429   3.061  20.903  0.00  0.00    +0.000 F 
ENDBRANCH   1  15
TORSDOF 2
ENDMDL
MODEL 7
REMARK VINA RESULT:      -6.0      2.660      3.462
REMARK  Name = 
REMARK  3 active torsions:
REMARK  status: ('A' for Active; 'I' for Inactive)
REMARK    1  A    between atoms: C_1  and  C_2
REMARK    2  A    between atoms: N_4  and  C_5
REMARK    3  A    between atoms: C_5  and  C_6
REMARK                            x       y       z     vdW  Elec       q    Type
REMARK                         _______ _______ _______ _____ _____    ______ ____
ROOT
ATOM      1  C   UNL     1       4.965   5.438  17.695  0.00  0.00    +0.000 C 
ATOM      2  N   UNL     1       4.880   3.965  17.371  0.00  0.00    +0.000 NA
ATOM      3  C   UNL     1       3.687   3.647  17.726  0.00  0.00    +0.000 C 
ATOM      4  S   UNL     1       2.926   2.110  17.671  0.00  0.00    +0.000 S 
ATOM      5  C   UNL     1       1.474   2.683  18.621  0.00  0.00    +0.000 C 
ATOM      6  C   UNL     1       1.623   4.195  18.793  0.00  0.00    +0.000 C 
ATOM      7  N   UNL     1       2.895   4.583  18.247  0.00  0.00    +0.000 N 
ATOM      8  C   UNL     1       3.617   5.716  18.386  0.00  0.00    +0.000 C 
ATOM      9  O   UNL     1       3.327   6.691  19.060  0.00  0.00    +0.000 OA
ENDROOT
BRANCH   1  13
ATOM     10  C   UNL     1       8.217   5.626  19.624  0.00  0.00    +0.000 C 
ATOM     11  C   UNL     1       7.294   5.288  18.486  0.00  0.00    +0.000 C 
ATOM     12  O   UNL     1       7.683   4.779  17.444  0.00  0.00    +0.000 OA
ATOM     13  N   UNL     1       5.989   5.637  18.723  0.00  0.00    +0.000 N 
ATOM     14  H   UNL     1       5.815   6.361  19.411  0.00  0.00    +0.000 HD
ENDBRANCH   1  13
BRANCH   1  15
ATOM     15  C   UNL     1       5.029   6.353  16.436  0.00  0.00    +0.000 C 
ATOM     16  F   UNL     1       5.161   5.642  15.288  0.00  0.00    +0.000 F 
ATOM     17  F   UNL     1       3.935   7.141  16.304  0.00  0.00    +0.000 F 
ATOM     18  F   UNL     1       6.091   7.200  16.478  0.00  0.00    +0.000 F 
ENDBRANCH   1  15
TORSDOF 2
ENDMDL
MODEL 8
REMARK VINA RESULT:      -5.9      2.245      3.301
REMARK  Name = 
REMARK  3 active torsions:
REMARK  status: ('A' for Active; 'I' for Inactive)
REMARK    1  A    between atoms: C_1  and  C_2
REMARK    2  A    between atoms: N_4  and  C_5
REMARK    3  A    between atoms: C_5  and  C_6
REMARK                            x       y       z     vdW  Elec       q    Type
REMARK                         _______ _______ _______ _____ _____    ______ ____
ROOT
ATOM      1  C   UNL     1       6.261   5.745  17.371  0.00  0.00    +0.000 C 
ATOM      2  N   UNL     1       5.944   5.333  18.789  0.00  0.00    +0.000 NA
ATOM      3  C   UNL     1       4.673   5.146  18.771  0.00  0.00    +0.000 C 
ATOM      4  S   UNL     1       3.637   4.695  20.062  0.00  0.00    +0.000 S 
ATOM      5  C   UNL     1       2.122   4.993  19.084  0.00  0.00    +0.000 C 
ATOM      6  C   UNL     1       2.568   5.296  17.654  0.00  0.00    +0.000 C 
ATOM      7  N   UNL     1       4.005   5.346  17.635  0.00  0.00    +0.000 N 
ATOM      8  C   UNL     1       4.869   5.833  16.719  0.00  0.00    +0.000 C 
ATOM      9  O   UNL     1       4.587   6.381  15.666  0.00  0.00    +0.000 OA
ENDROOT
BRANCH   1  13
ATOM     10  C   UNL     1       8.285   8.877  18.024  0.00  0.00    +0.000 C 
ATOM     11  C   UNL     1       7.838   7.451  18.192  0.00  0.00    +0.000 C 
ATOM     12  O   UNL     1       8.386   6.669  18.957  0.00  0.00    +0.000 OA
ATOM     13  N   UNL     1       6.784   7.112  17.383  0.00  0.00    +0.000 N 
ATOM     14  H   UNL     1       6.638   7.668  16.547  0.00  0.00    +0.000 HD
ENDBRANCH   1  13
BRANCH   1  15
ATOM     15  C   UNL     1       7.070   4.677  16.574  0.00  0.00    +0.000 C 
ATOM     16  F   UNL     1       8.104   4.173  17.293  0.00  0.00    +0.000 F 
ATOM     17  F   UNL     1       6.306   3.634  16.170  0.00  0.00    +0.000 F 
ATOM     18  F   UNL     1       7.616   5.196  15.442  0.00  0.00    +0.000 F 
ENDBRANCH   1  15
TORSDOF 2
ENDMDL
