MODEL 1
REMARK VINA RESULT:      -8.1      0.000      0.000
REMARK  Name = 
REMARK  5 active torsions:
REMARK  status: ('A' for Active; 'I' for Inactive)
REMARK    1  A    between atoms: C_1  and  C_2
REMARK    2  A    between atoms: C_6  and  C_7
REMARK    3  A    between atoms: N_9  and  C_10
REMARK    4  A    between atoms: C_10  and  C_11
REMARK    5  A    between atoms: C_11  and  C_12
REMARK                            x       y       z     vdW  Elec       q    Type
REMARK                         _______ _______ _______ _____ _____    ______ ____
ROOT
ATOM      1  C   UNL     1       6.852   4.921  15.862  0.00  0.00    +0.000 C 
ATOM      2  O   UNL     1       7.763   4.533  16.589  0.00  0.00    +0.000 OA
ATOM      3  N   UNL     1       5.771   5.617  16.358  0.00  0.00    +0.000 N 
ATOM      4  H   UNL     1       5.048   5.982  15.757  0.00  0.00    +0.000 HD
ENDROOT
BRANCH   1  10
ATOM      5  C   UNL     1       5.379   2.453  11.676  0.00  0.00    +0.000 C 
ATOM      6  C   UNL     1       6.225   3.497  12.348  0.00  0.00    +0.000 A 
ATOM      7  C   UNL     1       7.108   4.286  11.605  0.00  0.00    +0.000 A 
ATOM      8  C   UNL     1       7.893   5.249  12.240  0.00  0.00    +0.000 A 
ATOM      9  C   UNL     1       7.792   5.431  13.620  0.00  0.00    +0.000 A 
ATOM     10  C   UNL     1       6.910   4.654  14.388  0.00  0.00    +0.000 A 
ATOM     11  C   UNL     1       6.130   3.684  13.739  0.00  0.00    +0.000 A 
ENDBRANCH   1  10
BRANCH   3  12
ATOM     12  C   UNL     1       5.632   5.914  17.777  0.00  0.00    +0.000 C 
BRANCH  12  13
ATOM     13  C   UNL     1       4.182   6.165  18.202  0.00  0.00    +0.000 C 
BRANCH  13  14
ATOM     14  C   UNL     1       3.366   4.916  18.141  0.00  0.00    +0.000 A 
ATOM     15  N   UNL     1       3.115   4.223  17.048  0.00  0.00    +0.000 NA
ATOM     16  N   UNL     1       2.303   3.166  17.379  0.00  0.00    +0.000 NA
ATOM     17  C   UNL     1       2.076   3.225  18.671  0.00  0.00    +0.000 A 
ATOM     18  N   UNL     1       2.742   4.303  19.195  0.00  0.00    +0.000 N 
ATOM     19  C   UNL     1       2.674   4.701  20.585  0.00  0.00    +0.000 C 
ATOM     20  C   UNL     1       2.099   3.596  21.484  0.00  0.00    +0.000 C 
ATOM     21  C   UNL     1       0.885   2.926  20.836  0.00  0.00    +0.000 C 
ATOM     22  C   UNL     1       1.272   2.291  19.500  0.00  0.00    +0.000 C 
ENDBRANCH  13  14
ENDBRANCH  12  13
ENDBRANCH   3  12
TORSDOF 4
ENDMDL
MODEL 2
REMARK VINA RESULT:      -7.9      0.987      1.020
REMARK  Name = 
REMARK  5 active torsions:
REMARK  status: ('A' for Active; 'I' for Inactive)
REMARK    1  A    between atoms: C_1  and  C_2
REMARK    2  A    between atoms: C_6  and  C_7
REMARK    3  A    between atoms: N_9  and  C_10
REMARK    4  A    between atoms: C_10  and  C_11
REMARK    5  A    between atoms: C_11  and  C_12
REMARK                            x       y       z     vdW  Elec       q    Type
REMARK                         _______ _______ _______ _____ _____    ______ ____
ROOT
ATOM      1  C   UNL     1       6.819   5.289  15.856  0.00  0.00    +0.000 C 
ATOM      2  O   UNL     1       6.674   6.471  16.154  0.00  0.00    +0.000 OA
ATOM      3  N   UNL     1       6.882   4.300  16.812  0.00  0.00    +0.000 N 
ATOM      4  H   UNL     1       6.948   3.323  16.568  0.00  0.00    +0.000 HD
ENDROOT
BRANCH   1  10
ATOM      5  C   UNL     1       5.365   2.534  11.847  0.00  0.00    +0.000 C 
ATOM      6  C   UNL     1       6.238   3.592  12.457  0.00  0.00    +0.000 A 
ATOM      7  C   UNL     1       7.184   4.270  11.682  0.00  0.00    +0.000 A 
ATOM      8  C   UNL     1       7.994   5.248  12.261  0.00  0.00    +0.000 A 
ATOM      9  C   UNL     1       7.857   5.555  13.615  0.00  0.00    +0.000 A 
ATOM     10  C   UNL     1       6.912   4.891  14.413  0.00  0.00    +0.000 A 
ATOM     11  C   UNL     1       6.107   3.905  13.822  0.00  0.00    +0.000 A 
ENDBRANCH   1  10
BRANCH   3  12
ATOM     12  C   UNL     1       6.804   4.597  18.236  0.00  0.00    +0.000 C 
BRANCH  12  13
ATOM     13  C   UNL     1       5.432   5.119  18.670  0.00  0.00    +0.000 C 
BRANCH  13  14
ATOM     14  C   UNL     1       4.360   4.105  18.447  0.00  0.00    +0.000 A 
ATOM     15  N   UNL     1       4.289   3.287  17.415  0.00  0.00    +0.000 NA
ATOM     16  N   UNL     1       3.149   2.531  17.536  0.00  0.00    +0.000 NA
ATOM     17  C   UNL     1       2.544   2.892  18.644  0.00  0.00    +0.000 A 
ATOM     18  N   UNL     1       3.283   3.870  19.259  0.00  0.00    +0.000 N 
ATOM     19  C   UNL     1       2.886   4.539  20.481  0.00  0.00    +0.000 C 
ATOM     20  C   UNL     1       1.764   3.793  21.219  0.00  0.00    +0.000 C 
ATOM     21  C   UNL     1       0.686   3.306  20.247  0.00  0.00    +0.000 C 
ATOM     22  C   UNL     1       1.286   2.350  19.216  0.00  0.00    +0.000 C 
ENDBRANCH  13  14
ENDBRANCH  12  13
ENDBRANCH   3  12
TORSDOF 4
ENDMDL
MODEL 3
REMARK VINA RESULT:      -7.8      1.256      1.666
REMARK  Name = 
REMARK  5 active torsions:
REMARK  status: ('A' for Active; 'I' for Inactive)
REMARK    1  A    between atoms: C_1  and  C_2
REMARK    2  A    between atoms: C_6  and  C_7
REMARK    3  A    between atoms: N_9  and  C_10
REMARK    4  A    between atoms: C_10  and  C_11
REMARK    5  A    between atoms: C_11  and  C_12
REMARK                            x       y       z     vdW  Elec       q    Type
REMARK                         _______ _______ _______ _____ _____    ______ ____
ROOT
ATOM      1  C   UNL     1       6.780   4.987  15.749  0.00  0.00    +0.000 C 
ATOM      2  O   UNL     1       7.101   4.131  16.569  0.00  0.00    +0.000 OA
ATOM      3  N   UNL     1       6.354   6.239  16.134  0.00  0.00    +0.000 N 
ATOM      4  H   UNL     1       6.140   6.961  15.462  0.00  0.00    +0.000 HD
ENDROOT
BRANCH   1  10
ATOM      5  C   UNL     1       5.429   2.378  11.608  0.00  0.00    +0.000 C 
ATOM      6  C   UNL     1       6.239   3.459  12.265  0.00  0.00    +0.000 A 
ATOM      7  C   UNL     1       7.114   4.249  11.514  0.00  0.00    +0.000 A 
ATOM      8  C   UNL     1       7.867   5.247  12.135  0.00  0.00    +0.000 A 
ATOM      9  C   UNL     1       7.741   5.461  13.508  0.00  0.00    +0.000 A 
ATOM     10  C   UNL     1       6.867   4.684  14.283  0.00  0.00    +0.000 A 
ATOM     11  C   UNL     1       6.119   3.679  13.649  0.00  0.00    +0.000 A 
ENDBRANCH   1  10
BRANCH   3  12
ATOM     12  C   UNL     1       6.236   6.616  17.536  0.00  0.00    +0.000 C 
BRANCH  12  13
ATOM     13  C   UNL     1       4.818   6.444  18.089  0.00  0.00    +0.000 C 
BRANCH  13  14
ATOM     14  C   UNL     1       4.616   5.086  18.675  0.00  0.00    +0.000 A 
ATOM     15  N   UNL     1       5.536   4.385  19.308  0.00  0.00    +0.000 NA
ATOM     16  N   UNL     1       4.993   3.176  19.666  0.00  0.00    +0.000 NA
ATOM     17  C   UNL     1       3.747   3.158  19.253  0.00  0.00    +0.000 A 
ATOM     18  N   UNL     1       3.462   4.350  18.638  0.00  0.00    +0.000 N 
ATOM     19  C   UNL     1       2.191   4.658  18.015  0.00  0.00    +0.000 C 
ATOM     20  C   UNL     1       1.081   3.684  18.436  0.00  0.00    +0.000 C 
ATOM     21  C   UNL     1       1.582   2.237  18.441  0.00  0.00    +0.000 C 
ATOM     22  C   UNL     1       2.744   2.076  19.421  0.00  0.00    +0.000 C 
ENDBRANCH  13  14
ENDBRANCH  12  13
ENDBRANCH   3  12
TORSDOF 4
ENDMDL
MODEL 4
REMARK VINA RESULT:      -7.6      1.548      1.723
REMARK  Name = 
REMARK  5 active torsions:
REMARK  status: ('A' for Active; 'I' for Inactive)
REMARK    1  A    between atoms: C_1  and  C_2
REMARK    2  A    between atoms: C_6  and  C_7
REMARK    3  A    between atoms: N_9  and  C_10
REMARK    4  A    between atoms: C_10  and  C_11
REMARK    5  A    between atoms: C_11  and  C_12
REMARK                            x       y       z     vdW  Elec       q    Type
REMARK                         _______ _______ _______ _____ _____    ______ ____
ROOT
ATOM      1  C   UNL     1       5.249   4.792  15.797  0.00  0.00    +0.000 C 
ATOM      2  O   UNL     1       4.340   4.082  16.222  0.00  0.00    +0.000 OA
ATOM      3  N   UNL     1       5.726   5.868  16.512  0.00  0.00    +0.000 N 
ATOM      4  H   UNL     1       6.506   6.421  16.189  0.00  0.00    +0.000 HD
ENDROOT
BRANCH   1  10
ATOM      5  C   UNL     1       5.399   2.345  11.351  0.00  0.00    +0.000 C 
ATOM      6  C   UNL     1       5.986   3.331  12.320  0.00  0.00    +0.000 A 
ATOM      7  C   UNL     1       7.161   4.021  12.011  0.00  0.00    +0.000 A 
ATOM      8  C   UNL     1       7.701   4.931  12.920  0.00  0.00    +0.000 A 
ATOM      9  C   UNL     1       7.063   5.158  14.140  0.00  0.00    +0.000 A 
ATOM     10  C   UNL     1       5.879   4.481  14.473  0.00  0.00    +0.000 A 
ATOM     11  C   UNL     1       5.348   3.563  13.552  0.00  0.00    +0.000 A 
ENDBRANCH   1  10
BRANCH   3  12
ATOM     12  C   UNL     1       5.168   6.245  17.803  0.00  0.00    +0.000 C 
BRANCH  12  13
ATOM     13  C   UNL     1       5.793   5.485  18.976  0.00  0.00    +0.000 C 
BRANCH  13  14
ATOM     14  C   UNL     1       4.932   4.349  19.419  0.00  0.00    +0.000 A 
ATOM     15  N   UNL     1       5.305   3.085  19.471  0.00  0.00    +0.000 NA
ATOM     16  N   UNL     1       4.236   2.331  19.887  0.00  0.00    +0.000 NA
ATOM     17  C   UNL     1       3.226   3.146  20.090  0.00  0.00    +0.000 A 
ATOM     18  N   UNL     1       3.626   4.430  19.824  0.00  0.00    +0.000 N 
ATOM     19  C   UNL     1       2.752   5.583  19.893  0.00  0.00    +0.000 C 
ATOM     20  C   UNL     1       1.450   5.286  20.653  0.00  0.00    +0.000 C 
ATOM     21  C   UNL     1       0.869   3.928  20.252  0.00  0.00    +0.000 C 
ATOM     22  C   UNL     1       1.861   2.807  20.565  0.00  0.00    +0.000 C 
ENDBRANCH  13  14
ENDBRANCH  12  13
ENDBRANCH   3  12
TORSDOF 4
ENDMDL
MODEL 5
REMARK VINA RESULT:      -7.6      3.012      5.720
REMARK  Name = 
REMARK  5 active torsions:
REMARK  status: ('A' for Active; 'I' for Inactive)
REMARK    1  A    between atoms: C_1  and  C_2
REMARK    2  A    between atoms: C_6  and  C_7
REMARK    3  A    between atoms: N_9  and  C_10
REMARK    4  A    between atoms: C_10  and  C_11
REMARK    5  A    between atoms: C_11  and  C_12
REMARK                            x       y       z     vdW  Elec       q    Type
REMARK                         _______ _______ _______ _____ _____    ______ ____
ROOT
ATOM      1  C   UNL     1       4.001   6.209  18.318  0.00  0.00    +0.000 C 
ATOM      2  O   UNL     1       4.808   5.865  19.178  0.00  0.00    +0.000 OA
ATOM      3  N   UNL     1       3.979   5.630  17.068  0.00  0.00    +0.000 N 
ATOM      4  H   UNL     1       3.285   5.874  16.378  0.00  0.00    +0.000 HD
ENDROOT
BRANCH   1  10
ATOM      5  C   UNL     1       0.632   8.466  21.373  0.00  0.00    +0.000 C 
ATOM      6  C   UNL     1       1.370   8.397  20.066  0.00  0.00    +0.000 A 
ATOM      7  C   UNL     1       1.150   9.354  19.071  0.00  0.00    +0.000 A 
ATOM      8  C   UNL     1       1.836   9.277  17.859  0.00  0.00    +0.000 A 
ATOM      9  C   UNL     1       2.751   8.246  17.641  0.00  0.00    +0.000 A 
ATOM     10  C   UNL     1       2.994   7.276  18.625  0.00  0.00    +0.000 A 
ATOM     11  C   UNL     1       2.292   7.359  19.839  0.00  0.00    +0.000 A 
ENDBRANCH   1  10
BRANCH   3  12
ATOM     12  C   UNL     1       4.925   4.591  16.683  0.00  0.00    +0.000 C 
BRANCH  12  13
ATOM     13  C   UNL     1       4.457   3.181  17.052  0.00  0.00    +0.000 C 
BRANCH  13  14
ATOM     14  C   UNL     1       3.103   3.196  17.680  0.00  0.00    +0.000 A 
ATOM     15  N   UNL     1       1.969   3.414  17.042  0.00  0.00    +0.000 NA
ATOM     16  N   UNL     1       0.944   3.389  17.954  0.00  0.00    +0.000 NA
ATOM     17  C   UNL     1       1.464   3.150  19.135  0.00  0.00    +0.000 A 
ATOM     18  N   UNL     1       2.821   3.004  19.007  0.00  0.00    +0.000 N 
ATOM     19  C   UNL     1       3.723   2.782  20.118  0.00  0.00    +0.000 C 
ATOM     20  C   UNL     1       2.984   2.349  21.394  0.00  0.00    +0.000 C 
ATOM     21  C   UNL     1       1.716   3.179  21.611  0.00  0.00    +0.000 C 
ATOM     22  C   UNL     1       0.756   3.010  20.434  0.00  0.00    +0.000 C 
ENDBRANCH  13  14
ENDBRANCH  12  13
ENDBRANCH   3  12
TORSDOF 4
ENDMDL
MODEL 6
REMARK VINA RESULT:      -7.5      1.030      1.569
REMARK  Name = 
REMARK  5 active torsions:
REMARK  status: ('A' for Active; 'I' for Inactive)
REMARK    1  A    between atoms: C_1  and  C_2
REMARK    2  A    between atoms: C_6  and  C_7
REMARK    3  A    between atoms: N_9  and  C_10
REMARK    4  A    between atoms: C_10  and  C_11
REMARK    5  A    between atoms: C_11  and  C_12
REMARK                            x       y       z     vdW  Elec       q    Type
REMARK                         _______ _______ _______ _____ _____    ______ ____
ROOT
ATOM      1  C   UNL     1       6.931   5.123  15.829  0.00  0.00    +0.000 C 
ATOM      2  O   UNL     1       7.817   4.693  16.563  0.00  0.00    +0.000 OA
ATOM      3  N   UNL     1       5.914   5.921  16.306  0.00  0.00    +0.000 N 
ATOM      4  H   UNL     1       5.215   6.318  15.696  0.00  0.00    +0.000 HD
ENDROOT
BRANCH   1  10
ATOM      5  C   UNL     1       5.311   2.522  11.781  0.00  0.00    +0.000 C 
ATOM      6  C   UNL     1       6.195   3.572  12.391  0.00  0.00    +0.000 A 
ATOM      7  C   UNL     1       7.079   4.308  11.598  0.00  0.00    +0.000 A 
ATOM      8  C   UNL     1       7.900   5.277  12.176  0.00  0.00    +0.000 A 
ATOM      9  C   UNL     1       7.833   5.518  13.548  0.00  0.00    +0.000 A 
ATOM     10  C   UNL     1       6.951   4.795  14.366  0.00  0.00    +0.000 A 
ATOM     11  C   UNL     1       6.134   3.818  13.775  0.00  0.00    +0.000 A 
ENDBRANCH   1  10
BRANCH   3  12
ATOM     12  C   UNL     1       5.815   6.285  17.713  0.00  0.00    +0.000 C 
BRANCH  12  13
ATOM     13  C   UNL     1       5.413   5.113  18.613  0.00  0.00    +0.000 C 
BRANCH  13  14
ATOM     14  C   UNL     1       4.033   5.282  19.155  0.00  0.00    +0.000 A 
ATOM     15  N   UNL     1       3.454   6.437  19.419  0.00  0.00    +0.000 NA
ATOM     16  N   UNL     1       2.207   6.192  19.937  0.00  0.00    +0.000 NA
ATOM     17  C   UNL     1       2.038   4.890  19.976  0.00  0.00    +0.000 A 
ATOM     18  N   UNL     1       3.158   4.278  19.476  0.00  0.00    +0.000 N 
ATOM     19  C   UNL     1       3.340   2.842  19.416  0.00  0.00    +0.000 C 
ATOM     20  C   UNL     1       2.023   2.076  19.610  0.00  0.00    +0.000 C 
ATOM     21  C   UNL     1       1.190   2.680  20.744  0.00  0.00    +0.000 C 
ATOM     22  C   UNL     1       0.844   4.137  20.438  0.00  0.00    +0.000 C 
ENDBRANCH  13  14
ENDBRANCH  12  13
ENDBRANCH   3  12
TORSDOF 4
ENDMDL
MODEL 7
REMARK VINA RESULT:      -7.5      4.232      6.187
REMARK  Name = 
REMARK  5 active torsions:
REMARK  status: ('A' for Active; 'I' for Inactive)
REMARK    1  A    between atoms: C_1  and  C_2
REMARK    2  A    between atoms: C_6  and  C_7
REMARK    3  A    between atoms: N_9  and  C_10
REMARK    4  A    between atoms: C_10  and  C_11
REMARK    5  A    between atoms: C_11  and  C_12
REMARK                            x       y       z     vdW  Elec       q    Type
REMARK                         _______ _______ _______ _____ _____    ______ ____
ROOT
ATOM      1  C   UNL     1       8.083   8.284  18.029  0.00  0.00    +0.000 C 
ATOM      2  O   UNL     1       7.454   8.032  17.004  0.00  0.00    +0.000 OA
ATOM      3  N   UNL     1       8.406   7.305  18.943  0.00  0.00    +0.000 N 
ATOM      4  H   UNL     1       8.967   7.500  19.759  0.00  0.00    +0.000 HD
ENDROOT
BRANCH   1  10
ATOM      5  C   UNL     1      10.692  11.735  20.685  0.00  0.00    +0.000 C 
ATOM      6  C   UNL     1       9.781  11.379  19.546  0.00  0.00    +0.000 A 
ATOM      7  C   UNL     1       9.319  12.364  18.668  0.00  0.00    +0.000 A 
ATOM      8  C   UNL     1       8.468  12.024  17.616  0.00  0.00    +0.000 A 
ATOM      9  C   UNL     1       8.081  10.696  17.435  0.00  0.00    +0.000 A 
ATOM     10  C   UNL     1       8.534   9.687  18.300  0.00  0.00    +0.000 A 
ATOM     11  C   UNL     1       9.385  10.042  19.359  0.00  0.00    +0.000 A 
ENDBRANCH   1  10
BRANCH   3  12
ATOM     12  C   UNL     1       8.003   5.917  18.762  0.00  0.00    +0.000 C 
BRANCH  12  13
ATOM     13  C   UNL     1       6.627   5.605  19.356  0.00  0.00    +0.000 C 
BRANCH  13  14
ATOM     14  C   UNL     1       5.760   4.875  18.384  0.00  0.00    +0.000 A 
ATOM     15  N   UNL     1       6.153   4.403  17.217  0.00  0.00    +0.000 NA
ATOM     16  N   UNL     1       5.073   3.832  16.592  0.00  0.00    +0.000 NA
ATOM     17  C   UNL     1       4.037   3.956  17.388  0.00  0.00    +0.000 A 
ATOM     18  N   UNL     1       4.429   4.593  18.538  0.00  0.00    +0.000 N 
ATOM     19  C   UNL     1       3.530   4.943  19.619  0.00  0.00    +0.000 C 
ATOM     20  C   UNL     1       2.186   4.204  19.526  0.00  0.00    +0.000 C 
ATOM     21  C   UNL     1       1.659   4.186  18.089  0.00  0.00    +0.000 C 
ATOM     22  C   UNL     1       2.649   3.478  17.164  0.00  0.00    +0.000 C 
ENDBRANCH  13  14
ENDBRANCH  12  13
ENDBRANCH   3  12
TORSDOF 4
ENDMDL
MODEL 8
REMARK VINA RESULT:      -7.4      1.538      1.975
REMARK  Name = 
REMARK  5 active torsions:
REMARK  status: ('A' for Active; 'I' for Inactive)
REMARK    1  A    between atoms: C_1  and  C_2
REMARK    2  A    between atoms: C_6  and  C_7
REMARK    3  A    between atoms: N_9  and  C_10
REMARK    4  A    between atoms: C_10  and  C_11
REMARK    5  A    between atoms: C_11  and  C_12
REMARK                            x       y       z     vdW  Elec       q    Type
REMARK                         _______ _______ _______ _____ _____    ______ ____
ROOT
ATOM      1  C   UNL     1       6.837   5.533  15.800  0.00  0.00    +0.000 C 
ATOM      2  O   UNL     1       6.359   6.642  16.024  0.00  0.00    +0.000 OA
ATOM      3  N   UNL     1       7.312   4.728  16.811  0.00  0.00    +0.000 N 
ATOM      4  H   UNL     1       7.657   3.796  16.635  0.00  0.00    +0.000 HD
ENDROOT
BRANCH   1  10
ATOM      5  C   UNL     1       5.202   2.556  12.026  0.00  0.00    +0.000 C 
ATOM      6  C   UNL     1       6.137   3.610  12.548  0.00  0.00    +0.000 A 
ATOM      7  C   UNL     1       7.111   4.173  11.718  0.00  0.00    +0.000 A 
ATOM      8  C   UNL     1       7.978   5.146  12.214  0.00  0.00    +0.000 A 
ATOM      9  C   UNL     1       7.869   5.566  13.540  0.00  0.00    +0.000 A 
ATOM     10  C   UNL     1       6.897   5.019  14.393  0.00  0.00    +0.000 A 
ATOM     11  C   UNL     1       6.034   4.035  13.885  0.00  0.00    +0.000 A 
ENDBRANCH   1  10
BRANCH   3  12
ATOM     12  C   UNL     1       7.297   5.150  18.205  0.00  0.00    +0.000 C 
BRANCH  12  13
ATOM     13  C   UNL     1       6.240   4.427  19.044  0.00  0.00    +0.000 C 
BRANCH  13  14
ATOM     14  C   UNL     1       4.856   4.810  18.637  0.00  0.00    +0.000 A 
ATOM     15  N   UNL     1       4.446   6.040  18.394  0.00  0.00    +0.000 NA
ATOM     16  N   UNL     1       3.109   6.001  18.086  0.00  0.00    +0.000 NA
ATOM     17  C   UNL     1       2.722   4.747  18.138  0.00  0.00    +0.000 A 
ATOM     18  N   UNL     1       3.796   3.960  18.465  0.00  0.00    +0.000 N 
ATOM     19  C   UNL     1       3.722   2.527  18.660  0.00  0.00    +0.000 C 
ATOM     20  C   UNL     1       2.424   1.925  18.101  0.00  0.00    +0.000 C 
ATOM     21  C   UNL     1       1.212   2.793  18.451  0.00  0.00    +0.000 C 
ATOM     22  C   UNL     1       1.370   4.196  17.864  0.00  0.00    +0.000 C 
ENDBRANCH  13  14
ENDBRANCH  12  13
ENDBRANCH   3  12
TORSDOF 4
ENDMDL
MODEL 9
REMARK VINA RESULT:      -7.4      1.478      2.075
REMARK  Name = 
REMARK  5 active torsions:
REMARK  status: ('A' for Active; 'I' for Inactive)
REMARK    1  A    between atoms: C_1  and  C_2
REMARK    2  A    between atoms: C_6  and  C_7
REMARK    3  A    between atoms: N_9  and  C_10
REMARK    4  A    between atoms: C_10  and  C_11
REMARK    5  A    between atoms: C_11  and  C_12
REMARK                            x       y       z     vdW  Elec       q    Type
REMARK                         _______ _______ _______ _____ _____    ______ ____
ROOT
ATOM      1  C   UNL     1       6.633   4.937  14.652  0.00  0.00    +0.000 C 
ATOM      2  O   UNL     1       7.775   5.388  14.682  0.00  0.00    +0.000 OA
ATOM      3  N   UNL     1       5.725   5.188  15.658  0.00  0.00    +0.000 N 
ATOM      4  H   UNL     1       4.771   4.863  15.610  0.00  0.00    +0.000 HD
ENDROOT
BRANCH   1  10
ATOM      5  C   UNL     1       7.532   1.743  10.809  0.00  0.00    +0.000 C 
ATOM      6  C   UNL     1       6.579   2.562  11.631  0.00  0.00    +0.000 A 
ATOM      7  C   UNL     1       5.211   2.569  11.341  0.00  0.00    +0.000 A 
ATOM      8  C   UNL     1       4.335   3.339  12.108  0.00  0.00    +0.000 A 
ATOM      9  C   UNL     1       4.823   4.098  13.171  0.00  0.00    +0.000 A 
ATOM     10  C   UNL     1       6.191   4.105  13.486  0.00  0.00    +0.000 A 
ATOM     11  C   UNL     1       7.065   3.333  12.704  0.00  0.00    +0.000 A 
ENDBRANCH   1  10
BRANCH   3  12
ATOM     12  C   UNL     1       6.071   5.981  16.829  0.00  0.00    +0.000 C 
BRANCH  12  13
ATOM     13  C   UNL     1       4.898   6.178  17.793  0.00  0.00    +0.000 C 
BRANCH  13  14
ATOM     14  C   UNL     1       4.661   4.964  18.628  0.00  0.00    +0.000 A 
ATOM     15  N   UNL     1       5.516   3.972  18.791  0.00  0.00    +0.000 NA
ATOM     16  N   UNL     1       4.933   3.022  19.591  0.00  0.00    +0.000 NA
ATOM     17  C   UNL     1       3.734   3.448  19.912  0.00  0.00    +0.000 A 
ATOM     18  N   UNL     1       3.527   4.678  19.341  0.00  0.00    +0.000 N 
ATOM     19  C   UNL     1       2.290   5.423  19.443  0.00  0.00    +0.000 C 
ATOM     20  C   UNL     1       1.374   4.888  20.555  0.00  0.00    +0.000 C 
ATOM     21  C   UNL     1       1.330   3.358  20.552  0.00  0.00    +0.000 C 
ATOM     22  C   UNL     1       2.728   2.781  20.777  0.00  0.00    +0.000 C 
ENDBRANCH  13  14
ENDBRANCH  12  13
ENDBRANCH   3  12
TORSDOF 4
ENDMDL
