MODEL 1
REMARK VINA RESULT:      -7.7      0.000      0.000
REMARK  Name = 
REMARK  4 active torsions:
REMARK  status: ('A' for Active; 'I' for Inactive)
REMARK    1  A    between atoms: C_1  and  C_2
REMARK    2  A    between atoms: C_5  and  C_6
REMARK    3  A    between atoms: N_7  and  N_8
REMARK    4  A    between atoms: C_12  and  C_13
REMARK                            x       y       z     vdW  Elec       q    Type
REMARK                         _______ _______ _______ _____ _____    ______ ____
ROOT
ATOM      1  C   UNL     1       6.709   3.870  15.280  0.00  0.00    +0.000 C 
ATOM      2  C   UNL     1       5.681   4.689  15.995  0.00  0.00    +0.000 A 
ATOM      3  C   UNL     1       4.484   4.261  16.620  0.00  0.00    +0.000 A 
ATOM      4  N   UNL     1       3.838   5.306  17.214  0.00  0.00    +0.000 N 
ATOM      5  C   UNL     1       2.726   5.562  17.944  0.00  0.00    +0.000 A 
ATOM      6  C   UNL     1       2.789   6.947  18.243  0.00  0.00    +0.000 A 
ATOM      7  N   UNL     1       3.866   7.502  17.632  0.00  0.00    +0.000 NA
ATOM      8  C   UNL     1       4.455   6.461  17.046  0.00  0.00    +0.000 A 
ATOM      9  S   UNL     1       5.872   6.371  16.177  0.00  0.00    +0.000 S 
ENDROOT
BRANCH   6  10
ATOM     10  C   UNL     1       2.002   7.766  19.184  0.00  0.00    +0.000 A 
ATOM     11  C   UNL     1       1.824   7.382  20.525  0.00  0.00    +0.000 A 
ATOM     12  C   UNL     1       1.144   8.226  21.408  0.00  0.00    +0.000 A 
ATOM     13  C   UNL     1       0.624   9.443  20.957  0.00  0.00    +0.000 A 
ATOM     14  F   UNL     1      -0.035  10.261  21.812  0.00  0.00    +0.000 F 
ATOM     15  C   UNL     1       0.796   9.826  19.625  0.00  0.00    +0.000 A 
ATOM     16  C   UNL     1       1.494   8.999  18.747  0.00  0.00    +0.000 A 
ENDBRANCH   6  10
BRANCH   5  17
ATOM     17  C   UNL     1       1.709   4.529  18.332  0.00  0.00    +0.000 C 
ATOM     18  N   UNL     1       1.912   3.492  19.092  0.00  0.00    +0.000 NA
BRANCH  18  19
ATOM     19  N   UNL     1       3.089   3.212  19.767  0.00  0.00    +0.000 N 
ATOM     20  C   UNL     1       3.913   2.092  19.426  0.00  0.00    +0.000 C 
ATOM     21  N   UNL     1       3.603   1.295  18.463  0.00  0.00    +0.000 NA
ATOM     22  N   UNL     1       5.097   1.845  20.168  0.00  0.00    +0.000 N 
ATOM     23  H   UNL     1       3.350   3.747  20.600  0.00  0.00    +0.000 HD
ATOM     24  H   UNL     1       2.756   1.413  17.891  0.00  0.00    +0.000 HD
ATOM     25  H   UNL     1       5.373   2.472  20.938  0.00  0.00    +0.000 HD
ATOM     26  H   UNL     1       5.701   1.039  19.944  0.00  0.00    +0.000 HD
ENDBRANCH  18  19
ENDBRANCH   5  17
TORSDOF 3
ENDMDL
MODEL 2
REMARK VINA RESULT:      -7.6      0.231      1.058
REMARK  Name = 
REMARK  4 active torsions:
REMARK  status: ('A' for Active; 'I' for Inactive)
REMARK    1  A    between atoms: C_1  and  C_2
REMARK    2  A    between atoms: C_5  and  C_6
REMARK    3  A    between atoms: N_7  and  N_8
REMARK    4  A    between atoms: C_12  and  C_13
REMARK                            x       y       z     vdW  Elec       q    Type
REMARK                         _______ _______ _______ _____ _____    ______ ____
ROOT
ATOM      1  C   UNL     1       6.929   4.048  15.420  0.00  0.00    +0.000 C 
ATOM      2  C   UNL     1       5.864   4.856  16.093  0.00  0.00    +0.000 A 
ATOM      3  C   UNL     1       4.638   4.417  16.649  0.00  0.00    +0.000 A 
ATOM      4  N   UNL     1       3.960   5.453  17.224  0.00  0.00    +0.000 N 
ATOM      5  C   UNL     1       2.812   5.697  17.899  0.00  0.00    +0.000 A 
ATOM      6  C   UNL     1       2.857   7.078  18.221  0.00  0.00    +0.000 A 
ATOM      7  N   UNL     1       3.963   7.642  17.676  0.00  0.00    +0.000 NA
ATOM      8  C   UNL     1       4.583   6.611  17.106  0.00  0.00    +0.000 A 
ATOM      9  S   UNL     1       6.043   6.535  16.309  0.00  0.00    +0.000 S 
ENDROOT
BRANCH   6  10
ATOM     10  C   UNL     1       2.022   7.882  19.132  0.00  0.00    +0.000 A 
ATOM     11  C   UNL     1       1.378   9.056  18.701  0.00  0.00    +0.000 A 
ATOM     12  C   UNL     1       0.527   9.745  19.570  0.00  0.00    +0.000 A 
ATOM     13  C   UNL     1       0.327   9.281  20.873  0.00  0.00    +0.000 A 
ATOM     14  F   UNL     1      -0.498   9.948  21.715  0.00  0.00    +0.000 F 
ATOM     15  C   UNL     1       0.966   8.117  21.307  0.00  0.00    +0.000 A 
ATOM     16  C   UNL     1       1.797   7.413  20.436  0.00  0.00    +0.000 A 
ENDBRANCH   6  10
BRANCH   5  17
ATOM     17  C   UNL     1       1.777   4.658  18.219  0.00  0.00    +0.000 C 
ATOM     18  N   UNL     1       1.947   3.601  18.959  0.00  0.00    +0.000 NA
BRANCH  18  19
ATOM     19  N   UNL     1       3.096   3.299  19.671  0.00  0.00    +0.000 N 
ATOM     20  C   UNL     1       3.890   2.143  19.381  0.00  0.00    +0.000 C 
ATOM     21  N   UNL     1       3.579   1.333  18.430  0.00  0.00    +0.000 NA
ATOM     22  N   UNL     1       5.045   1.875  20.160  0.00  0.00    +0.000 N 
ATOM     23  H   UNL     1       3.354   3.845  20.499  0.00  0.00    +0.000 HD
ATOM     24  H   UNL     1       2.751   1.465  17.832  0.00  0.00    +0.000 HD
ATOM     25  H   UNL     1       5.323   2.512  20.922  0.00  0.00    +0.000 HD
ATOM     26  H   UNL     1       5.627   1.045  19.972  0.00  0.00    +0.000 HD
ENDBRANCH  18  19
ENDBRANCH   5  17
TORSDOF 3
ENDMDL
MODEL 3
REMARK VINA RESULT:      -7.5      2.271      3.627
REMARK  Name = 
REMARK  4 active torsions:
REMARK  status: ('A' for Active; 'I' for Inactive)
REMARK    1  A    between atoms: C_1  and  C_2
REMARK    2  A    between atoms: C_5  and  C_6
REMARK    3  A    between atoms: N_7  and  N_8
REMARK    4  A    between atoms: C_12  and  C_13
REMARK                            x       y       z     vdW  Elec       q    Type
REMARK                         _______ _______ _______ _____ _____    ______ ____
ROOT
ATOM      1  C   UNL     1       3.780   1.076  18.530  0.00  0.00    +0.000 C 
ATOM      2  C   UNL     1       3.493   2.524  18.772  0.00  0.00    +0.000 A 
ATOM      3  C   UNL     1       3.919   3.649  18.024  0.00  0.00    +0.000 A 
ATOM      4  N   UNL     1       3.401   4.803  18.535  0.00  0.00    +0.000 N 
ATOM      5  C   UNL     1       3.401   6.137  18.298  0.00  0.00    +0.000 A 
ATOM      6  C   UNL     1       2.541   6.689  19.282  0.00  0.00    +0.000 A 
ATOM      7  N   UNL     1       2.116   5.712  20.122  0.00  0.00    +0.000 NA
ATOM      8  C   UNL     1       2.658   4.610  19.609  0.00  0.00    +0.000 A 
ATOM      9  S   UNL     1       2.511   3.017  20.072  0.00  0.00    +0.000 S 
ENDROOT
BRANCH   6  10
ATOM     10  C   UNL     1       1.961   8.039  19.406  0.00  0.00    +0.000 A 
ATOM     11  C   UNL     1       1.881   8.912  18.307  0.00  0.00    +0.000 A 
ATOM     12  C   UNL     1       1.247  10.151  18.444  0.00  0.00    +0.000 A 
ATOM     13  C   UNL     1       0.708  10.532  19.676  0.00  0.00    +0.000 A 
ATOM     14  F   UNL     1       0.095  11.732  19.809  0.00  0.00    +0.000 F 
ATOM     15  C   UNL     1       0.788   9.669  20.771  0.00  0.00    +0.000 A 
ATOM     16  C   UNL     1       1.398   8.423  20.633  0.00  0.00    +0.000 A 
ENDBRANCH   6  10
BRANCH   5  17
ATOM     17  C   UNL     1       4.160   6.803  17.188  0.00  0.00    +0.000 C 
ATOM     18  N   UNL     1       5.449   6.772  17.005  0.00  0.00    +0.000 NA
BRANCH  18  19
ATOM     19  N   UNL     1       6.345   6.028  17.754  0.00  0.00    +0.000 N 
ATOM     20  C   UNL     1       7.234   5.079  17.155  0.00  0.00    +0.000 C 
ATOM     21  N   UNL     1       7.251   4.881  15.883  0.00  0.00    +0.000 NA
ATOM     22  N   UNL     1       8.116   4.331  17.978  0.00  0.00    +0.000 N 
ATOM     23  H   UNL     1       6.324   6.065  18.778  0.00  0.00    +0.000 HD
ATOM     24  H   UNL     1       6.634   5.385  15.231  0.00  0.00    +0.000 HD
ATOM     25  H   UNL     1       8.129   4.475  18.998  0.00  0.00    +0.000 HD
ATOM     26  H   UNL     1       8.760   3.637  17.567  0.00  0.00    +0.000 HD
ENDBRANCH  18  19
ENDBRANCH   5  17
TORSDOF 3
ENDMDL
MODEL 4
REMARK VINA RESULT:      -7.3      2.285      3.518
REMARK  Name = 
REMARK  4 active torsions:
REMARK  status: ('A' for Active; 'I' for Inactive)
REMARK    1  A    between atoms: C_1  and  C_2
REMARK    2  A    between atoms: C_5  and  C_6
REMARK    3  A    between atoms: N_7  and  N_8
REMARK    4  A    between atoms: C_12  and  C_13
REMARK                            x       y       z     vdW  Elec       q    Type
REMARK                         _______ _______ _______ _____ _____    ______ ____
ROOT
ATOM      1  C   UNL     1       3.862   1.094  18.492  0.00  0.00    +0.000 C 
ATOM      2  C   UNL     1       3.546   2.537  18.730  0.00  0.00    +0.000 A 
ATOM      3  C   UNL     1       3.975   3.670  17.998  0.00  0.00    +0.000 A 
ATOM      4  N   UNL     1       3.426   4.815  18.498  0.00  0.00    +0.000 N 
ATOM      5  C   UNL     1       3.412   6.149  18.266  0.00  0.00    +0.000 A 
ATOM      6  C   UNL     1       2.515   6.685  19.226  0.00  0.00    +0.000 A 
ATOM      7  N   UNL     1       2.082   5.698  20.051  0.00  0.00    +0.000 NA
ATOM      8  C   UNL     1       2.655   4.606  19.549  0.00  0.00    +0.000 A 
ATOM      9  S   UNL     1       2.519   3.010  20.003  0.00  0.00    +0.000 S 
ENDROOT
BRANCH   6  10
ATOM     10  C   UNL     1       1.911   8.025  19.338  0.00  0.00    +0.000 A 
ATOM     11  C   UNL     1       1.378   8.495  20.551  0.00  0.00    +0.000 A 
ATOM     12  C   UNL     1       0.890   9.802  20.640  0.00  0.00    +0.000 A 
ATOM     13  C   UNL     1       0.915  10.639  19.520  0.00  0.00    +0.000 A 
ATOM     14  F   UNL     1       0.442  11.905  19.606  0.00  0.00    +0.000 F 
ATOM     15  C   UNL     1       1.441  10.175  18.312  0.00  0.00    +0.000 A 
ATOM     16  C   UNL     1       1.950   8.880  18.226  0.00  0.00    +0.000 A 
ENDBRANCH   6  10
BRANCH   5  17
ATOM     17  C   UNL     1       4.192   6.831  17.179  0.00  0.00    +0.000 C 
ATOM     18  N   UNL     1       5.482   6.793  17.015  0.00  0.00    +0.000 NA
BRANCH  18  19
ATOM     19  N   UNL     1       6.362   6.028  17.762  0.00  0.00    +0.000 N 
ATOM     20  C   UNL     1       7.246   5.078  17.157  0.00  0.00    +0.000 C 
ATOM     21  N   UNL     1       7.273   4.898  15.883  0.00  0.00    +0.000 NA
ATOM     22  N   UNL     1       8.111   4.307  17.978  0.00  0.00    +0.000 N 
ATOM     23  H   UNL     1       6.331   6.051  18.785  0.00  0.00    +0.000 HD
ATOM     24  H   UNL     1       6.669   5.418  15.233  0.00  0.00    +0.000 HD
ATOM     25  H   UNL     1       8.115   4.437  19.001  0.00  0.00    +0.000 HD
ATOM     26  H   UNL     1       8.750   3.612  17.564  0.00  0.00    +0.000 HD
ENDBRANCH  18  19
ENDBRANCH   5  17
TORSDOF 3
ENDMDL
MODEL 5
REMARK VINA RESULT:      -7.2      1.479      2.065
REMARK  Name = 
REMARK  4 active torsions:
REMARK  status: ('A' for Active; 'I' for Inactive)
REMARK    1  A    between atoms: C_1  and  C_2
REMARK    2  A    between atoms: C_5  and  C_6
REMARK    3  A    between atoms: N_7  and  N_8
REMARK    4  A    between atoms: C_12  and  C_13
REMARK                            x       y       z     vdW  Elec       q    Type
REMARK                         _______ _______ _______ _____ _____    ______ ____
ROOT
ATOM      1  C   UNL     1       7.271   4.500  17.448  0.00  0.00    +0.000 C 
ATOM      2  C   UNL     1       6.022   5.289  17.689  0.00  0.00    +0.000 A 
ATOM      3  C   UNL     1       5.020   5.083  18.668  0.00  0.00    +0.000 A 
ATOM      4  N   UNL     1       4.061   6.052  18.600  0.00  0.00    +0.000 N 
ATOM      5  C   UNL     1       2.915   6.426  19.218  0.00  0.00    +0.000 A 
ATOM      6  C   UNL     1       2.521   7.627  18.575  0.00  0.00    +0.000 A 
ATOM      7  N   UNL     1       3.369   7.902  17.552  0.00  0.00    +0.000 NA
ATOM      8  C   UNL     1       4.272   6.927  17.634  0.00  0.00    +0.000 A 
ATOM      9  S   UNL     1       5.655   6.658  16.747  0.00  0.00    +0.000 S 
ENDROOT
BRANCH   6  10
ATOM     10  C   UNL     1       1.497   8.624  18.939  0.00  0.00    +0.000 A 
ATOM     11  C   UNL     1       0.790   9.347  17.962  0.00  0.00    +0.000 A 
ATOM     12  C   UNL     1      -0.232  10.222  18.343  0.00  0.00    +0.000 A 
ATOM     13  C   UNL     1      -0.541  10.393  19.696  0.00  0.00    +0.000 A 
ATOM     14  F   UNL     1      -1.531  11.241  20.066  0.00  0.00    +0.000 F 
ATOM     15  C   UNL     1       0.161   9.680  20.670  0.00  0.00    +0.000 A 
ATOM     16  C   UNL     1       1.164   8.789  20.292  0.00  0.00    +0.000 A 
ENDBRANCH   6  10
BRANCH   5  17
ATOM     17  C   UNL     1       2.282   5.681  20.357  0.00  0.00    +0.000 C 
ATOM     18  N   UNL     1       1.663   4.538  20.283  0.00  0.00    +0.000 NA
BRANCH  18  19
ATOM     19  N   UNL     1       1.567   3.752  19.147  0.00  0.00    +0.000 N 
ATOM     20  C   UNL     1       2.393   2.600  18.947  0.00  0.00    +0.000 C 
ATOM     21  N   UNL     1       3.259   2.231  19.825  0.00  0.00    +0.000 NA
ATOM     22  N   UNL     1       2.262   1.845  17.752  0.00  0.00    +0.000 N 
ATOM     23  H   UNL     1       0.967   4.036  18.367  0.00  0.00    +0.000 HD
ATOM     24  H   UNL     1       3.409   2.736  20.708  0.00  0.00    +0.000 HD
ATOM     25  H   UNL     1       1.571   2.113  17.036  0.00  0.00    +0.000 HD
ATOM     26  H   UNL     1       2.853   1.016  17.584  0.00  0.00    +0.000 HD
ENDBRANCH  18  19
ENDBRANCH   5  17
TORSDOF 3
ENDMDL
MODEL 6
REMARK VINA RESULT:      -7.1      3.393      6.197
REMARK  Name = 
REMARK  4 active torsions:
REMARK  status: ('A' for Active; 'I' for Inactive)
REMARK    1  A    between atoms: C_1  and  C_2
REMARK    2  A    between atoms: C_5  and  C_6
REMARK    3  A    between atoms: N_7  and  N_8
REMARK    4  A    between atoms: C_12  and  C_13
REMARK                            x       y       z     vdW  Elec       q    Type
REMARK                         _______ _______ _______ _____ _____    ______ ____
ROOT
ATOM      1  C   UNL     1       1.252   7.835  20.946  0.00  0.00    +0.000 C 
ATOM      2  C   UNL     1       2.207   7.358  19.897  0.00  0.00    +0.000 A 
ATOM      3  C   UNL     1       3.138   6.294  19.966  0.00  0.00    +0.000 A 
ATOM      4  N   UNL     1       3.792   6.136  18.778  0.00  0.00    +0.000 N 
ATOM      5  C   UNL     1       4.731   5.345  18.205  0.00  0.00    +0.000 A 
ATOM      6  C   UNL     1       4.830   5.798  16.864  0.00  0.00    +0.000 A 
ATOM      7  N   UNL     1       4.030   6.879  16.683  0.00  0.00    +0.000 NA
ATOM      8  C   UNL     1       3.430   7.016  17.864  0.00  0.00    +0.000 A 
ATOM      9  S   UNL     1       2.258   8.090  18.361  0.00  0.00    +0.000 S 
ENDROOT
BRANCH   6  10
ATOM     10  C   UNL     1       5.500   5.203  15.694  0.00  0.00    +0.000 A 
ATOM     11  C   UNL     1       4.813   4.370  14.794  0.00  0.00    +0.000 A 
ATOM     12  C   UNL     1       5.459   3.893  13.649  0.00  0.00    +0.000 A 
ATOM     13  C   UNL     1       6.794   4.228  13.406  0.00  0.00    +0.000 A 
ATOM     14  F   UNL     1       7.421   3.766  12.298  0.00  0.00    +0.000 F 
ATOM     15  C   UNL     1       7.482   5.053  14.299  0.00  0.00    +0.000 A 
ATOM     16  C   UNL     1       6.834   5.550  15.428  0.00  0.00    +0.000 A 
ENDBRANCH   6  10
BRANCH   5  17
ATOM     17  C   UNL     1       5.446   4.229  18.909  0.00  0.00    +0.000 C 
ATOM     18  N   UNL     1       4.895   3.195  19.476  0.00  0.00    +0.000 NA
BRANCH  18  19
ATOM     19  N   UNL     1       3.545   2.888  19.442  0.00  0.00    +0.000 N 
ATOM     20  C   UNL     1       3.045   1.735  18.757  0.00  0.00    +0.000 C 
ATOM     21  N   UNL     1       3.831   0.918  18.147  0.00  0.00    +0.000 NA
ATOM     22  N   UNL     1       1.648   1.484  18.739  0.00  0.00    +0.000 N 
ATOM     23  H   UNL     1       2.854   3.539  19.825  0.00  0.00    +0.000 HD
ATOM     24  H   UNL     1       4.852   1.045  18.115  0.00  0.00    +0.000 HD
ATOM     25  H   UNL     1       0.996   2.117  19.226  0.00  0.00    +0.000 HD
ATOM     26  H   UNL     1       1.265   0.663  18.245  0.00  0.00    +0.000 HD
ENDBRANCH  18  19
ENDBRANCH   5  17
TORSDOF 3
ENDMDL
MODEL 7
REMARK VINA RESULT:      -7.1      1.499      1.909
REMARK  Name = 
REMARK  4 active torsions:
REMARK  status: ('A' for Active; 'I' for Inactive)
REMARK    1  A    between atoms: C_1  and  C_2
REMARK    2  A    between atoms: C_5  and  C_6
REMARK    3  A    between atoms: N_7  and  N_8
REMARK    4  A    between atoms: C_12  and  C_13
REMARK                            x       y       z     vdW  Elec       q    Type
REMARK                         _______ _______ _______ _____ _____    ______ ____
ROOT
ATOM      1  C   UNL     1       6.794   4.459  17.245  0.00  0.00    +0.000 C 
ATOM      2  C   UNL     1       5.597   5.292  17.580  0.00  0.00    +0.000 A 
ATOM      3  C   UNL     1       4.666   5.121  18.633  0.00  0.00    +0.000 A 
ATOM      4  N   UNL     1       3.741   6.125  18.639  0.00  0.00    +0.000 N 
ATOM      5  C   UNL     1       2.661   6.539  19.343  0.00  0.00    +0.000 A 
ATOM      6  C   UNL     1       2.263   7.756  18.731  0.00  0.00    +0.000 A 
ATOM      7  N   UNL     1       3.040   8.001  17.646  0.00  0.00    +0.000 NA
ATOM      8  C   UNL     1       3.910   6.993  17.659  0.00  0.00    +0.000 A 
ATOM      9  S   UNL     1       5.210   6.676  16.668  0.00  0.00    +0.000 S 
ENDROOT
BRANCH   6  10
ATOM     10  C   UNL     1       1.308   8.789  19.172  0.00  0.00    +0.000 A 
ATOM     11  C   UNL     1       1.020   8.995  20.533  0.00  0.00    +0.000 A 
ATOM     12  C   UNL     1       0.174  10.040  20.918  0.00  0.00    +0.000 A 
ATOM     13  C   UNL     1      -0.402  10.870  19.951  0.00  0.00    +0.000 A 
ATOM     14  F   UNL     1      -1.222  11.881  20.324  0.00  0.00    +0.000 F 
ATOM     15  C   UNL     1      -0.121  10.666  18.598  0.00  0.00    +0.000 A 
ATOM     16  C   UNL     1       0.741   9.641  18.212  0.00  0.00    +0.000 A 
ENDBRANCH   6  10
BRANCH   5  17
ATOM     17  C   UNL     1       2.089   5.815  20.527  0.00  0.00    +0.000 C 
ATOM     18  N   UNL     1       1.487   4.661  20.510  0.00  0.00    +0.000 NA
BRANCH  18  19
ATOM     19  N   UNL     1       1.355   3.844  19.400  0.00  0.00    +0.000 N 
ATOM     20  C   UNL     1       2.157   2.671  19.219  0.00  0.00    +0.000 C 
ATOM     21  N   UNL     1       3.034   2.313  20.091  0.00  0.00    +0.000 NA
ATOM     22  N   UNL     1       1.990   1.884  18.050  0.00  0.00    +0.000 N 
ATOM     23  H   UNL     1       0.744   4.115  18.624  0.00  0.00    +0.000 HD
ATOM     24  H   UNL     1       3.210   2.842  20.956  0.00  0.00    +0.000 HD
ATOM     25  H   UNL     1       1.289   2.143  17.340  0.00  0.00    +0.000 HD
ATOM     26  H   UNL     1       2.563   1.040  17.896  0.00  0.00    +0.000 HD
ENDBRANCH  18  19
ENDBRANCH   5  17
TORSDOF 3
ENDMDL
MODEL 8
REMARK VINA RESULT:      -7.0      3.414      6.220
REMARK  Name = 
REMARK  4 active torsions:
REMARK  status: ('A' for Active; 'I' for Inactive)
REMARK    1  A    between atoms: C_1  and  C_2
REMARK    2  A    between atoms: C_5  and  C_6
REMARK    3  A    between atoms: N_7  and  N_8
REMARK    4  A    between atoms: C_12  and  C_13
REMARK                            x       y       z     vdW  Elec       q    Type
REMARK                         _______ _______ _______ _____ _____    ______ ____
ROOT
ATOM      1  C   UNL     1       1.269   7.845  20.869  0.00  0.00    +0.000 C 
ATOM      2  C   UNL     1       2.222   7.388  19.810  0.00  0.00    +0.000 A 
ATOM      3  C   UNL     1       3.163   6.331  19.861  0.00  0.00    +0.000 A 
ATOM      4  N   UNL     1       3.811   6.193  18.668  0.00  0.00    +0.000 N 
ATOM      5  C   UNL     1       4.754   5.417  18.080  0.00  0.00    +0.000 A 
ATOM      6  C   UNL     1       4.841   5.886  16.745  0.00  0.00    +0.000 A 
ATOM      7  N   UNL     1       4.031   6.962  16.580  0.00  0.00    +0.000 NA
ATOM      8  C   UNL     1       3.436   7.081  17.766  0.00  0.00    +0.000 A 
ATOM      9  S   UNL     1       2.259   8.138  18.282  0.00  0.00    +0.000 S 
ENDROOT
BRANCH   6  10
ATOM     10  C   UNL     1       5.510   5.311  15.564  0.00  0.00    +0.000 A 
ATOM     11  C   UNL     1       6.874   5.537  15.304  0.00  0.00    +0.000 A 
ATOM     12  C   UNL     1       7.493   4.905  14.221  0.00  0.00    +0.000 A 
ATOM     13  C   UNL     1       6.756   4.063  13.384  0.00  0.00    +0.000 A 
ATOM     14  F   UNL     1       7.355   3.452  12.334  0.00  0.00    +0.000 F 
ATOM     15  C   UNL     1       5.401   3.838  13.636  0.00  0.00    +0.000 A 
ATOM     16  C   UNL     1       4.785   4.447  14.729  0.00  0.00    +0.000 A 
ENDBRANCH   6  10
BRANCH   5  17
ATOM     17  C   UNL     1       5.482   4.299  18.768  0.00  0.00    +0.000 C 
ATOM     18  N   UNL     1       4.944   3.256  19.329  0.00  0.00    +0.000 NA
BRANCH  18  19
ATOM     19  N   UNL     1       3.595   2.940  19.303  0.00  0.00    +0.000 N 
ATOM     20  C   UNL     1       3.108   1.735  18.703  0.00  0.00    +0.000 C 
ATOM     21  N   UNL     1       3.906   0.877  18.168  0.00  0.00    +0.000 NA
ATOM     22  N   UNL     1       1.712   1.476  18.689  0.00  0.00    +0.000 N 
ATOM     23  H   UNL     1       2.897   3.615  19.626  0.00  0.00    +0.000 HD
ATOM     24  H   UNL     1       4.926   1.007  18.139  0.00  0.00    +0.000 HD
ATOM     25  H   UNL     1       1.052   2.141  19.118  0.00  0.00    +0.000 HD
ATOM     26  H   UNL     1       1.340   0.617  18.256  0.00  0.00    +0.000 HD
ENDBRANCH  18  19
ENDBRANCH   5  17
TORSDOF 3
ENDMDL
MODEL 9
REMARK VINA RESULT:      -7.0      2.400      4.053
REMARK  Name = 
REMARK  4 active torsions:
REMARK  status: ('A' for Active; 'I' for Inactive)
REMARK    1  A    between atoms: C_1  and  C_2
REMARK    2  A    between atoms: C_5  and  C_6
REMARK    3  A    between atoms: N_7  and  N_8
REMARK    4  A    between atoms: C_12  and  C_13
REMARK                            x       y       z     vdW  Elec       q    Type
REMARK                         _______ _______ _______ _____ _____    ______ ____
ROOT
ATOM      1  C   UNL     1       3.748   1.029  18.594  0.00  0.00    +0.000 C 
ATOM      2  C   UNL     1       3.469   2.485  18.798  0.00  0.00    +0.000 A 
ATOM      3  C   UNL     1       3.859   3.583  17.993  0.00  0.00    +0.000 A 
ATOM      4  N   UNL     1       3.361   4.754  18.486  0.00  0.00    +0.000 N 
ATOM      5  C   UNL     1       3.348   6.079  18.204  0.00  0.00    +0.000 A 
ATOM      6  C   UNL     1       2.530   6.664  19.204  0.00  0.00    +0.000 A 
ATOM      7  N   UNL     1       2.144   5.716  20.095  0.00  0.00    +0.000 NA
ATOM      8  C   UNL     1       2.666   4.597  19.597  0.00  0.00    +0.000 A 
ATOM      9  S   UNL     1       2.542   3.022  20.121  0.00  0.00    +0.000 S 
ENDROOT
BRANCH   6  10
ATOM     10  C   UNL     1       1.953   8.017  19.306  0.00  0.00    +0.000 A 
ATOM     11  C   UNL     1       1.835   8.856  18.184  0.00  0.00    +0.000 A 
ATOM     12  C   UNL     1       1.205  10.098  18.304  0.00  0.00    +0.000 A 
ATOM     13  C   UNL     1       0.708  10.517  19.541  0.00  0.00    +0.000 A 
ATOM     14  F   UNL     1       0.098  11.721  19.658  0.00  0.00    +0.000 F 
ATOM     15  C   UNL     1       0.825   9.688  20.659  0.00  0.00    +0.000 A 
ATOM     16  C   UNL     1       1.431   8.439  20.539  0.00  0.00    +0.000 A 
ENDBRANCH   6  10
BRANCH   5  17
ATOM     17  C   UNL     1       4.057   6.706  17.039  0.00  0.00    +0.000 C 
ATOM     18  N   UNL     1       5.337   6.920  16.937  0.00  0.00    +0.000 NA
BRANCH  18  19
ATOM     19  N   UNL     1       6.292   6.511  17.853  0.00  0.00    +0.000 N 
ATOM     20  C   UNL     1       7.519   7.225  18.042  0.00  0.00    +0.000 C 
ATOM     21  N   UNL     1       7.788   8.292  17.375  0.00  0.00    +0.000 NA
ATOM     22  N   UNL     1       8.469   6.744  18.981  0.00  0.00    +0.000 N 
ATOM     23  H   UNL     1       6.188   5.623  18.351  0.00  0.00    +0.000 HD
ATOM     24  H   UNL     1       7.147   8.690  16.675  0.00  0.00    +0.000 HD
ATOM     25  H   UNL     1       8.275   5.896  19.535  0.00  0.00    +0.000 HD
ATOM     26  H   UNL     1       9.362   7.239  19.128  0.00  0.00    +0.000 HD
ENDBRANCH  18  19
ENDBRANCH   5  17
TORSDOF 3
ENDMDL
