MODEL 1
REMARK VINA RESULT:      -8.1      0.000      0.000
REMARK  Name = 
REMARK  8 active torsions:
REMARK  status: ('A' for Active; 'I' for Inactive)
REMARK    1  A    between atoms: C_1  and  C_2
REMARK    2  A    between atoms: C_8  and  S_9
REMARK    3  A    between atoms: S_9  and  N_12
REMARK    4  A    between atoms: N_12  and  C_13
REMARK    5  A    between atoms: C_13  and  C_14
REMARK    6  A    between atoms: C_17  and  C_18
REMARK    7  A    between atoms: C_23  and  C_24
REMARK    8  A    between atoms: C_32  and  C_33
REMARK                            x       y       z     vdW  Elec       q    Type
REMARK                         _______ _______ _______ _____ _____    ______ ____
ROOT
ATOM      1  N   UNL     1       0.978  10.337  20.187  0.00  0.00    +0.000 NA
ATOM      2  H   UNL     1       1.412   9.687  20.838  0.00  0.00    +0.000 HD
ENDROOT
BRANCH   1   3
ATOM      3  S   UNL     1       1.342   9.935  18.577  0.00  0.00    +0.000 S 
ATOM      4  O   UNL     1       2.393  10.811  18.115  0.00  0.00    +0.000 OA
ATOM      5  O   UNL     1       0.076   9.802  17.881  0.00  0.00    +0.000 OA
BRANCH   3  13
ATOM      6  C   UNL     1       4.011   2.024  18.930  0.00  0.00    +0.000 C 
ATOM      7  C   UNL     1       3.957   3.475  18.530  0.00  0.00    +0.000 C 
ATOM      8  O   UNL     1       4.620   3.843  17.558  0.00  0.00    +0.000 OA
ATOM      9  N   UNL     1       3.133   4.301  19.281  0.00  0.00    +0.000 N 
ATOM     10  C   UNL     1       2.880   5.659  18.970  0.00  0.00    +0.000 A 
ATOM     11  C   UNL     1       3.261   6.402  17.857  0.00  0.00    +0.000 A 
ATOM     12  C   UNL     1       2.825   7.735  17.743  0.00  0.00    +0.000 A 
ATOM     13  C   UNL     1       2.011   8.292  18.741  0.00  0.00    +0.000 A 
ATOM     14  C   UNL     1       1.651   7.553  19.869  0.00  0.00    +0.000 A 
ATOM     15  C   UNL     1       2.108   6.248  19.969  0.00  0.00    +0.000 A 
ATOM     16  C   UNL     1       1.838   5.305  21.093  0.00  0.00    +0.000 C 
ATOM     17  C   UNL     1       2.496   3.997  20.599  0.00  0.00    +0.000 C 
ATOM     18  C   UNL     1       1.443   2.888  20.579  0.00  0.00    +0.000 C 
ENDBRANCH   3  13
ENDBRANCH   1   3
BRANCH   1  19
ATOM     19  C   UNL     1       1.094  11.762  20.513  0.00  0.00    +0.000 C 
BRANCH  19  20
ATOM     20  C   UNL     1      -0.195  12.545  20.212  0.00  0.00    +0.000 C 
ATOM     21  C   UNL     1      -1.470  11.964  20.846  0.00  0.00    +0.000 C 
ATOM     22  C   UNL     1      -1.548  12.138  22.370  0.00  0.00    +0.000 C 
ATOM     23  C   UNL     1      -1.279  13.584  22.843  0.00  0.00    +0.000 C 
ATOM     24  C   UNL     1       0.028  14.085  22.210  0.00  0.00    +0.000 C 
ATOM     25  C   UNL     1       0.004  13.989  20.689  0.00  0.00    +0.000 C 
BRANCH  23  26
ATOM     26  C   UNL     1      -2.491  14.507  22.583  0.00  0.00    +0.000 C 
ATOM     27  O   UNL     1      -2.459  15.330  21.672  0.00  0.00    +0.000 OA
ATOM     28  N   UNL     1      -3.622  14.355  23.378  0.00  0.00    +0.000 N 
ATOM     29  C   UNL     1      -3.792  13.407  24.474  0.00  0.00    +0.000 C 
ATOM     30  C   UNL     1      -5.013  12.531  24.264  0.00  0.00    +0.000 C 
ATOM     31  C   UNL     1      -6.271  13.371  24.038  0.00  0.00    +0.000 C 
ATOM     32  C   UNL     1      -7.450  12.453  23.731  0.00  0.00    +0.000 C 
ATOM     33  C   UNL     1      -6.043  14.385  22.904  0.00  0.00    +0.000 C 
ATOM     34  C   UNL     1      -4.781  15.218  23.137  0.00  0.00    +0.000 C 
ENDBRANCH  23  26
ENDBRANCH  19  20
ENDBRANCH   1  19
TORSDOF 5
ENDMDL
MODEL 2
REMARK VINA RESULT:      -7.9      4.609     11.933
REMARK  Name = 
REMARK  8 active torsions:
REMARK  status: ('A' for Active; 'I' for Inactive)
REMARK    1  A    between atoms: C_1  and  C_2
REMARK    2  A    between atoms: C_8  and  S_9
REMARK    3  A    between atoms: S_9  and  N_12
REMARK    4  A    between atoms: N_12  and  C_13
REMARK    5  A    between atoms: C_13  and  C_14
REMARK    6  A    between atoms: C_17  and  C_18
REMARK    7  A    between atoms: C_23  and  C_24
REMARK    8  A    between atoms: C_32  and  C_33
REMARK                            x       y       z     vdW  Elec       q    Type
REMARK                         _______ _______ _______ _____ _____    ______ ____
ROOT
ATOM      1  N   UNL     1       4.991   3.858  19.762  0.00  0.00    +0.000 NA
ATOM      2  H   UNL     1       5.511   2.994  19.633  0.00  0.00    +0.000 HD
ENDROOT
BRANCH   1   3
ATOM      3  S   UNL     1       3.317   3.596  19.651  0.00  0.00    +0.000 S 
ATOM      4  O   UNL     1       2.852   3.074  20.914  0.00  0.00    +0.000 OA
ATOM      5  O   UNL     1       3.082   2.915  18.393  0.00  0.00    +0.000 OA
BRANCH   3  13
ATOM      6  C   UNL     1       0.965  11.583  18.936  0.00  0.00    +0.000 C 
ATOM      7  C   UNL     1       1.416  10.206  18.525  0.00  0.00    +0.000 C 
ATOM      8  O   UNL     1       1.845  10.043  17.381  0.00  0.00    +0.000 OA
ATOM      9  N   UNL     1       1.338   9.209  19.487  0.00  0.00    +0.000 N 
ATOM     10  C   UNL     1       1.826   7.892  19.302  0.00  0.00    +0.000 A 
ATOM     11  C   UNL     1       2.557   7.355  18.248  0.00  0.00    +0.000 A 
ATOM     12  C   UNL     1       2.989   6.019  18.325  0.00  0.00    +0.000 A 
ATOM     13  C   UNL     1       2.688   5.252  19.462  0.00  0.00    +0.000 A 
ATOM     14  C   UNL     1       1.933   5.785  20.508  0.00  0.00    +0.000 A 
ATOM     15  C   UNL     1       1.502   7.098  20.400  0.00  0.00    +0.000 A 
ATOM     16  C   UNL     1       0.684   7.840  21.402  0.00  0.00    +0.000 C 
ATOM     17  C   UNL     1       0.618   9.261  20.797  0.00  0.00    +0.000 C 
ATOM     18  C   UNL     1       1.173  10.260  21.812  0.00  0.00    +0.000 C 
ENDBRANCH   3  13
ENDBRANCH   1   3
BRANCH   1  19
ATOM     19  C   UNL     1       5.487   5.030  19.033  0.00  0.00    +0.000 C 
BRANCH  19  20
ATOM     20  C   UNL     1       6.590   4.674  18.021  0.00  0.00    +0.000 C 
ATOM     21  C   UNL     1       6.213   3.579  17.009  0.00  0.00    +0.000 C 
ATOM     22  C   UNL     1       5.189   4.025  15.956  0.00  0.00    +0.000 C 
ATOM     23  C   UNL     1       5.558   5.352  15.256  0.00  0.00    +0.000 C 
ATOM     24  C   UNL     1       5.878   6.410  16.322  0.00  0.00    +0.000 C 
ATOM     25  C   UNL     1       6.979   5.955  17.272  0.00  0.00    +0.000 C 
BRANCH  23  26
ATOM     26  C   UNL     1       6.683   5.157  14.213  0.00  0.00    +0.000 C 
ATOM     27  O   UNL     1       7.825   5.534  14.457  0.00  0.00    +0.000 OA
ATOM     28  N   UNL     1       6.375   4.514  13.019  0.00  0.00    +0.000 N 
ATOM     29  C   UNL     1       5.067   4.005  12.619  0.00  0.00    +0.000 C 
ATOM     30  C   UNL     1       5.131   2.530  12.268  0.00  0.00    +0.000 C 
ATOM     31  C   UNL     1       6.198   2.255  11.207  0.00  0.00    +0.000 C 
ATOM     32  C   UNL     1       6.297   0.752  10.961  0.00  0.00    +0.000 C 
ATOM     33  C   UNL     1       7.552   2.839  11.643  0.00  0.00    +0.000 C 
ATOM     34  C   UNL     1       7.433   4.316  12.026  0.00  0.00    +0.000 C 
ENDBRANCH  23  26
ENDBRANCH  19  20
ENDBRANCH   1  19
TORSDOF 5
ENDMDL
MODEL 3
REMARK VINA RESULT:      -7.9      1.318      1.528
REMARK  Name = 
REMARK  8 active torsions:
REMARK  status: ('A' for Active; 'I' for Inactive)
REMARK    1  A    between atoms: C_1  and  C_2
REMARK    2  A    between atoms: C_8  and  S_9
REMARK    3  A    between atoms: S_9  and  N_12
REMARK    4  A    between atoms: N_12  and  C_13
REMARK    5  A    between atoms: C_13  and  C_14
REMARK    6  A    between atoms: C_17  and  C_18
REMARK    7  A    between atoms: C_23  and  C_24
REMARK    8  A    between atoms: C_32  and  C_33
REMARK                            x       y       z     vdW  Elec       q    Type
REMARK                         _______ _______ _______ _____ _____    ______ ____
ROOT
ATOM      1  N   UNL     1       0.695  10.469  19.921  0.00  0.00    +0.000 NA
ATOM      2  H   UNL     1      -0.032  10.315  19.227  0.00  0.00    +0.000 HD
ENDROOT
BRANCH   1   3
ATOM      3  S   UNL     1       0.645   9.287  21.140  0.00  0.00    +0.000 S 
ATOM      4  O   UNL     1      -0.731   8.899  21.343  0.00  0.00    +0.000 OA
ATOM      5  O   UNL     1       1.487   9.764  22.220  0.00  0.00    +0.000 OA
BRANCH   3  13
ATOM      6  C   UNL     1       4.170   2.824  17.186  0.00  0.00    +0.000 C 
ATOM      7  C   UNL     1       3.871   4.251  17.561  0.00  0.00    +0.000 C 
ATOM      8  O   UNL     1       4.256   5.151  16.812  0.00  0.00    +0.000 OA
ATOM      9  N   UNL     1       3.149   4.454  18.730  0.00  0.00    +0.000 N 
ATOM     10  C   UNL     1       2.687   5.720  19.164  0.00  0.00    +0.000 A 
ATOM     11  C   UNL     1       2.728   6.951  18.517  0.00  0.00    +0.000 A 
ATOM     12  C   UNL     1       2.136   8.068  19.134  0.00  0.00    +0.000 A 
ATOM     13  C   UNL     1       1.508   7.926  20.381  0.00  0.00    +0.000 A 
ATOM     14  C   UNL     1       1.490   6.696  21.040  0.00  0.00    +0.000 A 
ATOM     15  C   UNL     1       2.097   5.614  20.421  0.00  0.00    +0.000 A 
ATOM     16  C   UNL     1       2.188   4.228  20.964  0.00  0.00    +0.000 C 
ATOM     17  C   UNL     1       2.858   3.456  19.804  0.00  0.00    +0.000 C 
ATOM     18  C   UNL     1       1.953   2.294  19.393  0.00  0.00    +0.000 C 
ENDBRANCH   3  13
ENDBRANCH   1   3
BRANCH   1  19
ATOM     19  C   UNL     1       0.861  11.846  20.396  0.00  0.00    +0.000 C 
BRANCH  19  20
ATOM     20  C   UNL     1      -0.350  12.736  20.064  0.00  0.00    +0.000 C 
ATOM     21  C   UNL     1      -1.712  12.162  20.488  0.00  0.00    +0.000 C 
ATOM     22  C   UNL     1      -1.946  12.160  22.006  0.00  0.00    +0.000 C 
ATOM     23  C   UNL     1      -1.661  13.521  22.679  0.00  0.00    +0.000 C 
ATOM     24  C   UNL     1      -0.271  14.013  22.249  0.00  0.00    +0.000 C 
ATOM     25  C   UNL     1      -0.135  14.099  20.734  0.00  0.00    +0.000 C 
BRANCH  23  26
ATOM     26  C   UNL     1      -2.793  14.540  22.413  0.00  0.00    +0.000 C 
ATOM     27  O   UNL     1      -2.684  15.365  21.511  0.00  0.00    +0.000 OA
ATOM     28  N   UNL     1      -3.942  14.472  23.193  0.00  0.00    +0.000 N 
ATOM     29  C   UNL     1      -4.200  13.532  24.279  0.00  0.00    +0.000 C 
ATOM     30  C   UNL     1      -5.485  12.757  24.046  0.00  0.00    +0.000 C 
ATOM     31  C   UNL     1      -6.668  13.697  23.813  0.00  0.00    +0.000 C 
ATOM     32  C   UNL     1      -7.913  12.878  23.484  0.00  0.00    +0.000 C 
ATOM     33  C   UNL     1      -6.346  14.699  22.692  0.00  0.00    +0.000 C 
ATOM     34  C   UNL     1      -5.025  15.427  22.947  0.00  0.00    +0.000 C 
ENDBRANCH  23  26
ENDBRANCH  19  20
ENDBRANCH   1  19
TORSDOF 5
ENDMDL
MODEL 4
REMARK VINA RESULT:      -7.8      1.784      2.363
REMARK  Name = 
REMARK  8 active torsions:
REMARK  status: ('A' for Active; 'I' for Inactive)
REMARK    1  A    between atoms: C_1  and  C_2
REMARK    2  A    between atoms: C_8  and  S_9
REMARK    3  A    between atoms: S_9  and  N_12
REMARK    4  A    between atoms: N_12  and  C_13
REMARK    5  A    between atoms: C_13  and  C_14
REMARK    6  A    between atoms: C_17  and  C_18
REMARK    7  A    between atoms: C_23  and  C_24
REMARK    8  A    between atoms: C_32  and  C_33
REMARK                            x       y       z     vdW  Elec       q    Type
REMARK                         _______ _______ _______ _____ _____    ______ ____
ROOT
ATOM      1  N   UNL     1       0.874  10.470  20.301  0.00  0.00    +0.000 NA
ATOM      2  H   UNL     1       1.654  10.532  19.652  0.00  0.00    +0.000 HD
ENDROOT
BRANCH   1   3
ATOM      3  S   UNL     1       0.766   8.923  20.994  0.00  0.00    +0.000 S 
ATOM      4  O   UNL     1      -0.583   8.438  20.818  0.00  0.00    +0.000 OA
ATOM      5  O   UNL     1       1.402   9.001  22.294  0.00  0.00    +0.000 OA
BRANCH   3  13
ATOM      6  C   UNL     1       5.323   4.318  15.715  0.00  0.00    +0.000 C 
ATOM      7  C   UNL     1       4.745   5.541  16.379  0.00  0.00    +0.000 C 
ATOM      8  O   UNL     1       4.865   6.630  15.814  0.00  0.00    +0.000 OA
ATOM      9  N   UNL     1       4.087   5.346  17.585  0.00  0.00    +0.000 N 
ATOM     10  C   UNL     1       3.390   6.366  18.279  0.00  0.00    +0.000 A 
ATOM     11  C   UNL     1       3.109   7.672  17.892  0.00  0.00    +0.000 A 
ATOM     12  C   UNL     1       2.334   8.484  18.739  0.00  0.00    +0.000 A 
ATOM     13  C   UNL     1       1.848   7.967  19.950  0.00  0.00    +0.000 A 
ATOM     14  C   UNL     1       2.153   6.664  20.348  0.00  0.00    +0.000 A 
ATOM     15  C   UNL     1       2.934   5.890  19.506  0.00  0.00    +0.000 A 
ATOM     16  C   UNL     1       3.370   4.485  19.756  0.00  0.00    +0.000 C 
ATOM     17  C   UNL     1       4.104   4.123  18.445  0.00  0.00    +0.000 C 
ATOM     18  C   UNL     1       3.451   2.882  17.836  0.00  0.00    +0.000 C 
ENDBRANCH   3  13
ENDBRANCH   1   3
BRANCH   1  19
ATOM     19  C   UNL     1      -0.399  11.037  19.843  0.00  0.00    +0.000 C 
BRANCH  19  20
ATOM     20  C   UNL     1      -0.614  12.480  20.331  0.00  0.00    +0.000 C 
ATOM     21  C   UNL     1      -2.057  12.998  20.210  0.00  0.00    +0.000 C 
ATOM     22  C   UNL     1      -3.037  12.362  21.207  0.00  0.00    +0.000 C 
ATOM     23  C   UNL     1      -2.538  12.387  22.669  0.00  0.00    +0.000 C 
ATOM     24  C   UNL     1      -1.113  11.816  22.723  0.00  0.00    +0.000 C 
ATOM     25  C   UNL     1      -0.160  12.560  21.795  0.00  0.00    +0.000 C 
BRANCH  23  26
ATOM     26  C   UNL     1      -2.671  13.794  23.295  0.00  0.00    +0.000 C 
ATOM     27  O   UNL     1      -1.729  14.579  23.259  0.00  0.00    +0.000 OA
ATOM     28  N   UNL     1      -3.889  14.153  23.863  0.00  0.00    +0.000 N 
ATOM     29  C   UNL     1      -5.084  13.322  23.953  0.00  0.00    +0.000 C 
ATOM     30  C   UNL     1      -6.283  14.006  23.322  0.00  0.00    +0.000 C 
ATOM     31  C   UNL     1      -6.510  15.396  23.918  0.00  0.00    +0.000 C 
ATOM     32  C   UNL     1      -7.658  16.084  23.185  0.00  0.00    +0.000 C 
ATOM     33  C   UNL     1      -5.220  16.229  23.843  0.00  0.00    +0.000 C 
ATOM     34  C   UNL     1      -4.030  15.486  24.454  0.00  0.00    +0.000 C 
ENDBRANCH  23  26
ENDBRANCH  19  20
ENDBRANCH   1  19
TORSDOF 5
ENDMDL
MODEL 5
REMARK VINA RESULT:      -7.7      2.817      5.034
REMARK  Name = 
REMARK  8 active torsions:
REMARK  status: ('A' for Active; 'I' for Inactive)
REMARK    1  A    between atoms: C_1  and  C_2
REMARK    2  A    between atoms: C_8  and  S_9
REMARK    3  A    between atoms: S_9  and  N_12
REMARK    4  A    between atoms: N_12  and  C_13
REMARK    5  A    between atoms: C_13  and  C_14
REMARK    6  A    between atoms: C_17  and  C_18
REMARK    7  A    between atoms: C_23  and  C_24
REMARK    8  A    between atoms: C_32  and  C_33
REMARK                            x       y       z     vdW  Elec       q    Type
REMARK                         _______ _______ _______ _____ _____    ______ ____
ROOT
ATOM      1  N   UNL     1       2.023   5.511  21.289  0.00  0.00    +0.000 NA
ATOM      2  H   UNL     1       2.984   5.797  21.460  0.00  0.00    +0.000 HD
ENDROOT
BRANCH   1   3
ATOM      3  S   UNL     1       1.957   4.023  20.473  0.00  0.00    +0.000 S 
ATOM      4  O   UNL     1       0.608   3.822  20.000  0.00  0.00    +0.000 OA
ATOM      5  O   UNL     1       2.642   3.056  21.308  0.00  0.00    +0.000 OA
BRANCH   3  13
ATOM      6  C   UNL     1       7.365   5.092  14.192  0.00  0.00    +0.000 C 
ATOM      7  C   UNL     1       6.225   4.508  14.984  0.00  0.00    +0.000 C 
ATOM      8  O   UNL     1       5.770   3.414  14.643  0.00  0.00    +0.000 OA
ATOM      9  N   UNL     1       5.777   5.244  16.072  0.00  0.00    +0.000 N 
ATOM     10  C   UNL     1       4.796   4.787  16.986  0.00  0.00    +0.000 A 
ATOM     11  C   UNL     1       4.184   3.542  17.083  0.00  0.00    +0.000 A 
ATOM     12  C   UNL     1       3.276   3.306  18.131  0.00  0.00    +0.000 A 
ATOM     13  C   UNL     1       3.008   4.319  19.065  0.00  0.00    +0.000 A 
ATOM     14  C   UNL     1       3.604   5.576  18.950  0.00  0.00    +0.000 A 
ATOM     15  C   UNL     1       4.481   5.791  17.898  0.00  0.00    +0.000 A 
ATOM     16  C   UNL     1       5.208   7.059  17.604  0.00  0.00    +0.000 C 
ATOM     17  C   UNL     1       6.100   6.665  16.406  0.00  0.00    +0.000 C 
ATOM     18  C   UNL     1       7.562   6.940  16.763  0.00  0.00    +0.000 C 
ENDBRANCH   3  13
ENDBRANCH   1   3
BRANCH   1  19
ATOM     19  C   UNL     1       1.119   6.544  20.774  0.00  0.00    +0.000 C 
BRANCH  19  20
ATOM     20  C   UNL     1       1.754   7.946  20.785  0.00  0.00    +0.000 C 
ATOM     21  C   UNL     1       1.541   8.765  19.501  0.00  0.00    +0.000 C 
ATOM     22  C   UNL     1       0.102   9.261  19.305  0.00  0.00    +0.000 C 
ATOM     23  C   UNL     1      -0.482   9.974  20.545  0.00  0.00    +0.000 C 
ATOM     24  C   UNL     1      -0.277   9.084  21.780  0.00  0.00    +0.000 C 
ATOM     25  C   UNL     1       1.188   8.715  21.985  0.00  0.00    +0.000 C 
BRANCH  23  26
ATOM     26  C   UNL     1       0.086  11.403  20.704  0.00  0.00    +0.000 C 
ATOM     27  O   UNL     1       0.849  11.863  19.860  0.00  0.00    +0.000 OA
ATOM     28  N   UNL     1      -0.317  12.158  21.801  0.00  0.00    +0.000 N 
ATOM     29  C   UNL     1      -1.228  11.734  22.859  0.00  0.00    +0.000 C 
ATOM     30  C   UNL     1      -2.396  12.692  23.000  0.00  0.00    +0.000 C 
ATOM     31  C   UNL     1      -1.918  14.130  23.202  0.00  0.00    +0.000 C 
ATOM     32  C   UNL     1      -3.121  15.068  23.235  0.00  0.00    +0.000 C 
ATOM     33  C   UNL     1      -0.930  14.528  22.092  0.00  0.00    +0.000 C 
ATOM     34  C   UNL     1       0.209  13.516  21.959  0.00  0.00    +0.000 C 
ENDBRANCH  23  26
ENDBRANCH  19  20
ENDBRANCH   1  19
TORSDOF 5
ENDMDL
MODEL 6
REMARK VINA RESULT:      -7.7      2.458     11.359
REMARK  Name = 
REMARK  8 active torsions:
REMARK  status: ('A' for Active; 'I' for Inactive)
REMARK    1  A    between atoms: C_1  and  C_2
REMARK    2  A    between atoms: C_8  and  S_9
REMARK    3  A    between atoms: S_9  and  N_12
REMARK    4  A    between atoms: N_12  and  C_13
REMARK    5  A    between atoms: C_13  and  C_14
REMARK    6  A    between atoms: C_17  and  C_18
REMARK    7  A    between atoms: C_23  and  C_24
REMARK    8  A    between atoms: C_32  and  C_33
REMARK                            x       y       z     vdW  Elec       q    Type
REMARK                         _______ _______ _______ _____ _____    ______ ____
ROOT
ATOM      1  N   UNL     1       0.058   8.139  21.536  0.00  0.00    +0.000 NA
ATOM      2  H   UNL     1      -0.931   8.224  21.759  0.00  0.00    +0.000 HD
ENDROOT
BRANCH   1   3
ATOM      3  S   UNL     1       0.788   9.665  21.378  0.00  0.00    +0.000 S 
ATOM      4  O   UNL     1       1.120   9.870  19.988  0.00  0.00    +0.000 OA
ATOM      5  O   UNL     1       1.773   9.770  22.438  0.00  0.00    +0.000 OA
BRANCH   3  13
ATOM      6  C   UNL     1      -5.865  14.309  23.379  0.00  0.00    +0.000 C 
ATOM      7  C   UNL     1      -4.591  13.525  23.554  0.00  0.00    +0.000 C 
ATOM      8  O   UNL     1      -4.253  13.198  24.694  0.00  0.00    +0.000 OA
ATOM      9  N   UNL     1      -3.891  13.201  22.400  0.00  0.00    +0.000 N 
ATOM     10  C   UNL     1      -2.742  12.374  22.380  0.00  0.00    +0.000 A 
ATOM     11  C   UNL     1      -2.156  11.640  23.406  0.00  0.00    +0.000 A 
ATOM     12  C   UNL     1      -1.041  10.831  23.118  0.00  0.00    +0.000 A 
ATOM     13  C   UNL     1      -0.545  10.766  21.807  0.00  0.00    +0.000 A 
ATOM     14  C   UNL     1      -1.119  11.523  20.784  0.00  0.00    +0.000 A 
ATOM     15  C   UNL     1      -2.204  12.327  21.095  0.00  0.00    +0.000 A 
ATOM     16  C   UNL     1      -2.945  13.208  20.148  0.00  0.00    +0.000 C 
ATOM     17  C   UNL     1      -4.095  13.753  21.026  0.00  0.00    +0.000 C 
ATOM     18  C   UNL     1      -5.430  13.404  20.369  0.00  0.00    +0.000 C 
ENDBRANCH   3  13
ENDBRANCH   1   3
BRANCH   1  19
ATOM     19  C   UNL     1       0.409   7.171  20.493  0.00  0.00    +0.000 C 
BRANCH  19  20
ATOM     20  C   UNL     1       1.784   6.520  20.729  0.00  0.00    +0.000 C 
ATOM     21  C   UNL     1       1.790   4.983  20.683  0.00  0.00    +0.000 C 
ATOM     22  C   UNL     1       1.592   4.397  19.278  0.00  0.00    +0.000 C 
ATOM     23  C   UNL     1       2.532   5.008  18.214  0.00  0.00    +0.000 C 
ATOM     24  C   UNL     1       2.442   6.539  18.284  0.00  0.00    +0.000 C 
ATOM     25  C   UNL     1       2.756   7.070  19.678  0.00  0.00    +0.000 C 
BRANCH  23  26
ATOM     26  C   UNL     1       3.972   4.460  18.339  0.00  0.00    +0.000 C 
ATOM     27  O   UNL     1       4.210   3.508  19.077  0.00  0.00    +0.000 OA
ATOM     28  N   UNL     1       4.973   5.047  17.573  0.00  0.00    +0.000 N 
ATOM     29  C   UNL     1       4.817   6.167  16.650  0.00  0.00    +0.000 C 
ATOM     30  C   UNL     1       5.307   5.810  15.259  0.00  0.00    +0.000 C 
ATOM     31  C   UNL     1       6.747   5.294  15.290  0.00  0.00    +0.000 C 
ATOM     32  C   UNL     1       7.161   4.853  13.889  0.00  0.00    +0.000 C 
ATOM     33  C   UNL     1       6.883   4.143  16.301  0.00  0.00    +0.000 C 
ATOM     34  C   UNL     1       6.341   4.533  17.678  0.00  0.00    +0.000 C 
ENDBRANCH  23  26
ENDBRANCH  19  20
ENDBRANCH   1  19
TORSDOF 5
ENDMDL
MODEL 7
REMARK VINA RESULT:      -7.7      2.968      4.560
REMARK  Name = 
REMARK  8 active torsions:
REMARK  status: ('A' for Active; 'I' for Inactive)
REMARK    1  A    between atoms: C_1  and  C_2
REMARK    2  A    between atoms: C_8  and  S_9
REMARK    3  A    between atoms: S_9  and  N_12
REMARK    4  A    between atoms: N_12  and  C_13
REMARK    5  A    between atoms: C_13  and  C_14
REMARK    6  A    between atoms: C_17  and  C_18
REMARK    7  A    between atoms: C_23  and  C_24
REMARK    8  A    between atoms: C_32  and  C_33
REMARK                            x       y       z     vdW  Elec       q    Type
REMARK                         _______ _______ _______ _____ _____    ______ ____
ROOT
ATOM      1  N   UNL     1       1.619   6.028  21.372  0.00  0.00    +0.000 NA
ATOM      2  H   UNL     1       2.476   6.279  21.858  0.00  0.00    +0.000 HD
ENDROOT
BRANCH   1   3
ATOM      3  S   UNL     1       1.699   4.448  20.753  0.00  0.00    +0.000 S 
ATOM      4  O   UNL     1       0.409   4.109  20.200  0.00  0.00    +0.000 OA
ATOM      5  O   UNL     1       2.354   3.636  21.760  0.00  0.00    +0.000 OA
BRANCH   3  13
ATOM      6  C   UNL     1       7.224   4.645  14.486  0.00  0.00    +0.000 C 
ATOM      7  C   UNL     1       5.892   4.639  15.189  0.00  0.00    +0.000 C 
ATOM      8  O   UNL     1       4.877   4.423  14.524  0.00  0.00    +0.000 OA
ATOM      9  N   UNL     1       5.907   4.854  16.560  0.00  0.00    +0.000 N 
ATOM     10  C   UNL     1       4.759   4.765  17.386  0.00  0.00    +0.000 A 
ATOM     11  C   UNL     1       3.469   4.350  17.073  0.00  0.00    +0.000 A 
ATOM     12  C   UNL     1       2.505   4.286  18.096  0.00  0.00    +0.000 A 
ATOM     13  C   UNL     1       2.857   4.629  19.410  0.00  0.00    +0.000 A 
ATOM     14  C   UNL     1       4.145   5.070  19.717  0.00  0.00    +0.000 A 
ATOM     15  C   UNL     1       5.072   5.143  18.689  0.00  0.00    +0.000 A 
ATOM     16  C   UNL     1       6.489   5.593  18.814  0.00  0.00    +0.000 C 
ATOM     17  C   UNL     1       7.044   5.355  17.391  0.00  0.00    +0.000 C 
ATOM     18  C   UNL     1       8.253   4.424  17.479  0.00  0.00    +0.000 C 
ENDBRANCH   3  13
ENDBRANCH   1   3
BRANCH   1  19
ATOM     19  C   UNL     1       1.076   7.031  20.451  0.00  0.00    +0.000 C 
BRANCH  19  20
ATOM     20  C   UNL     1       1.591   8.449  20.749  0.00  0.00    +0.000 C 
ATOM     21  C   UNL     1       1.243   9.503  19.685  0.00  0.00    +0.000 C 
ATOM     22  C   UNL     1      -0.242   9.893  19.650  0.00  0.00    +0.000 C 
ATOM     23  C   UNL     1      -0.817  10.263  21.035  0.00  0.00    +0.000 C 
ATOM     24  C   UNL     1      -0.473   9.151  22.036  0.00  0.00    +0.000 C 
ATOM     25  C   UNL     1       1.025   8.884  22.107  0.00  0.00    +0.000 C 
BRANCH  23  26
ATOM     26  C   UNL     1      -0.363  11.671  21.487  0.00  0.00    +0.000 C 
ATOM     27  O   UNL     1       0.558  12.239  20.908  0.00  0.00    +0.000 OA
ATOM     28  N   UNL     1      -1.046  12.284  22.532  0.00  0.00    +0.000 N 
ATOM     29  C   UNL     1      -2.164  11.725  23.286  0.00  0.00    +0.000 C 
ATOM     30  C   UNL     1      -3.371  12.643  23.248  0.00  0.00    +0.000 C 
ATOM     31  C   UNL     1      -3.015  14.053  23.720  0.00  0.00    +0.000 C 
ATOM     32  C   UNL     1      -4.230  14.964  23.569  0.00  0.00    +0.000 C 
ATOM     33  C   UNL     1      -1.810  14.594  22.933  0.00  0.00    +0.000 C 
ATOM     34  C   UNL     1      -0.630  13.620  22.965  0.00  0.00    +0.000 C 
ENDBRANCH  23  26
ENDBRANCH  19  20
ENDBRANCH   1  19
TORSDOF 5
ENDMDL
MODEL 8
REMARK VINA RESULT:      -7.7      3.262      5.864
REMARK  Name = 
REMARK  8 active torsions:
REMARK  status: ('A' for Active; 'I' for Inactive)
REMARK    1  A    between atoms: C_1  and  C_2
REMARK    2  A    between atoms: C_8  and  S_9
REMARK    3  A    between atoms: S_9  and  N_12
REMARK    4  A    between atoms: N_12  and  C_13
REMARK    5  A    between atoms: C_13  and  C_14
REMARK    6  A    between atoms: C_17  and  C_18
REMARK    7  A    between atoms: C_23  and  C_24
REMARK    8  A    between atoms: C_32  and  C_33
REMARK                            x       y       z     vdW  Elec       q    Type
REMARK                         _______ _______ _______ _____ _____    ______ ____
ROOT
ATOM      1  N   UNL     1       0.214  10.068  20.193  0.00  0.00    +0.000 NA
ATOM      2  H   UNL     1       0.042   9.701  19.260  0.00  0.00    +0.000 HD
ENDROOT
BRANCH   1   3
ATOM      3  S   UNL     1       0.555   8.821  21.295  0.00  0.00    +0.000 S 
ATOM      4  O   UNL     1      -0.676   8.128  21.594  0.00  0.00    +0.000 OA
ATOM      5  O   UNL     1       1.398   9.393  22.327  0.00  0.00    +0.000 OA
BRANCH   3  13
ATOM      6  C   UNL     1       4.904   3.674  16.352  0.00  0.00    +0.000 C 
ATOM      7  C   UNL     1       4.423   4.961  16.969  0.00  0.00    +0.000 C 
ATOM      8  O   UNL     1       4.696   6.023  16.405  0.00  0.00    +0.000 OA
ATOM      9  N   UNL     1       3.672   4.856  18.132  0.00  0.00    +0.000 N 
ATOM     10  C   UNL     1       3.050   5.955  18.772  0.00  0.00    +0.000 A 
ATOM     11  C   UNL     1       2.938   7.278  18.359  0.00  0.00    +0.000 A 
ATOM     12  C   UNL     1       2.204   8.182  19.148  0.00  0.00    +0.000 A 
ATOM     13  C   UNL     1       1.590   7.738  20.330  0.00  0.00    +0.000 A 
ATOM     14  C   UNL     1       1.724   6.416  20.756  0.00  0.00    +0.000 A 
ATOM     15  C   UNL     1       2.468   5.549  19.971  0.00  0.00    +0.000 A 
ATOM     16  C   UNL     1       2.731   4.109  20.258  0.00  0.00    +0.000 C 
ATOM     17  C   UNL     1       3.502   3.651  19.000  0.00  0.00    +0.000 C 
ATOM     18  C   UNL     1       2.756   2.480  18.359  0.00  0.00    +0.000 C 
ENDBRANCH   3  13
ENDBRANCH   1   3
BRANCH   1  19
ATOM     19  C   UNL     1      -0.726  11.084  20.675  0.00  0.00    +0.000 C 
BRANCH  19  20
ATOM     20  C   UNL     1      -0.016  12.343  21.205  0.00  0.00    +0.000 C 
ATOM     21  C   UNL     1       1.453  12.488  20.775  0.00  0.00    +0.000 C 
ATOM     22  C   UNL     1       1.640  12.831  19.290  0.00  0.00    +0.000 C 
ATOM     23  C   UNL     1       0.782  14.025  18.817  0.00  0.00    +0.000 C 
ATOM     24  C   UNL     1      -0.676  13.794  19.238  0.00  0.00    +0.000 C 
ATOM     25  C   UNL     1      -0.812  13.569  20.740  0.00  0.00    +0.000 C 
BRANCH  23  26
ATOM     26  C   UNL     1       1.364  15.375  19.297  0.00  0.00    +0.000 C 
ATOM     27  O   UNL     1       0.804  16.010  20.185  0.00  0.00    +0.000 OA
ATOM     28  N   UNL     1       2.549  15.826  18.725  0.00  0.00    +0.000 N 
ATOM     29  C   UNL     1       3.317  15.159  17.679  0.00  0.00    +0.000 C 
ATOM     30  C   UNL     1       4.753  14.925  18.111  0.00  0.00    +0.000 C 
ATOM     31  C   UNL     1       5.418  16.225  18.566  0.00  0.00    +0.000 C 
ATOM     32  C   UNL     1       6.821  15.925  19.086  0.00  0.00    +0.000 C 
ATOM     33  C   UNL     1       4.562  16.920  19.637  0.00  0.00    +0.000 C 
ATOM     34  C   UNL     1       3.115  17.100  19.175  0.00  0.00    +0.000 C 
ENDBRANCH  23  26
ENDBRANCH  19  20
ENDBRANCH   1  19
TORSDOF 5
ENDMDL
MODEL 9
REMARK VINA RESULT:      -7.7      4.646      7.639
REMARK  Name = 
REMARK  8 active torsions:
REMARK  status: ('A' for Active; 'I' for Inactive)
REMARK    1  A    between atoms: C_1  and  C_2
REMARK    2  A    between atoms: C_8  and  S_9
REMARK    3  A    between atoms: S_9  and  N_12
REMARK    4  A    between atoms: N_12  and  C_13
REMARK    5  A    between atoms: C_13  and  C_14
REMARK    6  A    between atoms: C_17  and  C_18
REMARK    7  A    between atoms: C_23  and  C_24
REMARK    8  A    between atoms: C_32  and  C_33
REMARK                            x       y       z     vdW  Elec       q    Type
REMARK                         _______ _______ _______ _____ _____    ______ ____
ROOT
ATOM      1  N   UNL     1       1.140  12.334  19.214  0.00  0.00    +0.000 NA
ATOM      2  H   UNL     1       1.220  11.871  18.312  0.00  0.00    +0.000 HD
ENDROOT
BRANCH   1   3
ATOM      3  S   UNL     1       0.208  11.418  20.300  0.00  0.00    +0.000 S 
ATOM      4  O   UNL     1      -1.161  11.423  19.841  0.00  0.00    +0.000 OA
ATOM      5  O   UNL     1       0.584  11.841  21.635  0.00  0.00    +0.000 OA
BRANCH   3  13
ATOM      6  C   UNL     1       3.842   3.926  19.594  0.00  0.00    +0.000 C 
ATOM      7  C   UNL     1       2.916   5.000  20.103  0.00  0.00    +0.000 C 
ATOM      8  O   UNL     1       2.325   4.811  21.168  0.00  0.00    +0.000 OA
ATOM      9  N   UNL     1       2.812   6.152  19.336  0.00  0.00    +0.000 N 
ATOM     10  C   UNL     1       2.078   7.298  19.728  0.00  0.00    +0.000 A 
ATOM     11  C   UNL     1       1.441   7.577  20.932  0.00  0.00    +0.000 A 
ATOM     12  C   UNL     1       0.826   8.830  21.107  0.00  0.00    +0.000 A 
ATOM     13  C   UNL     1       0.871   9.780  20.075  0.00  0.00    +0.000 A 
ATOM     14  C   UNL     1       1.489   9.489  18.858  0.00  0.00    +0.000 A 
ATOM     15  C   UNL     1       2.071   8.241  18.703  0.00  0.00    +0.000 A 
ATOM     16  C   UNL     1       2.769   7.742  17.483  0.00  0.00    +0.000 C 
ATOM     17  C   UNL     1       3.294   6.361  17.936  0.00  0.00    +0.000 C 
ATOM     18  C   UNL     1       4.811   6.320  17.751  0.00  0.00    +0.000 C 
ENDBRANCH   3  13
ENDBRANCH   1   3
BRANCH   1  19
ATOM     19  C   UNL     1       0.832  13.767  19.185  0.00  0.00    +0.000 C 
BRANCH  19  20
ATOM     20  C   UNL     1       1.862  14.610  19.957  0.00  0.00    +0.000 C 
ATOM     21  C   UNL     1       3.297  14.057  19.939  0.00  0.00    +0.000 C 
ATOM     22  C   UNL     1       3.999  14.179  18.580  0.00  0.00    +0.000 C 
ATOM     23  C   UNL     1       3.922  15.596  17.968  0.00  0.00    +0.000 C 
ATOM     24  C   UNL     1       2.461  16.068  17.975  0.00  0.00    +0.000 C 
ATOM     25  C   UNL     1       1.851  16.028  19.371  0.00  0.00    +0.000 C 
BRANCH  23  26
ATOM     26  C   UNL     1       4.897  16.574  18.663  0.00  0.00    +0.000 C 
ATOM     27  O   UNL     1       4.465  17.530  19.300  0.00  0.00    +0.000 OA
ATOM     28  N   UNL     1       6.262  16.320  18.579  0.00  0.00    +0.000 N 
ATOM     29  C   UNL     1       6.898  15.213  17.872  0.00  0.00    +0.000 C 
ATOM     30  C   UNL     1       7.793  14.408  18.796  0.00  0.00    +0.000 C 
ATOM     31  C   UNL     1       8.818  15.299  19.497  0.00  0.00    +0.000 C 
ATOM     32  C   UNL     1       9.625  14.466  20.488  0.00  0.00    +0.000 C 
ATOM     33  C   UNL     1       8.117  16.476  20.197  0.00  0.00    +0.000 C 
ATOM     34  C   UNL     1       7.196  17.235  19.240  0.00  0.00    +0.000 C 
ENDBRANCH  23  26
ENDBRANCH  19  20
ENDBRANCH   1  19
TORSDOF 5
ENDMDL
