MODEL 1
REMARK VINA RESULT:      -8.1      0.000      0.000
REMARK  Name = 
REMARK  11 active torsions:
REMARK  status: ('A' for Active; 'I' for Inactive)
REMARK    1  A    between atoms: C_1  and  O_2
REMARK    2  A    between atoms: O_2  and  C_3
REMARK    3  A    between atoms: C_7  and  C_8
REMARK    4  A    between atoms: C_11  and  C_12
REMARK    5  A    between atoms: N_14  and  C_15
REMARK    6  A    between atoms: C_15  and  C_16
REMARK    7  A    between atoms: C_16  and  N_17
REMARK    8  A    between atoms: N_17  and  C_18
REMARK    9  A    between atoms: N_17  and  C_19
REMARK   10  A    between atoms: C_25  and  O_26
REMARK   11  A    between atoms: O_26  and  C_27
REMARK                            x       y       z     vdW  Elec       q    Type
REMARK                         _______ _______ _______ _____ _____    ______ ____
ROOT
ATOM      1  C   UNL     1       2.302   6.685  19.962  0.00  0.00    +0.000 A 
ATOM      2  N   UNL     1       3.144   5.951  19.283  0.00  0.00    +0.000 NA
ATOM      3  C   UNL     1       3.154   4.717  19.854  0.00  0.00    +0.000 A 
ATOM      4  C   UNL     1       3.873   3.594  19.429  0.00  0.00    +0.000 A 
ATOM      5  C   UNL     1       3.633   2.390  20.103  0.00  0.00    +0.000 A 
ATOM      6  C   UNL     1       2.763   2.357  21.210  0.00  0.00    +0.000 A 
ATOM      7  C   UNL     1       2.111   3.511  21.688  0.00  0.00    +0.000 A 
ATOM      8  C   UNL     1       2.325   4.685  20.964  0.00  0.00    +0.000 A 
ATOM      9  N   UNL     1       1.871   5.984  21.070  0.00  0.00    +0.000 N 
ATOM     10  H   UNL     1       1.274   6.367  21.789  0.00  0.00    +0.000 HD
ENDROOT
BRANCH   1  15
ATOM     11  C   UNL     1       0.737  10.108  19.646  0.00  0.00    +0.000 A 
ATOM     12  C   UNL     1       1.223  10.460  18.371  0.00  0.00    +0.000 A 
ATOM     13  C   UNL     1       1.985   9.574  17.630  0.00  0.00    +0.000 A 
ATOM     14  C   UNL     1       2.303   8.350  18.190  0.00  0.00    +0.000 A 
ATOM     15  C   UNL     1       1.889   8.002  19.497  0.00  0.00    +0.000 A 
ATOM     16  C   UNL     1       1.115   8.897  20.252  0.00  0.00    +0.000 A 
BRANCH  11  18
ATOM     17  C   UNL     1      -1.229  11.386  19.511  0.00  0.00    +0.000 C 
ATOM     18  O   UNL     1      -0.110  10.968  20.300  0.00  0.00    +0.000 OA
ENDBRANCH  11  18
BRANCH  16  19
ATOM     19  O   UNL     1       0.812   8.441  21.508  0.00  0.00    +0.000 OA
ATOM     20  C   UNL     1       1.190   9.189  22.648  0.00  0.00    +0.000 C 
ENDBRANCH  16  19
ENDBRANCH   1  15
BRANCH   4  21
ATOM     21  C   UNL     1       4.847   3.752  18.298  0.00  0.00    +0.000 C 
ATOM     22  O   UNL     1       4.574   3.362  17.178  0.00  0.00    +0.000 OA
ATOM     23  N   UNL     1       6.049   4.331  18.646  0.00  0.00    +0.000 N 
ATOM     24  H   UNL     1       6.177   4.604  19.623  0.00  0.00    +0.000 HD
BRANCH  23  25
ATOM     25  C   UNL     1       7.195   4.576  17.803  0.00  0.00    +0.000 C 
BRANCH  25  26
ATOM     26  C   UNL     1       7.160   6.012  17.204  0.00  0.00    +0.000 C 
BRANCH  26  27
ATOM     27  N   UNL     1       6.662   6.124  15.812  0.00  0.00    +0.000 NA
ATOM     28  C   UNL     1       6.858   4.884  15.059  0.00  0.00    +0.000 C 
ATOM     29  C   UNL     1       5.238   6.480  15.797  0.00  0.00    +0.000 C 
ENDBRANCH  26  27
ENDBRANCH  25  26
ENDBRANCH  23  25
ENDBRANCH   4  21
TORSDOF 7
ENDMDL
MODEL 2
REMARK VINA RESULT:      -7.8      0.851      1.087
REMARK  Name = 
REMARK  11 active torsions:
REMARK  status: ('A' for Active; 'I' for Inactive)
REMARK    1  A    between atoms: C_1  and  O_2
REMARK    2  A    between atoms: O_2  and  C_3
REMARK    3  A    between atoms: C_7  and  C_8
REMARK    4  A    between atoms: C_11  and  C_12
REMARK    5  A    between atoms: N_14  and  C_15
REMARK    6  A    between atoms: C_15  and  C_16
REMARK    7  A    between atoms: C_16  and  N_17
REMARK    8  A    between atoms: N_17  and  C_18
REMARK    9  A    between atoms: N_17  and  C_19
REMARK   10  A    between atoms: C_25  and  O_26
REMARK   11  A    between atoms: O_26  and  C_27
REMARK                            x       y       z     vdW  Elec       q    Type
REMARK                         _______ _______ _______ _____ _____    ______ ____
ROOT
ATOM      1  C   UNL     1       2.256   6.759  20.011  0.00  0.00    +0.000 A 
ATOM      2  N   UNL     1       3.170   6.072  19.376  0.00  0.00    +0.000 NA
ATOM      3  C   UNL     1       3.176   4.822  19.910  0.00  0.00    +0.000 A 
ATOM      4  C   UNL     1       3.961   3.735  19.508  0.00  0.00    +0.000 A 
ATOM      5  C   UNL     1       3.710   2.504  20.126  0.00  0.00    +0.000 A 
ATOM      6  C   UNL     1       2.760   2.410  21.163  0.00  0.00    +0.000 A 
ATOM      7  C   UNL     1       2.038   3.528  21.624  0.00  0.00    +0.000 A 
ATOM      8  C   UNL     1       2.267   4.730  20.953  0.00  0.00    +0.000 A 
ATOM      9  N   UNL     1       1.766   6.010  21.062  0.00  0.00    +0.000 N 
ATOM     10  H   UNL     1       1.105   6.354  21.744  0.00  0.00    +0.000 HD
ENDROOT
BRANCH   1  15
ATOM     11  C   UNL     1       0.664  10.171  19.711  0.00  0.00    +0.000 A 
ATOM     12  C   UNL     1       1.162  10.541  18.445  0.00  0.00    +0.000 A 
ATOM     13  C   UNL     1       1.943   9.670  17.705  0.00  0.00    +0.000 A 
ATOM     14  C   UNL     1       2.264   8.443  18.256  0.00  0.00    +0.000 A 
ATOM     15  C   UNL     1       1.837   8.077  19.554  0.00  0.00    +0.000 A 
ATOM     16  C   UNL     1       1.045   8.957  20.309  0.00  0.00    +0.000 A 
BRANCH  11  18
ATOM     17  C   UNL     1      -1.347  11.378  19.587  0.00  0.00    +0.000 C 
ATOM     18  O   UNL     1      -0.200  11.016  20.362  0.00  0.00    +0.000 OA
ENDBRANCH  11  18
BRANCH  16  19
ATOM     19  O   UNL     1       0.730   8.485  21.555  0.00  0.00    +0.000 OA
ATOM     20  C   UNL     1       1.076   9.230  22.708  0.00  0.00    +0.000 C 
ENDBRANCH  16  19
ENDBRANCH   1  15
BRANCH   4  21
ATOM     21  C   UNL     1       5.011   3.956  18.459  0.00  0.00    +0.000 C 
ATOM     22  O   UNL     1       4.828   3.610  17.307  0.00  0.00    +0.000 OA
ATOM     23  N   UNL     1       6.172   4.542  18.918  0.00  0.00    +0.000 N 
ATOM     24  H   UNL     1       6.223   4.776  19.912  0.00  0.00    +0.000 HD
BRANCH  23  25
ATOM     25  C   UNL     1       7.371   4.842  18.172  0.00  0.00    +0.000 C 
BRANCH  25  26
ATOM     26  C   UNL     1       7.817   6.317  18.387  0.00  0.00    +0.000 C 
BRANCH  26  27
ATOM     27  N   UNL     1       7.468   7.267  17.304  0.00  0.00    +0.000 NA
ATOM     28  C   UNL     1       6.038   7.237  16.991  0.00  0.00    +0.000 C 
ATOM     29  C   UNL     1       7.856   8.635  17.667  0.00  0.00    +0.000 C 
ENDBRANCH  26  27
ENDBRANCH  25  26
ENDBRANCH  23  25
ENDBRANCH   4  21
TORSDOF 7
ENDMDL
MODEL 3
REMARK VINA RESULT:      -7.5      0.879      1.280
REMARK  Name = 
REMARK  11 active torsions:
REMARK  status: ('A' for Active; 'I' for Inactive)
REMARK    1  A    between atoms: C_1  and  O_2
REMARK    2  A    between atoms: O_2  and  C_3
REMARK    3  A    between atoms: C_7  and  C_8
REMARK    4  A    between atoms: C_11  and  C_12
REMARK    5  A    between atoms: N_14  and  C_15
REMARK    6  A    between atoms: C_15  and  C_16
REMARK    7  A    between atoms: C_16  and  N_17
REMARK    8  A    between atoms: N_17  and  C_18
REMARK    9  A    between atoms: N_17  and  C_19
REMARK   10  A    between atoms: C_25  and  O_26
REMARK   11  A    between atoms: O_26  and  C_27
REMARK                            x       y       z     vdW  Elec       q    Type
REMARK                         _______ _______ _______ _____ _____    ______ ____
ROOT
ATOM      1  C   UNL     1       2.189   6.814  20.062  0.00  0.00    +0.000 A 
ATOM      2  N   UNL     1       3.053   6.095  19.396  0.00  0.00    +0.000 NA
ATOM      3  C   UNL     1       3.032   4.845  19.929  0.00  0.00    +0.000 A 
ATOM      4  C   UNL     1       3.762   3.730  19.500  0.00  0.00    +0.000 A 
ATOM      5  C   UNL     1       3.488   2.509  20.128  0.00  0.00    +0.000 A 
ATOM      6  C   UNL     1       2.573   2.449  21.198  0.00  0.00    +0.000 A 
ATOM      7  C   UNL     1       1.910   3.593  21.684  0.00  0.00    +0.000 A 
ATOM      8  C   UNL     1       2.159   4.786  21.004  0.00  0.00    +0.000 A 
ATOM      9  N   UNL     1       1.709   6.084  21.130  0.00  0.00    +0.000 N 
ATOM     10  H   UNL     1       1.086   6.451  21.836  0.00  0.00    +0.000 HD
ENDROOT
BRANCH   1  15
ATOM     11  C   UNL     1       0.782  10.314  19.849  0.00  0.00    +0.000 A 
ATOM     12  C   UNL     1       1.160  10.627  18.528  0.00  0.00    +0.000 A 
ATOM     13  C   UNL     1       1.800   9.695  17.730  0.00  0.00    +0.000 A 
ATOM     14  C   UNL     1       2.105   8.461  18.274  0.00  0.00    +0.000 A 
ATOM     15  C   UNL     1       1.802   8.147  19.620  0.00  0.00    +0.000 A 
ATOM     16  C   UNL     1       1.153   9.090  20.433  0.00  0.00    +0.000 A 
BRANCH  11  18
ATOM     17  C   UNL     1      -1.219  11.536  19.979  0.00  0.00    +0.000 C 
ATOM     18  O   UNL     1       0.047  11.224  20.568  0.00  0.00    +0.000 OA
ENDBRANCH  11  18
BRANCH  16  19
ATOM     19  O   UNL     1       0.948   8.662  21.718  0.00  0.00    +0.000 OA
ATOM     20  C   UNL     1      -0.356   8.652  22.266  0.00  0.00    +0.000 C 
ENDBRANCH  16  19
ENDBRANCH   1  15
BRANCH   4  21
ATOM     21  C   UNL     1       4.781   3.913  18.414  0.00  0.00    +0.000 C 
ATOM     22  O   UNL     1       5.971   3.923  18.667  0.00  0.00    +0.000 OA
ATOM     23  N   UNL     1       4.255   4.094  17.152  0.00  0.00    +0.000 N 
ATOM     24  H   UNL     1       3.236   4.085  17.059  0.00  0.00    +0.000 HD
BRANCH  23  25
ATOM     25  C   UNL     1       4.965   4.336  15.919  0.00  0.00    +0.000 C 
BRANCH  25  26
ATOM     26  C   UNL     1       5.359   5.835  15.778  0.00  0.00    +0.000 C 
BRANCH  26  27
ATOM     27  N   UNL     1       6.803   6.142  15.903  0.00  0.00    +0.000 NA
ATOM     28  C   UNL     1       7.117   6.793  17.176  0.00  0.00    +0.000 C 
ATOM     29  C   UNL     1       7.608   4.922  15.770  0.00  0.00    +0.000 C 
ENDBRANCH  26  27
ENDBRANCH  25  26
ENDBRANCH  23  25
ENDBRANCH   4  21
TORSDOF 7
ENDMDL
MODEL 4
REMARK VINA RESULT:      -7.4      1.237      1.510
REMARK  Name = 
REMARK  11 active torsions:
REMARK  status: ('A' for Active; 'I' for Inactive)
REMARK    1  A    between atoms: C_1  and  O_2
REMARK    2  A    between atoms: O_2  and  C_3
REMARK    3  A    between atoms: C_7  and  C_8
REMARK    4  A    between atoms: C_11  and  C_12
REMARK    5  A    between atoms: N_14  and  C_15
REMARK    6  A    between atoms: C_15  and  C_16
REMARK    7  A    between atoms: C_16  and  N_17
REMARK    8  A    between atoms: N_17  and  C_18
REMARK    9  A    between atoms: N_17  and  C_19
REMARK   10  A    between atoms: C_25  and  O_26
REMARK   11  A    between atoms: O_26  and  C_27
REMARK                            x       y       z     vdW  Elec       q    Type
REMARK                         _______ _______ _______ _____ _____    ______ ____
ROOT
ATOM      1  C   UNL     1       2.264   6.749  19.974  0.00  0.00    +0.000 A 
ATOM      2  N   UNL     1       3.328   6.157  19.497  0.00  0.00    +0.000 NA
ATOM      3  C   UNL     1       3.313   4.876  19.953  0.00  0.00    +0.000 A 
ATOM      4  C   UNL     1       4.232   3.863  19.656  0.00  0.00    +0.000 A 
ATOM      5  C   UNL     1       3.947   2.581  20.144  0.00  0.00    +0.000 A 
ATOM      6  C   UNL     1       2.822   2.367  20.965  0.00  0.00    +0.000 A 
ATOM      7  C   UNL     1       1.952   3.411  21.333  0.00  0.00    +0.000 A 
ATOM      8  C   UNL     1       2.227   4.666  20.788  0.00  0.00    +0.000 A 
ATOM      9  N   UNL     1       1.629   5.907  20.865  0.00  0.00    +0.000 N 
ATOM     10  H   UNL     1       0.827   6.167  21.420  0.00  0.00    +0.000 HD
ENDROOT
BRANCH   1  15
ATOM     11  C   UNL     1       0.704  10.176  19.673  0.00  0.00    +0.000 A 
ATOM     12  C   UNL     1       1.198  10.537  18.403  0.00  0.00    +0.000 A 
ATOM     13  C   UNL     1       1.965   9.655  17.660  0.00  0.00    +0.000 A 
ATOM     14  C   UNL     1       2.277   8.427  18.213  0.00  0.00    +0.000 A 
ATOM     15  C   UNL     1       1.855   8.070  19.516  0.00  0.00    +0.000 A 
ATOM     16  C   UNL     1       1.077   8.961  20.272  0.00  0.00    +0.000 A 
BRANCH  11  18
ATOM     17  C   UNL     1       0.474  12.250  20.751  0.00  0.00    +0.000 C 
ATOM     18  O   UNL     1      -0.147  11.032  20.327  0.00  0.00    +0.000 OA
ENDBRANCH  11  18
BRANCH  16  19
ATOM     19  O   UNL     1       0.766   8.496  21.523  0.00  0.00    +0.000 OA
ATOM     20  C   UNL     1       1.274   9.146  22.672  0.00  0.00    +0.000 C 
ENDBRANCH  16  19
ENDBRANCH   1  15
BRANCH   4  21
ATOM     21  C   UNL     1       5.449   4.210  18.850  0.00  0.00    +0.000 C 
ATOM     22  O   UNL     1       6.473   4.583  19.392  0.00  0.00    +0.000 OA
ATOM     23  N   UNL     1       5.290   4.099  17.485  0.00  0.00    +0.000 N 
ATOM     24  H   UNL     1       4.377   3.792  17.139  0.00  0.00    +0.000 HD
BRANCH  23  25
ATOM     25  C   UNL     1       6.250   4.400  16.450  0.00  0.00    +0.000 C 
BRANCH  25  26
ATOM     26  C   UNL     1       5.949   3.604  15.148  0.00  0.00    +0.000 C 
BRANCH  26  27
ATOM     27  N   UNL     1       6.123   4.347  13.877  0.00  0.00    +0.000 NA
ATOM     28  C   UNL     1       7.407   5.048  13.825  0.00  0.00    +0.000 C 
ATOM     29  C   UNL     1       6.016   3.442  12.727  0.00  0.00    +0.000 C 
ENDBRANCH  26  27
ENDBRANCH  25  26
ENDBRANCH  23  25
ENDBRANCH   4  21
TORSDOF 7
ENDMDL
MODEL 5
REMARK VINA RESULT:      -7.3      1.036      1.232
REMARK  Name = 
REMARK  11 active torsions:
REMARK  status: ('A' for Active; 'I' for Inactive)
REMARK    1  A    between atoms: C_1  and  O_2
REMARK    2  A    between atoms: O_2  and  C_3
REMARK    3  A    between atoms: C_7  and  C_8
REMARK    4  A    between atoms: C_11  and  C_12
REMARK    5  A    between atoms: N_14  and  C_15
REMARK    6  A    between atoms: C_15  and  C_16
REMARK    7  A    between atoms: C_16  and  N_17
REMARK    8  A    between atoms: N_17  and  C_18
REMARK    9  A    between atoms: N_17  and  C_19
REMARK   10  A    between atoms: C_25  and  O_26
REMARK   11  A    between atoms: O_26  and  C_27
REMARK                            x       y       z     vdW  Elec       q    Type
REMARK                         _______ _______ _______ _____ _____    ______ ____
ROOT
ATOM      1  C   UNL     1       2.161   6.731  19.845  0.00  0.00    +0.000 A 
ATOM      2  N   UNL     1       2.533   5.857  18.948  0.00  0.00    +0.000 NA
ATOM      3  C   UNL     1       2.534   4.638  19.551  0.00  0.00    +0.000 A 
ATOM      4  C   UNL     1       2.822   3.402  18.959  0.00  0.00    +0.000 A 
ATOM      5  C   UNL     1       2.642   2.260  19.749  0.00  0.00    +0.000 A 
ATOM      6  C   UNL     1       2.267   2.383  21.102  0.00  0.00    +0.000 A 
ATOM      7  C   UNL     1       2.068   3.636  21.715  0.00  0.00    +0.000 A 
ATOM      8  C   UNL     1       2.199   4.754  20.891  0.00  0.00    +0.000 A 
ATOM      9  N   UNL     1       2.064   6.114  21.076  0.00  0.00    +0.000 N 
ATOM     10  H   UNL     1       1.865   6.598  21.940  0.00  0.00    +0.000 HD
ENDROOT
BRANCH   1  15
ATOM     11  C   UNL     1       0.892  10.289  19.824  0.00  0.00    +0.000 A 
ATOM     12  C   UNL     1       1.359  10.686  18.555  0.00  0.00    +0.000 A 
ATOM     13  C   UNL     1       2.013   9.792  17.725  0.00  0.00    +0.000 A 
ATOM     14  C   UNL     1       2.242   8.510  18.188  0.00  0.00    +0.000 A 
ATOM     15  C   UNL     1       1.847   8.107  19.487  0.00  0.00    +0.000 A 
ATOM     16  C   UNL     1       1.184   9.011  20.332  0.00  0.00    +0.000 A 
BRANCH  11  18
ATOM     17  C   UNL     1      -1.117  11.495  19.984  0.00  0.00    +0.000 C 
ATOM     18  O   UNL     1       0.148  11.171  20.569  0.00  0.00    +0.000 OA
ENDBRANCH  11  18
BRANCH  16  19
ATOM     19  O   UNL     1       0.889   8.496  21.566  0.00  0.00    +0.000 OA
ATOM     20  C   UNL     1      -0.454   8.425  22.005  0.00  0.00    +0.000 C 
ENDBRANCH  16  19
ENDBRANCH   1  15
BRANCH   4  21
ATOM     21  C   UNL     1       3.303   3.381  17.538  0.00  0.00    +0.000 C 
ATOM     22  O   UNL     1       2.539   3.142  16.622  0.00  0.00    +0.000 OA
ATOM     23  N   UNL     1       4.652   3.620  17.380  0.00  0.00    +0.000 N 
ATOM     24  H   UNL     1       5.203   3.792  18.225  0.00  0.00    +0.000 HD
BRANCH  23  25
ATOM     25  C   UNL     1       5.417   3.624  16.157  0.00  0.00    +0.000 C 
BRANCH  25  26
ATOM     26  C   UNL     1       6.410   4.821  16.113  0.00  0.00    +0.000 C 
BRANCH  26  27
ATOM     27  N   UNL     1       6.091   5.963  17.002  0.00  0.00    +0.000 NA
ATOM     28  C   UNL     1       7.281   6.748  17.333  0.00  0.00    +0.000 C 
ATOM     29  C   UNL     1       5.088   6.838  16.385  0.00  0.00    +0.000 C 
ENDBRANCH  26  27
ENDBRANCH  25  26
ENDBRANCH  23  25
ENDBRANCH   4  21
TORSDOF 7
ENDMDL
MODEL 6
REMARK VINA RESULT:      -7.2      0.948      1.319
REMARK  Name = 
REMARK  11 active torsions:
REMARK  status: ('A' for Active; 'I' for Inactive)
REMARK    1  A    between atoms: C_1  and  O_2
REMARK    2  A    between atoms: O_2  and  C_3
REMARK    3  A    between atoms: C_7  and  C_8
REMARK    4  A    between atoms: C_11  and  C_12
REMARK    5  A    between atoms: N_14  and  C_15
REMARK    6  A    between atoms: C_15  and  C_16
REMARK    7  A    between atoms: C_16  and  N_17
REMARK    8  A    between atoms: N_17  and  C_18
REMARK    9  A    between atoms: N_17  and  C_19
REMARK   10  A    between atoms: C_25  and  O_26
REMARK   11  A    between atoms: O_26  and  C_27
REMARK                            x       y       z     vdW  Elec       q    Type
REMARK                         _______ _______ _______ _____ _____    ______ ____
ROOT
ATOM      1  C   UNL     1       2.077   6.872  19.891  0.00  0.00    +0.000 A 
ATOM      2  N   UNL     1       2.632   6.057  19.033  0.00  0.00    +0.000 NA
ATOM      3  C   UNL     1       2.626   4.818  19.593  0.00  0.00    +0.000 A 
ATOM      4  C   UNL     1       3.076   3.626  19.013  0.00  0.00    +0.000 A 
ATOM      5  C   UNL     1       2.860   2.445  19.734  0.00  0.00    +0.000 A 
ATOM      6  C   UNL     1       2.286   2.492  21.020  0.00  0.00    +0.000 A 
ATOM      7  C   UNL     1       1.918   3.706  21.634  0.00  0.00    +0.000 A 
ATOM      8  C   UNL     1       2.093   4.862  20.871  0.00  0.00    +0.000 A 
ATOM      9  N   UNL     1       1.843   6.203  21.075  0.00  0.00    +0.000 N 
ATOM     10  H   UNL     1       1.491   6.640  21.915  0.00  0.00    +0.000 HD
ENDROOT
BRANCH   1  15
ATOM     11  C   UNL     1       0.653  10.370  19.829  0.00  0.00    +0.000 A 
ATOM     12  C   UNL     1       1.196  10.811  18.605  0.00  0.00    +0.000 A 
ATOM     13  C   UNL     1       1.950   9.963  17.813  0.00  0.00    +0.000 A 
ATOM     14  C   UNL     1       2.201   8.683  18.272  0.00  0.00    +0.000 A 
ATOM     15  C   UNL     1       1.730   8.239  19.531  0.00  0.00    +0.000 A 
ATOM     16  C   UNL     1       0.965   9.097  20.337  0.00  0.00    +0.000 A 
BRANCH  11  18
ATOM     17  C   UNL     1      -1.361  11.577  19.806  0.00  0.00    +0.000 C 
ATOM     18  O   UNL     1      -0.184  11.203  20.529  0.00  0.00    +0.000 OA
ENDBRANCH  11  18
BRANCH  16  19
ATOM     19  O   UNL     1       0.601   8.546  21.537  0.00  0.00    +0.000 OA
ATOM     20  C   UNL     1       0.834   9.248  22.743  0.00  0.00    +0.000 C 
ENDBRANCH  16  19
ENDBRANCH   1  15
BRANCH   4  21
ATOM     21  C   UNL     1       3.759   3.689  17.678  0.00  0.00    +0.000 C 
ATOM     22  O   UNL     1       3.258   3.177  16.695  0.00  0.00    +0.000 OA
ATOM     23  N   UNL     1       4.978   4.333  17.682  0.00  0.00    +0.000 N 
ATOM     24  H   UNL     1       5.310   4.711  18.573  0.00  0.00    +0.000 HD
BRANCH  23  25
ATOM     25  C   UNL     1       5.888   4.519  16.578  0.00  0.00    +0.000 C 
BRANCH  25  26
ATOM     26  C   UNL     1       7.363   4.600  17.067  0.00  0.00    +0.000 C 
BRANCH  26  27
ATOM     27  N   UNL     1       7.784   5.894  17.653  0.00  0.00    +0.000 NA
ATOM     28  C   UNL     1       6.906   6.992  17.243  0.00  0.00    +0.000 C 
ATOM     29  C   UNL     1       7.811   5.816  19.119  0.00  0.00    +0.000 C 
ENDBRANCH  26  27
ENDBRANCH  25  26
ENDBRANCH  23  25
ENDBRANCH   4  21
TORSDOF 7
ENDMDL
MODEL 7
REMARK VINA RESULT:      -7.1      3.113      7.673
REMARK  Name = 
REMARK  11 active torsions:
REMARK  status: ('A' for Active; 'I' for Inactive)
REMARK    1  A    between atoms: C_1  and  O_2
REMARK    2  A    between atoms: O_2  and  C_3
REMARK    3  A    between atoms: C_7  and  C_8
REMARK    4  A    between atoms: C_11  and  C_12
REMARK    5  A    between atoms: N_14  and  C_15
REMARK    6  A    between atoms: C_15  and  C_16
REMARK    7  A    between atoms: C_16  and  N_17
REMARK    8  A    between atoms: N_17  and  C_18
REMARK    9  A    between atoms: N_17  and  C_19
REMARK   10  A    between atoms: C_25  and  O_26
REMARK   11  A    between atoms: O_26  and  C_27
REMARK                            x       y       z     vdW  Elec       q    Type
REMARK                         _______ _______ _______ _____ _____    ______ ____
ROOT
ATOM      1  C   UNL     1       1.578   7.951  20.132  0.00  0.00    +0.000 A 
ATOM      2  N   UNL     1       0.999   9.031  19.679  0.00  0.00    +0.000 NA
ATOM      3  C   UNL     1       0.402   9.641  20.738  0.00  0.00    +0.000 A 
ATOM      4  C   UNL     1      -0.296  10.855  20.731  0.00  0.00    +0.000 A 
ATOM      5  C   UNL     1      -0.724  11.351  21.969  0.00  0.00    +0.000 A 
ATOM      6  C   UNL     1      -0.521  10.601  23.144  0.00  0.00    +0.000 A 
ATOM      7  C   UNL     1       0.103   9.337  23.130  0.00  0.00    +0.000 A 
ATOM      8  C   UNL     1       0.569   8.892  21.892  0.00  0.00    +0.000 A 
ATOM      9  N   UNL     1       1.238   7.767  21.457  0.00  0.00    +0.000 N 
ATOM     10  H   UNL     1       1.502   6.961  22.005  0.00  0.00    +0.000 HD
ENDROOT
BRANCH   1  15
ATOM     11  C   UNL     1       3.788   5.232  18.722  0.00  0.00    +0.000 A 
ATOM     12  C   UNL     1       4.258   5.898  17.572  0.00  0.00    +0.000 A 
ATOM     13  C   UNL     1       3.901   7.210  17.313  0.00  0.00    +0.000 A 
ATOM     14  C   UNL     1       3.031   7.840  18.184  0.00  0.00    +0.000 A 
ATOM     15  C   UNL     1       2.488   7.169  19.306  0.00  0.00    +0.000 A 
ATOM     16  C   UNL     1       2.847   5.838  19.572  0.00  0.00    +0.000 A 
BRANCH  11  18
ATOM     17  C   UNL     1       3.815   2.973  18.078  0.00  0.00    +0.000 C 
ATOM     18  O   UNL     1       4.256   3.972  19.003  0.00  0.00    +0.000 OA
ENDBRANCH  11  18
BRANCH  16  19
ATOM     19  O   UNL     1       2.225   5.308  20.671  0.00  0.00    +0.000 OA
ATOM     20  C   UNL     1       1.213   4.331  20.514  0.00  0.00    +0.000 C 
ENDBRANCH  16  19
ENDBRANCH   1  15
BRANCH   4  21
ATOM     21  C   UNL     1      -0.543  11.535  19.416  0.00  0.00    +0.000 C 
ATOM     22  O   UNL     1       0.052  12.553  19.117  0.00  0.00    +0.000 OA
ATOM     23  N   UNL     1      -1.496  10.931  18.623  0.00  0.00    +0.000 N 
ATOM     24  H   UNL     1      -1.946  10.086  18.985  0.00  0.00    +0.000 HD
BRANCH  23  25
ATOM     25  C   UNL     1      -1.984  11.363  17.335  0.00  0.00    +0.000 C 
BRANCH  25  26
ATOM     26  C   UNL     1      -2.275  10.150  16.404  0.00  0.00    +0.000 C 
BRANCH  26  27
ATOM     27  N   UNL     1      -3.612  10.129  15.764  0.00  0.00    +0.000 NA
ATOM     28  C   UNL     1      -4.452  11.240  16.215  0.00  0.00    +0.000 C 
ATOM     29  C   UNL     1      -3.489  10.176  14.302  0.00  0.00    +0.000 C 
ENDBRANCH  26  27
ENDBRANCH  25  26
ENDBRANCH  23  25
ENDBRANCH   4  21
TORSDOF 7
ENDMDL
MODEL 8
REMARK VINA RESULT:      -7.0      2.992      8.085
REMARK  Name = 
REMARK  11 active torsions:
REMARK  status: ('A' for Active; 'I' for Inactive)
REMARK    1  A    between atoms: C_1  and  O_2
REMARK    2  A    between atoms: O_2  and  C_3
REMARK    3  A    between atoms: C_7  and  C_8
REMARK    4  A    between atoms: C_11  and  C_12
REMARK    5  A    between atoms: N_14  and  C_15
REMARK    6  A    between atoms: C_15  and  C_16
REMARK    7  A    between atoms: C_16  and  N_17
REMARK    8  A    between atoms: N_17  and  C_18
REMARK    9  A    between atoms: N_17  and  C_19
REMARK   10  A    between atoms: C_25  and  O_26
REMARK   11  A    between atoms: O_26  and  C_27
REMARK                            x       y       z     vdW  Elec       q    Type
REMARK                         _______ _______ _______ _____ _____    ______ ____
ROOT
ATOM      1  C   UNL     1       1.580   7.948  20.052  0.00  0.00    +0.000 A 
ATOM      2  N   UNL     1       0.896   8.927  19.521  0.00  0.00    +0.000 NA
ATOM      3  C   UNL     1       0.286   9.590  20.539  0.00  0.00    +0.000 A 
ATOM      4  C   UNL     1      -0.512  10.736  20.444  0.00  0.00    +0.000 A 
ATOM      5  C   UNL     1      -0.937  11.319  21.644  0.00  0.00    +0.000 A 
ATOM      6  C   UNL     1      -0.632  10.709  22.878  0.00  0.00    +0.000 A 
ATOM      7  C   UNL     1       0.095   9.505  22.960  0.00  0.00    +0.000 A 
ATOM      8  C   UNL     1       0.555   8.977  21.753  0.00  0.00    +0.000 A 
ATOM      9  N   UNL     1       1.301   7.872  21.402  0.00  0.00    +0.000 N 
ATOM     10  H   UNL     1       1.651   7.148  22.015  0.00  0.00    +0.000 HD
ENDROOT
BRANCH   1  15
ATOM     11  C   UNL     1       3.884   5.241  18.774  0.00  0.00    +0.000 A 
ATOM     12  C   UNL     1       4.356   5.880  17.609  0.00  0.00    +0.000 A 
ATOM     13  C   UNL     1       3.969   7.172  17.299  0.00  0.00    +0.000 A 
ATOM     14  C   UNL     1       3.068   7.808  18.134  0.00  0.00    +0.000 A 
ATOM     15  C   UNL     1       2.524   7.162  19.269  0.00  0.00    +0.000 A 
ATOM     16  C   UNL     1       2.913   5.852  19.587  0.00  0.00    +0.000 A 
BRANCH  11  18
ATOM     17  C   UNL     1       3.884   2.945  18.283  0.00  0.00    +0.000 C 
ATOM     18  O   UNL     1       4.380   4.005  19.106  0.00  0.00    +0.000 OA
ENDBRANCH  11  18
BRANCH  16  19
ATOM     19  O   UNL     1       2.286   5.343  20.693  0.00  0.00    +0.000 OA
ATOM     20  C   UNL     1       1.263   4.376  20.550  0.00  0.00    +0.000 C 
ENDBRANCH  16  19
ENDBRANCH   1  15
BRANCH   4  21
ATOM     21  C   UNL     1      -0.859  11.258  19.081  0.00  0.00    +0.000 C 
ATOM     22  O   UNL     1      -0.321  12.254  18.635  0.00  0.00    +0.000 OA
ATOM     23  N   UNL     1      -1.835  10.542  18.419  0.00  0.00    +0.000 N 
ATOM     24  H   UNL     1      -2.231   9.729  18.898  0.00  0.00    +0.000 HD
BRANCH  23  25
ATOM     25  C   UNL     1      -2.412  10.813  17.125  0.00  0.00    +0.000 C 
BRANCH  25  26
ATOM     26  C   UNL     1      -3.811  11.482  17.257  0.00  0.00    +0.000 C 
BRANCH  26  27
ATOM     27  N   UNL     1      -4.529  11.241  18.531  0.00  0.00    +0.000 NA
ATOM     28  C   UNL     1      -4.498  12.414  19.407  0.00  0.00    +0.000 C 
ATOM     29  C   UNL     1      -5.923  10.861  18.279  0.00  0.00    +0.000 C 
ENDBRANCH  26  27
ENDBRANCH  25  26
ENDBRANCH  23  25
ENDBRANCH   4  21
TORSDOF 7
ENDMDL
MODEL 9
REMARK VINA RESULT:      -6.8      1.426      1.628
REMARK  Name = 
REMARK  11 active torsions:
REMARK  status: ('A' for Active; 'I' for Inactive)
REMARK    1  A    between atoms: C_1  and  O_2
REMARK    2  A    between atoms: O_2  and  C_3
REMARK    3  A    between atoms: C_7  and  C_8
REMARK    4  A    between atoms: C_11  and  C_12
REMARK    5  A    between atoms: N_14  and  C_15
REMARK    6  A    between atoms: C_15  and  C_16
REMARK    7  A    between atoms: C_16  and  N_17
REMARK    8  A    between atoms: N_17  and  C_18
REMARK    9  A    between atoms: N_17  and  C_19
REMARK   10  A    between atoms: C_25  and  O_26
REMARK   11  A    between atoms: O_26  and  C_27
REMARK                            x       y       z     vdW  Elec       q    Type
REMARK                         _______ _______ _______ _____ _____    ______ ____
ROOT
ATOM      1  C   UNL     1       2.049   7.054  19.790  0.00  0.00    +0.000 A 
ATOM      2  N   UNL     1       2.406   6.216  18.852  0.00  0.00    +0.000 NA
ATOM      3  C   UNL     1       2.469   4.981  19.419  0.00  0.00    +0.000 A 
ATOM      4  C   UNL     1       2.765   3.772  18.779  0.00  0.00    +0.000 A 
ATOM      5  C   UNL     1       2.652   2.603  19.543  0.00  0.00    +0.000 A 
ATOM      6  C   UNL     1       2.334   2.677  20.913  0.00  0.00    +0.000 A 
ATOM      7  C   UNL     1       2.126   3.906  21.571  0.00  0.00    +0.000 A 
ATOM      8  C   UNL     1       2.189   5.050  20.775  0.00  0.00    +0.000 A 
ATOM      9  N   UNL     1       2.024   6.400  21.005  0.00  0.00    +0.000 N 
ATOM     10  H   UNL     1       1.850   6.854  21.891  0.00  0.00    +0.000 HD
ENDROOT
BRANCH   1  15
ATOM     11  C   UNL     1       0.563  10.526  19.861  0.00  0.00    +0.000 A 
ATOM     12  C   UNL     1       1.114  11.030  18.666  0.00  0.00    +0.000 A 
ATOM     13  C   UNL     1       1.894  10.231  17.848  0.00  0.00    +0.000 A 
ATOM     14  C   UNL     1       2.163   8.937  18.255  0.00  0.00    +0.000 A 
ATOM     15  C   UNL     1       1.682   8.430  19.485  0.00  0.00    +0.000 A 
ATOM     16  C   UNL     1       0.890   9.237  20.317  0.00  0.00    +0.000 A 
BRANCH  11  18
ATOM     17  C   UNL     1       0.285  12.537  21.040  0.00  0.00    +0.000 C 
ATOM     18  O   UNL     1      -0.299  11.313  20.584  0.00  0.00    +0.000 OA
ENDBRANCH  11  18
BRANCH  16  19
ATOM     19  O   UNL     1       0.520   8.627  21.487  0.00  0.00    +0.000 OA
ATOM     20  C   UNL     1       0.805   9.240  22.730  0.00  0.00    +0.000 C 
ENDBRANCH  16  19
ENDBRANCH   1  15
BRANCH   4  21
ATOM     21  C   UNL     1       3.184   3.805  17.339  0.00  0.00    +0.000 C 
ATOM     22  O   UNL     1       2.619   3.119  16.507  0.00  0.00    +0.000 OA
ATOM     23  N   UNL     1       4.251   4.634  17.065  0.00  0.00    +0.000 N 
ATOM     24  H   UNL     1       4.660   5.151  17.848  0.00  0.00    +0.000 HD
BRANCH  23  25
ATOM     25  C   UNL     1       4.909   4.848  15.799  0.00  0.00    +0.000 C 
BRANCH  25  26
ATOM     26  C   UNL     1       5.770   3.617  15.393  0.00  0.00    +0.000 C 
BRANCH  26  27
ATOM     27  N   UNL     1       6.641   3.796  14.207  0.00  0.00    +0.000 NA
ATOM     28  C   UNL     1       5.914   3.575  12.956  0.00  0.00    +0.000 C 
ATOM     29  C   UNL     1       7.232   5.139  14.194  0.00  0.00    +0.000 C 
ENDBRANCH  26  27
ENDBRANCH  25  26
ENDBRANCH  23  25
ENDBRANCH   4  21
TORSDOF 7
ENDMDL
