MODEL 1
REMARK VINA RESULT:      -8.1      0.000      0.000
REMARK  Name = 
REMARK  11 active torsions:
REMARK  status: ('A' for Active; 'I' for Inactive)
REMARK    1  A    between atoms: C_1  and  C_2
REMARK    2  A    between atoms: C_2  and  C_3
REMARK    3  A    between atoms: C_3  and  C_4
REMARK    4  A    between atoms: C_4  and  C_5
REMARK    5  A    between atoms: C_5  and  N_6
REMARK    6  A    between atoms: N_9  and  S_10
REMARK    7  A    between atoms: S_10  and  C_13
REMARK    8  A    between atoms: C_15  and  N_16
REMARK    9  A    between atoms: C_21  and  O_22
REMARK   10  A    between atoms: O_22  and  C_23
REMARK   11  A    between atoms: C_28  and  C_29
REMARK                            x       y       z     vdW  Elec       q    Type
REMARK                         _______ _______ _______ _____ _____    ______ ____
ROOT
ATOM      1  C   UNL     1       3.254   5.506  18.793  0.00  0.00    +0.000 A 
ATOM      2  C   UNL     1       2.863   4.185  18.469  0.00  0.00    +0.000 A 
ATOM      3  C   UNL     1       1.774   3.576  19.093  0.00  0.00    +0.000 A 
ATOM      4  C   UNL     1       1.040   4.273  20.047  0.00  0.00    +0.000 A 
ATOM      5  C   UNL     1       1.406   5.587  20.359  0.00  0.00    +0.000 A 
ATOM      6  C   UNL     1       2.512   6.225  19.751  0.00  0.00    +0.000 A 
ENDROOT
BRANCH   1   7
ATOM      7  S   UNL     1       4.619   6.111  17.801  0.00  0.00    +0.000 S 
ATOM      8  O   UNL     1       5.804   6.198  18.620  0.00  0.00    +0.000 OA
ATOM      9  O   UNL     1       4.171   7.292  17.092  0.00  0.00    +0.000 OA
BRANCH   7  13
ATOM     10  N   UNL     1       5.425   3.920  14.654  0.00  0.00    +0.000 N 
ATOM     11  C   UNL     1       5.484   5.044  15.437  0.00  0.00    +0.000 C 
ATOM     12  O   UNL     1       5.978   6.091  15.058  0.00  0.00    +0.000 OA
ATOM     13  N   UNL     1       4.877   4.894  16.678  0.00  0.00    +0.000 N 
ATOM     14  H   UNL     1       4.947   3.101  14.996  0.00  0.00    +0.000 HD
ATOM     15  H   UNL     1       4.514   4.005  16.992  0.00  0.00    +0.000 HD
BRANCH  10  16
ATOM     16  C   UNL     1       6.017   3.865  13.332  0.00  0.00    +0.000 C 
BRANCH  16  17
ATOM     17  C   UNL     1       5.299   2.894  12.388  0.00  0.00    +0.000 C 
BRANCH  17  18
ATOM     18  C   UNL     1       4.880   3.559  11.073  0.00  0.00    +0.000 C 
BRANCH  18  20
ATOM     19  C   UNL     1       2.905   4.209   9.649  0.00  0.00    +0.000 C 
ATOM     20  C   UNL     1       3.419   3.264  10.726  0.00  0.00    +0.000 C 
ENDBRANCH  18  20
ENDBRANCH  17  18
ENDBRANCH  16  17
ENDBRANCH  10  16
ENDBRANCH   7  13
ENDBRANCH   1   7
BRANCH   3  21
ATOM     21  N   UNL     1       1.391   2.207  18.723  0.00  0.00    +0.000 N 
ATOM     22  O   UNL     1       0.197   1.984  18.476  0.00  0.00    +0.000 OA
ATOM     23  O   UNL     1       2.286   1.352  18.684  0.00  0.00    +0.000 OA
ENDBRANCH   3  21
BRANCH   6  24
ATOM     24  O   UNL     1       2.579   7.544  20.144  0.00  0.00    +0.000 OA
BRANCH  24  25
ATOM     25  C   UNL     1       1.714   8.504  19.687  0.00  0.00    +0.000 A 
ATOM     26  C   UNL     1       1.609   8.879  18.349  0.00  0.00    +0.000 A 
ATOM     27  C   UNL     1       0.513   9.631  17.925  0.00  0.00    +0.000 A 
ATOM     28  C   UNL     1      -0.433  10.068  18.847  0.00  0.00    +0.000 A 
ATOM     29  C   UNL     1      -0.218   9.862  20.209  0.00  0.00    +0.000 A 
ATOM     30  C   UNL     1       0.879   9.109  20.646  0.00  0.00    +0.000 A 
ATOM     31  C   UNL     1       1.168   9.008  22.119  0.00  0.00    +0.000 C 
ENDBRANCH  24  25
ENDBRANCH   6  24
TORSDOF 9
ENDMDL
MODEL 2
REMARK VINA RESULT:      -8.0      0.807      1.271
REMARK  Name = 
REMARK  11 active torsions:
REMARK  status: ('A' for Active; 'I' for Inactive)
REMARK    1  A    between atoms: C_1  and  C_2
REMARK    2  A    between atoms: C_2  and  C_3
REMARK    3  A    between atoms: C_3  and  C_4
REMARK    4  A    between atoms: C_4  and  C_5
REMARK    5  A    between atoms: C_5  and  N_6
REMARK    6  A    between atoms: N_9  and  S_10
REMARK    7  A    between atoms: S_10  and  C_13
REMARK    8  A    between atoms: C_15  and  N_16
REMARK    9  A    between atoms: C_21  and  O_22
REMARK   10  A    between atoms: O_22  and  C_23
REMARK   11  A    between atoms: C_28  and  C_29
REMARK                            x       y       z     vdW  Elec       q    Type
REMARK                         _______ _______ _______ _____ _____    ______ ____
ROOT
ATOM      1  C   UNL     1       3.258   5.530  18.644  0.00  0.00    +0.000 A 
ATOM      2  C   UNL     1       2.852   4.205  18.359  0.00  0.00    +0.000 A 
ATOM      3  C   UNL     1       1.813   3.596  19.064  0.00  0.00    +0.000 A 
ATOM      4  C   UNL     1       1.147   4.298  20.063  0.00  0.00    +0.000 A 
ATOM      5  C   UNL     1       1.528   5.615  20.338  0.00  0.00    +0.000 A 
ATOM      6  C   UNL     1       2.583   6.254  19.646  0.00  0.00    +0.000 A 
ENDROOT
BRANCH   1   7
ATOM      7  S   UNL     1       4.544   6.134  17.550  0.00  0.00    +0.000 S 
ATOM      8  O   UNL     1       5.771   6.289  18.295  0.00  0.00    +0.000 OA
ATOM      9  O   UNL     1       4.020   7.271  16.823  0.00  0.00    +0.000 OA
BRANCH   7  13
ATOM     10  N   UNL     1       5.465   3.811  14.532  0.00  0.00    +0.000 N 
ATOM     11  C   UNL     1       5.581   4.921  15.331  0.00  0.00    +0.000 C 
ATOM     12  O   UNL     1       6.284   5.873  15.044  0.00  0.00    +0.000 OA
ATOM     13  N   UNL     1       4.776   4.880  16.463  0.00  0.00    +0.000 N 
ATOM     14  H   UNL     1       4.819   3.081  14.786  0.00  0.00    +0.000 HD
ATOM     15  H   UNL     1       4.235   4.062  16.706  0.00  0.00    +0.000 HD
BRANCH  10  16
ATOM     16  C   UNL     1       6.235   3.651  13.314  0.00  0.00    +0.000 C 
BRANCH  16  17
ATOM     17  C   UNL     1       5.379   3.717  12.044  0.00  0.00    +0.000 C 
BRANCH  17  18
ATOM     18  C   UNL     1       5.160   2.338  11.415  0.00  0.00    +0.000 C 
BRANCH  18  20
ATOM     19  C   UNL     1       6.262   0.075  11.310  0.00  0.00    +0.000 C 
ATOM     20  C   UNL     1       6.476   1.579  11.232  0.00  0.00    +0.000 C 
ENDBRANCH  18  20
ENDBRANCH  17  18
ENDBRANCH  16  17
ENDBRANCH  10  16
ENDBRANCH   7  13
ENDBRANCH   1   7
BRANCH   3  21
ATOM     21  N   UNL     1       1.412   2.223  18.733  0.00  0.00    +0.000 N 
ATOM     22  O   UNL     1       0.214   2.008  18.498  0.00  0.00    +0.000 OA
ATOM     23  O   UNL     1       2.296   1.356  18.714  0.00  0.00    +0.000 OA
ENDBRANCH   3  21
BRANCH   6  24
ATOM     24  O   UNL     1       2.671   7.576  20.023  0.00  0.00    +0.000 OA
BRANCH  24  25
ATOM     25  C   UNL     1       1.767   8.528  19.628  0.00  0.00    +0.000 A 
ATOM     26  C   UNL     1       1.609   8.943  18.307  0.00  0.00    +0.000 A 
ATOM     27  C   UNL     1       0.480   9.679  17.944  0.00  0.00    +0.000 A 
ATOM     28  C   UNL     1      -0.445  10.061  18.910  0.00  0.00    +0.000 A 
ATOM     29  C   UNL     1      -0.180   9.816  20.257  0.00  0.00    +0.000 A 
ATOM     30  C   UNL     1       0.950   9.078  20.633  0.00  0.00    +0.000 A 
ATOM     31  C   UNL     1       1.290   8.937  22.092  0.00  0.00    +0.000 C 
ENDBRANCH  24  25
ENDBRANCH   6  24
TORSDOF 9
ENDMDL
MODEL 3
REMARK VINA RESULT:      -7.7      0.716      1.548
REMARK  Name = 
REMARK  11 active torsions:
REMARK  status: ('A' for Active; 'I' for Inactive)
REMARK    1  A    between atoms: C_1  and  C_2
REMARK    2  A    between atoms: C_2  and  C_3
REMARK    3  A    between atoms: C_3  and  C_4
REMARK    4  A    between atoms: C_4  and  C_5
REMARK    5  A    between atoms: C_5  and  N_6
REMARK    6  A    between atoms: N_9  and  S_10
REMARK    7  A    between atoms: S_10  and  C_13
REMARK    8  A    between atoms: C_15  and  N_16
REMARK    9  A    between atoms: C_21  and  O_22
REMARK   10  A    between atoms: O_22  and  C_23
REMARK   11  A    between atoms: C_28  and  C_29
REMARK                            x       y       z     vdW  Elec       q    Type
REMARK                         _______ _______ _______ _____ _____    ______ ____
ROOT
ATOM      1  C   UNL     1       3.601   5.489  18.599  0.00  0.00    +0.000 A 
ATOM      2  C   UNL     1       3.302   4.122  18.393  0.00  0.00    +0.000 A 
ATOM      3  C   UNL     1       2.295   3.480  19.115  0.00  0.00    +0.000 A 
ATOM      4  C   UNL     1       1.554   4.190  20.055  0.00  0.00    +0.000 A 
ATOM      5  C   UNL     1       1.829   5.548  20.251  0.00  0.00    +0.000 A 
ATOM      6  C   UNL     1       2.850   6.220  19.540  0.00  0.00    +0.000 A 
ENDROOT
BRANCH   1   7
ATOM      7  S   UNL     1       4.865   6.118  17.495  0.00  0.00    +0.000 S 
ATOM      8  O   UNL     1       6.154   6.015  18.135  0.00  0.00    +0.000 OA
ATOM      9  O   UNL     1       4.431   7.410  17.003  0.00  0.00    +0.000 OA
BRANCH   7  13
ATOM     10  N   UNL     1       5.487   4.095  14.198  0.00  0.00    +0.000 N 
ATOM     11  C   UNL     1       5.819   4.957  15.212  0.00  0.00    +0.000 C 
ATOM     12  O   UNL     1       6.838   5.623  15.208  0.00  0.00    +0.000 OA
ATOM     13  N   UNL     1       4.858   5.042  16.212  0.00  0.00    +0.000 N 
ATOM     14  H   UNL     1       4.600   3.617  14.223  0.00  0.00    +0.000 HD
ATOM     15  H   UNL     1       4.041   4.446  16.219  0.00  0.00    +0.000 HD
BRANCH  10  16
ATOM     16  C   UNL     1       6.365   3.851  13.071  0.00  0.00    +0.000 C 
BRANCH  16  17
ATOM     17  C   UNL     1       5.734   2.961  11.994  0.00  0.00    +0.000 C 
BRANCH  17  18
ATOM     18  C   UNL     1       4.235   3.224  11.823  0.00  0.00    +0.000 C 
BRANCH  18  20
ATOM     19  C   UNL     1       2.849   3.539   9.742  0.00  0.00    +0.000 C 
ATOM     20  C   UNL     1       3.946   4.123  10.620  0.00  0.00    +0.000 C 
ENDBRANCH  18  20
ENDBRANCH  17  18
ENDBRANCH  16  17
ENDBRANCH  10  16
ENDBRANCH   7  13
ENDBRANCH   1   7
BRANCH   3  21
ATOM     21  N   UNL     1       2.005   2.063  18.865  0.00  0.00    +0.000 N 
ATOM     22  O   UNL     1       2.963   1.294  18.698  0.00  0.00    +0.000 OA
ATOM     23  O   UNL     1       0.816   1.718  18.830  0.00  0.00    +0.000 OA
ENDBRANCH   3  21
BRANCH   6  24
ATOM     24  O   UNL     1       2.830   7.567  19.833  0.00  0.00    +0.000 OA
BRANCH  24  25
ATOM     25  C   UNL     1       1.683   8.244  20.157  0.00  0.00    +0.000 A 
ATOM     26  C   UNL     1       1.024   8.110  21.377  0.00  0.00    +0.000 A 
ATOM     27  C   UNL     1       0.053   9.043  21.744  0.00  0.00    +0.000 A 
ATOM     28  C   UNL     1      -0.308  10.058  20.864  0.00  0.00    +0.000 A 
ATOM     29  C   UNL     1       0.209  10.068  19.570  0.00  0.00    +0.000 A 
ATOM     30  C   UNL     1       1.184   9.137  19.190  0.00  0.00    +0.000 A 
ATOM     31  C   UNL     1       1.634   9.079  17.755  0.00  0.00    +0.000 C 
ENDBRANCH  24  25
ENDBRANCH   6  24
TORSDOF 9
ENDMDL
MODEL 4
REMARK VINA RESULT:      -7.2      3.162      7.408
REMARK  Name = 
REMARK  11 active torsions:
REMARK  status: ('A' for Active; 'I' for Inactive)
REMARK    1  A    between atoms: C_1  and  C_2
REMARK    2  A    between atoms: C_2  and  C_3
REMARK    3  A    between atoms: C_3  and  C_4
REMARK    4  A    between atoms: C_4  and  C_5
REMARK    5  A    between atoms: C_5  and  N_6
REMARK    6  A    between atoms: N_9  and  S_10
REMARK    7  A    between atoms: S_10  and  C_13
REMARK    8  A    between atoms: C_15  and  N_16
REMARK    9  A    between atoms: C_21  and  O_22
REMARK   10  A    between atoms: O_22  and  C_23
REMARK   11  A    between atoms: C_28  and  C_29
REMARK                            x       y       z     vdW  Elec       q    Type
REMARK                         _______ _______ _______ _____ _____    ______ ____
ROOT
ATOM      1  C   UNL     1       5.952   5.860  17.610  0.00  0.00    +0.000 A 
ATOM      2  C   UNL     1       4.777   6.356  18.222  0.00  0.00    +0.000 A 
ATOM      3  C   UNL     1       3.872   7.153  17.520  0.00  0.00    +0.000 A 
ATOM      4  C   UNL     1       4.111   7.465  16.186  0.00  0.00    +0.000 A 
ATOM      5  C   UNL     1       5.260   6.962  15.566  0.00  0.00    +0.000 A 
ATOM      6  C   UNL     1       6.199   6.161  16.256  0.00  0.00    +0.000 A 
ENDROOT
BRANCH   1   7
ATOM      7  S   UNL     1       6.913   4.785  18.675  0.00  0.00    +0.000 S 
ATOM      8  O   UNL     1       7.323   5.518  19.849  0.00  0.00    +0.000 OA
ATOM      9  O   UNL     1       7.926   4.138  17.866  0.00  0.00    +0.000 OA
BRANCH   7  13
ATOM     10  N   UNL     1       3.953   2.255  19.103  0.00  0.00    +0.000 N 
ATOM     11  C   UNL     1       4.801   3.072  18.400  0.00  0.00    +0.000 C 
ATOM     12  O   UNL     1       4.645   3.332  17.221  0.00  0.00    +0.000 OA
ATOM     13  N   UNL     1       5.818   3.619  19.173  0.00  0.00    +0.000 N 
ATOM     14  H   UNL     1       4.093   2.125  20.092  0.00  0.00    +0.000 HD
ATOM     15  H   UNL     1       5.957   3.354  20.138  0.00  0.00    +0.000 HD
BRANCH  10  16
ATOM     16  C   UNL     1       2.839   1.571  18.474  0.00  0.00    +0.000 C 
BRANCH  16  17
ATOM     17  C   UNL     1       1.487   1.902  19.116  0.00  0.00    +0.000 C 
BRANCH  17  18
ATOM     18  C   UNL     1       1.201   3.406  19.136  0.00  0.00    +0.000 C 
BRANCH  18  20
ATOM     19  C   UNL     1       1.359   2.861  21.591  0.00  0.00    +0.000 C 
ATOM     20  C   UNL     1       1.196   3.967  20.560  0.00  0.00    +0.000 C 
ENDBRANCH  18  20
ENDBRANCH  17  18
ENDBRANCH  16  17
ENDBRANCH  10  16
ENDBRANCH   7  13
ENDBRANCH   1   7
BRANCH   3  21
ATOM     21  N   UNL     1       2.657   7.641  18.186  0.00  0.00    +0.000 N 
ATOM     22  O   UNL     1       2.041   8.577  17.657  0.00  0.00    +0.000 OA
ATOM     23  O   UNL     1       2.322   7.090  19.243  0.00  0.00    +0.000 OA
ENDBRANCH   3  21
BRANCH   6  24
ATOM     24  O   UNL     1       7.166   5.702  15.389  0.00  0.00    +0.000 OA
BRANCH  24  25
ATOM     25  C   UNL     1       6.895   4.844  14.354  0.00  0.00    +0.000 A 
ATOM     26  C   UNL     1       5.955   3.818  14.426  0.00  0.00    +0.000 A 
ATOM     27  C   UNL     1       5.524   3.192  13.256  0.00  0.00    +0.000 A 
ATOM     28  C   UNL     1       6.086   3.538  12.031  0.00  0.00    +0.000 A 
ATOM     29  C   UNL     1       7.165   4.420  11.989  0.00  0.00    +0.000 A 
ATOM     30  C   UNL     1       7.606   5.054  13.158  0.00  0.00    +0.000 A 
ATOM     31  C   UNL     1       8.851   5.898  13.117  0.00  0.00    +0.000 C 
ENDBRANCH  24  25
ENDBRANCH   6  24
TORSDOF 9
ENDMDL
MODEL 5
REMARK VINA RESULT:      -7.2      4.475      7.304
REMARK  Name = 
REMARK  11 active torsions:
REMARK  status: ('A' for Active; 'I' for Inactive)
REMARK    1  A    between atoms: C_1  and  C_2
REMARK    2  A    between atoms: C_2  and  C_3
REMARK    3  A    between atoms: C_3  and  C_4
REMARK    4  A    between atoms: C_4  and  C_5
REMARK    5  A    between atoms: C_5  and  N_6
REMARK    6  A    between atoms: N_9  and  S_10
REMARK    7  A    between atoms: S_10  and  C_13
REMARK    8  A    between atoms: C_15  and  N_16
REMARK    9  A    between atoms: C_21  and  O_22
REMARK   10  A    between atoms: O_22  and  C_23
REMARK   11  A    between atoms: C_28  and  C_29
REMARK                            x       y       z     vdW  Elec       q    Type
REMARK                         _______ _______ _______ _____ _____    ______ ____
ROOT
ATOM      1  C   UNL     1       6.482   5.271  17.192  0.00  0.00    +0.000 A 
ATOM      2  C   UNL     1       7.066   4.919  15.953  0.00  0.00    +0.000 A 
ATOM      3  C   UNL     1       6.401   5.140  14.746  0.00  0.00    +0.000 A 
ATOM      4  C   UNL     1       5.141   5.729  14.746  0.00  0.00    +0.000 A 
ATOM      5  C   UNL     1       4.564   6.100  15.965  0.00  0.00    +0.000 A 
ATOM      6  C   UNL     1       5.210   5.878  17.203  0.00  0.00    +0.000 A 
ENDROOT
BRANCH   1   7
ATOM      7  S   UNL     1       7.557   4.981  18.597  0.00  0.00    +0.000 S 
ATOM      8  O   UNL     1       8.746   4.292  18.155  0.00  0.00    +0.000 OA
ATOM      9  O   UNL     1       6.764   4.395  19.658  0.00  0.00    +0.000 OA
BRANCH   7  13
ATOM     10  N   UNL     1       8.690   8.721  18.878  0.00  0.00    +0.000 N 
ATOM     11  C   UNL     1       8.140   7.629  18.255  0.00  0.00    +0.000 C 
ATOM     12  O   UNL     1       7.835   7.623  17.077  0.00  0.00    +0.000 OA
ATOM     13  N   UNL     1       8.021   6.517  19.079  0.00  0.00    +0.000 N 
ATOM     14  H   UNL     1       8.984   8.649  19.840  0.00  0.00    +0.000 HD
ATOM     15  H   UNL     1       8.238   6.556  20.066  0.00  0.00    +0.000 HD
BRANCH  10  16
ATOM     16  C   UNL     1       8.881   9.986  18.197  0.00  0.00    +0.000 C 
BRANCH  16  17
ATOM     17  C   UNL     1       9.649  11.014  19.035  0.00  0.00    +0.000 C 
BRANCH  17  18
ATOM     18  C   UNL     1      10.906  11.527  18.325  0.00  0.00    +0.000 C 
BRANCH  18  20
ATOM     19  C   UNL     1      12.333  13.254  19.478  0.00  0.00    +0.000 C 
ATOM     20  C   UNL     1      12.056  11.768  19.304  0.00  0.00    +0.000 C 
ENDBRANCH  18  20
ENDBRANCH  17  18
ENDBRANCH  16  17
ENDBRANCH  10  16
ENDBRANCH   7  13
ENDBRANCH   1   7
BRANCH   3  21
ATOM     21  N   UNL     1       7.044   4.771  13.479  0.00  0.00    +0.000 N 
ATOM     22  O   UNL     1       6.631   3.761  12.890  0.00  0.00    +0.000 OA
ATOM     23  O   UNL     1       7.968   5.488  13.074  0.00  0.00    +0.000 OA
ENDBRANCH   3  21
BRANCH   6  24
ATOM     24  O   UNL     1       4.485   6.442  18.230  0.00  0.00    +0.000 OA
BRANCH  24  25
ATOM     25  C   UNL     1       3.534   5.754  18.937  0.00  0.00    +0.000 A 
ATOM     26  C   UNL     1       3.569   4.376  19.143  0.00  0.00    +0.000 A 
ATOM     27  C   UNL     1       2.747   3.800  20.113  0.00  0.00    +0.000 A 
ATOM     28  C   UNL     1       1.842   4.588  20.818  0.00  0.00    +0.000 A 
ATOM     29  C   UNL     1       1.671   5.926  20.468  0.00  0.00    +0.000 A 
ATOM     30  C   UNL     1       2.490   6.514  19.496  0.00  0.00    +0.000 A 
ATOM     31  C   UNL     1       2.204   7.919  19.039  0.00  0.00    +0.000 C 
ENDBRANCH  24  25
ENDBRANCH   6  24
TORSDOF 9
ENDMDL
MODEL 6
REMARK VINA RESULT:      -7.2      4.443      7.292
REMARK  Name = 
REMARK  11 active torsions:
REMARK  status: ('A' for Active; 'I' for Inactive)
REMARK    1  A    between atoms: C_1  and  C_2
REMARK    2  A    between atoms: C_2  and  C_3
REMARK    3  A    between atoms: C_3  and  C_4
REMARK    4  A    between atoms: C_4  and  C_5
REMARK    5  A    between atoms: C_5  and  N_6
REMARK    6  A    between atoms: N_9  and  S_10
REMARK    7  A    between atoms: S_10  and  C_13
REMARK    8  A    between atoms: C_15  and  N_16
REMARK    9  A    between atoms: C_21  and  O_22
REMARK   10  A    between atoms: O_22  and  C_23
REMARK   11  A    between atoms: C_28  and  C_29
REMARK                            x       y       z     vdW  Elec       q    Type
REMARK                         _______ _______ _______ _____ _____    ______ ____
ROOT
ATOM      1  C   UNL     1       4.165   6.736  17.631  0.00  0.00    +0.000 A 
ATOM      2  C   UNL     1       3.579   8.001  17.385  0.00  0.00    +0.000 A 
ATOM      3  C   UNL     1       2.454   8.430  18.089  0.00  0.00    +0.000 A 
ATOM      4  C   UNL     1       1.892   7.614  19.065  0.00  0.00    +0.000 A 
ATOM      5  C   UNL     1       2.476   6.371  19.330  0.00  0.00    +0.000 A 
ATOM      6  C   UNL     1       3.610   5.906  18.625  0.00  0.00    +0.000 A 
ENDROOT
BRANCH   1   7
ATOM      7  S   UNL     1       5.653   6.440  16.676  0.00  0.00    +0.000 S 
ATOM      8  O   UNL     1       5.309   6.326  15.279  0.00  0.00    +0.000 OA
ATOM      9  O   UNL     1       6.385   5.360  17.306  0.00  0.00    +0.000 OA
BRANCH   7  13
ATOM     10  N   UNL     1       8.015   9.350  17.817  0.00  0.00    +0.000 N 
ATOM     11  C   UNL     1       7.565   8.055  17.775  0.00  0.00    +0.000 C 
ATOM     12  O   UNL     1       7.989   7.182  18.510  0.00  0.00    +0.000 OA
ATOM     13  N   UNL     1       6.541   7.849  16.858  0.00  0.00    +0.000 N 
ATOM     14  H   UNL     1       7.582  10.046  17.230  0.00  0.00    +0.000 HD
ATOM     15  H   UNL     1       6.235   8.575  16.226  0.00  0.00    +0.000 HD
BRANCH  10  16
ATOM     16  C   UNL     1       9.092   9.767  18.693  0.00  0.00    +0.000 C 
BRANCH  16  17
ATOM     17  C   UNL     1       9.863  10.983  18.167  0.00  0.00    +0.000 C 
BRANCH  17  18
ATOM     18  C   UNL     1      10.976  11.427  19.121  0.00  0.00    +0.000 C 
BRANCH  18  20
ATOM     19  C   UNL     1      11.371  12.946  17.149  0.00  0.00    +0.000 C 
ATOM     20  C   UNL     1      11.941  12.409  18.453  0.00  0.00    +0.000 C 
ENDBRANCH  18  20
ENDBRANCH  17  18
ENDBRANCH  16  17
ENDBRANCH  10  16
ENDBRANCH   7  13
ENDBRANCH   1   7
BRANCH   3  21
ATOM     21  N   UNL     1       1.880   9.754  17.814  0.00  0.00    +0.000 N 
ATOM     22  O   UNL     1       2.658  10.676  17.528  0.00  0.00    +0.000 OA
ATOM     23  O   UNL     1       0.650   9.873  17.889  0.00  0.00    +0.000 OA
ENDBRANCH   3  21
BRANCH   6  24
ATOM     24  O   UNL     1       4.052   4.716  19.160  0.00  0.00    +0.000 OA
BRANCH  24  25
ATOM     25  C   UNL     1       3.212   3.800  19.739  0.00  0.00    +0.000 A 
ATOM     26  C   UNL     1       2.981   3.722  21.111  0.00  0.00    +0.000 A 
ATOM     27  C   UNL     1       1.901   2.979  21.590  0.00  0.00    +0.000 A 
ATOM     28  C   UNL     1       1.104   2.258  20.707  0.00  0.00    +0.000 A 
ATOM     29  C   UNL     1       1.460   2.178  19.361  0.00  0.00    +0.000 A 
ATOM     30  C   UNL     1       2.542   2.920  18.870  0.00  0.00    +0.000 A 
ATOM     31  C   UNL     1       2.991   2.720  17.448  0.00  0.00    +0.000 C 
ENDBRANCH  24  25
ENDBRANCH   6  24
TORSDOF 9
ENDMDL
MODEL 7
REMARK VINA RESULT:      -7.2      4.353      7.331
REMARK  Name = 
REMARK  11 active torsions:
REMARK  status: ('A' for Active; 'I' for Inactive)
REMARK    1  A    between atoms: C_1  and  C_2
REMARK    2  A    between atoms: C_2  and  C_3
REMARK    3  A    between atoms: C_3  and  C_4
REMARK    4  A    between atoms: C_4  and  C_5
REMARK    5  A    between atoms: C_5  and  N_6
REMARK    6  A    between atoms: N_9  and  S_10
REMARK    7  A    between atoms: S_10  and  C_13
REMARK    8  A    between atoms: C_15  and  N_16
REMARK    9  A    between atoms: C_21  and  O_22
REMARK   10  A    between atoms: O_22  and  C_23
REMARK   11  A    between atoms: C_28  and  C_29
REMARK                            x       y       z     vdW  Elec       q    Type
REMARK                         _______ _______ _______ _____ _____    ______ ____
ROOT
ATOM      1  C   UNL     1       6.394   4.442  16.291  0.00  0.00    +0.000 A 
ATOM      2  C   UNL     1       7.121   4.616  15.090  0.00  0.00    +0.000 A 
ATOM      3  C   UNL     1       6.532   4.391  13.845  0.00  0.00    +0.000 A 
ATOM      4  C   UNL     1       5.200   3.999  13.767  0.00  0.00    +0.000 A 
ATOM      5  C   UNL     1       4.467   3.845  14.949  0.00  0.00    +0.000 A 
ATOM      6  C   UNL     1       5.041   4.056  16.224  0.00  0.00    +0.000 A 
ENDROOT
BRANCH   1   7
ATOM      7  S   UNL     1       7.326   4.877  17.759  0.00  0.00    +0.000 S 
ATOM      8  O   UNL     1       8.573   4.150  17.767  0.00  0.00    +0.000 OA
ATOM      9  O   UNL     1       6.444   4.765  18.903  0.00  0.00    +0.000 OA
BRANCH   7  13
ATOM     10  N   UNL     1       8.301   8.656  18.105  0.00  0.00    +0.000 N 
ATOM     11  C   UNL     1       8.249   7.342  18.496  0.00  0.00    +0.000 C 
ATOM     12  O   UNL     1       8.607   6.964  19.597  0.00  0.00    +0.000 OA
ATOM     13  N   UNL     1       7.696   6.497  17.542  0.00  0.00    +0.000 N 
ATOM     14  H   UNL     1       7.931   8.922  17.206  0.00  0.00    +0.000 HD
ATOM     15  H   UNL     1       7.447   6.823  16.619  0.00  0.00    +0.000 HD
BRANCH  10  16
ATOM     16  C   UNL     1       8.862   9.693  18.949  0.00  0.00    +0.000 C 
BRANCH  16  17
ATOM     17  C   UNL     1       9.392  10.895  18.159  0.00  0.00    +0.000 C 
BRANCH  17  18
ATOM     18  C   UNL     1      10.500  11.643  18.905  0.00  0.00    +0.000 C 
BRANCH  18  20
ATOM     19  C   UNL     1      11.715  13.202  17.342  0.00  0.00    +0.000 C 
ATOM     20  C   UNL     1      11.739  11.847  18.032  0.00  0.00    +0.000 C 
ENDBRANCH  18  20
ENDBRANCH  17  18
ENDBRANCH  16  17
ENDBRANCH  10  16
ENDBRANCH   7  13
ENDBRANCH   1   7
BRANCH   3  21
ATOM     21  N   UNL     1       7.315   4.593  12.619  0.00  0.00    +0.000 N 
ATOM     22  O   UNL     1       8.080   5.567  12.571  0.00  0.00    +0.000 OA
ATOM     23  O   UNL     1       7.160   3.778  11.699  0.00  0.00    +0.000 OA
ENDBRANCH   3  21
BRANCH   6  24
ATOM     24  O   UNL     1       4.079   3.956  17.205  0.00  0.00    +0.000 OA
BRANCH  24  25
ATOM     25  C   UNL     1       3.633   5.033  17.927  0.00  0.00    +0.000 A 
ATOM     26  C   UNL     1       3.704   6.349  17.476  0.00  0.00    +0.000 A 
ATOM     27  C   UNL     1       2.967   7.342  18.122  0.00  0.00    +0.000 A 
ATOM     28  C   UNL     1       2.225   7.033  19.257  0.00  0.00    +0.000 A 
ATOM     29  C   UNL     1       2.317   5.761  19.819  0.00  0.00    +0.000 A 
ATOM     30  C   UNL     1       3.054   4.756  19.179  0.00  0.00    +0.000 A 
ATOM     31  C   UNL     1       3.251   3.432  19.866  0.00  0.00    +0.000 C 
ENDBRANCH  24  25
ENDBRANCH   6  24
TORSDOF 9
ENDMDL
MODEL 8
REMARK VINA RESULT:      -7.1      1.148      1.894
REMARK  Name = 
REMARK  11 active torsions:
REMARK  status: ('A' for Active; 'I' for Inactive)
REMARK    1  A    between atoms: C_1  and  C_2
REMARK    2  A    between atoms: C_2  and  C_3
REMARK    3  A    between atoms: C_3  and  C_4
REMARK    4  A    between atoms: C_4  and  C_5
REMARK    5  A    between atoms: C_5  and  N_6
REMARK    6  A    between atoms: N_9  and  S_10
REMARK    7  A    between atoms: S_10  and  C_13
REMARK    8  A    between atoms: C_15  and  N_16
REMARK    9  A    between atoms: C_21  and  O_22
REMARK   10  A    between atoms: O_22  and  C_23
REMARK   11  A    between atoms: C_28  and  C_29
REMARK                            x       y       z     vdW  Elec       q    Type
REMARK                         _______ _______ _______ _____ _____    ______ ____
ROOT
ATOM      1  C   UNL     1       3.384   5.447  18.826  0.00  0.00    +0.000 A 
ATOM      2  C   UNL     1       2.982   4.123  18.528  0.00  0.00    +0.000 A 
ATOM      3  C   UNL     1       1.839   3.564  19.101  0.00  0.00    +0.000 A 
ATOM      4  C   UNL     1       1.062   4.316  19.977  0.00  0.00    +0.000 A 
ATOM      5  C   UNL     1       1.440   5.633  20.261  0.00  0.00    +0.000 A 
ATOM      6  C   UNL     1       2.599   6.221  19.703  0.00  0.00    +0.000 A 
ENDROOT
BRANCH   1   7
ATOM      7  S   UNL     1       4.826   5.980  17.903  0.00  0.00    +0.000 S 
ATOM      8  O   UNL     1       6.017   5.677  18.659  0.00  0.00    +0.000 OA
ATOM      9  O   UNL     1       4.603   7.344  17.468  0.00  0.00    +0.000 OA
BRANCH   7  13
ATOM     10  N   UNL     1       5.310   4.306  14.394  0.00  0.00    +0.000 N 
ATOM     11  C   UNL     1       5.621   5.164  15.418  0.00  0.00    +0.000 C 
ATOM     12  O   UNL     1       6.474   6.027  15.324  0.00  0.00    +0.000 OA
ATOM     13  N   UNL     1       4.830   4.994  16.549  0.00  0.00    +0.000 N 
ATOM     14  H   UNL     1       4.551   3.654  14.505  0.00  0.00    +0.000 HD
ATOM     15  H   UNL     1       4.159   4.242  16.623  0.00  0.00    +0.000 HD
BRANCH  10  16
ATOM     16  C   UNL     1       6.032   4.310  13.137  0.00  0.00    +0.000 C 
BRANCH  16  17
ATOM     17  C   UNL     1       5.905   2.992  12.363  0.00  0.00    +0.000 C 
BRANCH  17  18
ATOM     18  C   UNL     1       7.202   2.608  11.645  0.00  0.00    +0.000 C 
BRANCH  18  20
ATOM     19  C   UNL     1       6.115   0.364  11.283  0.00  0.00    +0.000 C 
ATOM     20  C   UNL     1       6.993   1.446  10.672  0.00  0.00    +0.000 C 
ENDBRANCH  18  20
ENDBRANCH  17  18
ENDBRANCH  16  17
ENDBRANCH  10  16
ENDBRANCH   7  13
ENDBRANCH   1   7
BRANCH   3  21
ATOM     21  N   UNL     1       1.447   2.191  18.759  0.00  0.00    +0.000 N 
ATOM     22  O   UNL     1       0.281   1.995  18.387  0.00  0.00    +0.000 OA
ATOM     23  O   UNL     1       2.305   1.305  18.869  0.00  0.00    +0.000 OA
ENDBRANCH   3  21
BRANCH   6  24
ATOM     24  O   UNL     1       2.674   7.553  20.048  0.00  0.00    +0.000 OA
BRANCH  24  25
ATOM     25  C   UNL     1       1.567   8.326  20.284  0.00  0.00    +0.000 A 
ATOM     26  C   UNL     1       0.837   8.291  21.470  0.00  0.00    +0.000 A 
ATOM     27  C   UNL     1      -0.078   9.308  21.750  0.00  0.00    +0.000 A 
ATOM     28  C   UNL     1      -0.314  10.311  20.815  0.00  0.00    +0.000 A 
ATOM     29  C   UNL     1       0.269  10.230  19.551  0.00  0.00    +0.000 A 
ATOM     30  C   UNL     1       1.188   9.214  19.259  0.00  0.00    +0.000 A 
ATOM     31  C   UNL     1       1.705   9.066  17.854  0.00  0.00    +0.000 C 
ENDBRANCH  24  25
ENDBRANCH   6  24
TORSDOF 9
ENDMDL
MODEL 9
REMARK VINA RESULT:      -7.1      4.336      7.522
REMARK  Name = 
REMARK  11 active torsions:
REMARK  status: ('A' for Active; 'I' for Inactive)
REMARK    1  A    between atoms: C_1  and  C_2
REMARK    2  A    between atoms: C_2  and  C_3
REMARK    3  A    between atoms: C_3  and  C_4
REMARK    4  A    between atoms: C_4  and  C_5
REMARK    5  A    between atoms: C_5  and  N_6
REMARK    6  A    between atoms: N_9  and  S_10
REMARK    7  A    between atoms: S_10  and  C_13
REMARK    8  A    between atoms: C_15  and  N_16
REMARK    9  A    between atoms: C_21  and  O_22
REMARK   10  A    between atoms: O_22  and  C_23
REMARK   11  A    between atoms: C_28  and  C_29
REMARK                            x       y       z     vdW  Elec       q    Type
REMARK                         _______ _______ _______ _____ _____    ______ ____
ROOT
ATOM      1  C   UNL     1       6.506   5.008  16.753  0.00  0.00    +0.000 A 
ATOM      2  C   UNL     1       7.320   4.893  15.602  0.00  0.00    +0.000 A 
ATOM      3  C   UNL     1       6.817   5.150  14.326  0.00  0.00    +0.000 A 
ATOM      4  C   UNL     1       5.491   5.541  14.169  0.00  0.00    +0.000 A 
ATOM      5  C   UNL     1       4.684   5.678  15.303  0.00  0.00    +0.000 A 
ATOM      6  C   UNL     1       5.164   5.414  16.606  0.00  0.00    +0.000 A 
ENDROOT
BRANCH   1   7
ATOM      7  S   UNL     1       7.390   4.721  18.286  0.00  0.00    +0.000 S 
ATOM      8  O   UNL     1       8.665   4.108  17.995  0.00  0.00    +0.000 OA
ATOM      9  O   UNL     1       6.491   4.057  19.207  0.00  0.00    +0.000 OA
BRANCH   7  13
ATOM     10  N   UNL     1       8.381   8.468  18.856  0.00  0.00    +0.000 N 
ATOM     11  C   UNL     1       8.024   7.374  18.110  0.00  0.00    +0.000 C 
ATOM     12  O   UNL     1       8.042   7.367  16.892  0.00  0.00    +0.000 OA
ATOM     13  N   UNL     1       7.699   6.259  18.873  0.00  0.00    +0.000 N 
ATOM     14  H   UNL     1       8.410   8.397  19.861  0.00  0.00    +0.000 HD
ATOM     15  H   UNL     1       7.646   6.298  19.882  0.00  0.00    +0.000 HD
BRANCH  10  16
ATOM     16  C   UNL     1       8.736   9.736  18.248  0.00  0.00    +0.000 C 
BRANCH  16  17
ATOM     17  C   UNL     1       9.540  10.649  19.182  0.00  0.00    +0.000 C 
BRANCH  17  18
ATOM     18  C   UNL     1       9.845  12.009  18.549  0.00  0.00    +0.000 C 
BRANCH  18  20
ATOM     19  C   UNL     1      12.136  11.673  19.542  0.00  0.00    +0.000 C 
ATOM     20  C   UNL     1      11.053  12.685  19.202  0.00  0.00    +0.000 C 
ENDBRANCH  18  20
ENDBRANCH  17  18
ENDBRANCH  16  17
ENDBRANCH  10  16
ENDBRANCH   7  13
ENDBRANCH   1   7
BRANCH   3  21
ATOM     21  N   UNL     1       7.695   5.031  13.156  0.00  0.00    +0.000 N 
ATOM     22  O   UNL     1       8.739   5.699  13.142  0.00  0.00    +0.000 OA
ATOM     23  O   UNL     1       7.337   4.271  12.245  0.00  0.00    +0.000 OA
ENDBRANCH   3  21
BRANCH   6  24
ATOM     24  O   UNL     1       4.210   5.740  17.544  0.00  0.00    +0.000 OA
BRANCH  24  25
ATOM     25  C   UNL     1       3.223   4.874  17.938  0.00  0.00    +0.000 A 
ATOM     26  C   UNL     1       2.977   3.649  17.320  0.00  0.00    +0.000 A 
ATOM     27  C   UNL     1       2.171   2.703  17.955  0.00  0.00    +0.000 A 
ATOM     28  C   UNL     1       1.555   3.010  19.164  0.00  0.00    +0.000 A 
ATOM     29  C   UNL     1       1.643   4.304  19.677  0.00  0.00    +0.000 A 
ATOM     30  C   UNL     1       2.448   5.261  19.047  0.00  0.00    +0.000 A 
ATOM     31  C   UNL     1       2.427   6.684  19.537  0.00  0.00    +0.000 C 
ENDBRANCH  24  25
ENDBRANCH   6  24
TORSDOF 9
ENDMDL
