MODEL 1
REMARK VINA RESULT:      -8.1      0.000      0.000
REMARK  Name = 
REMARK  14 active torsions:
REMARK  status: ('A' for Active; 'I' for Inactive)
REMARK    1  A    between atoms: C_1  and  C_2
REMARK    2  A    between atoms: C_2  and  C_22
REMARK    3  A    between atoms: N_3  and  O_4
REMARK    4  A    between atoms: O_4  and  C_5
REMARK    5  A    between atoms: C_5  and  C_6
REMARK    6  A    between atoms: C_9  and  C_10
REMARK    7  A    between atoms: C_16  and  C_17
REMARK    8  A    between atoms: C_25  and  C_26
REMARK    9  A    between atoms: C_26  and  N_27
REMARK   10  A    between atoms: N_27  and  C_28
REMARK   11  A    between atoms: C_28  and  C_29
REMARK   12  A    between atoms: C_29  and  C_30
REMARK   13  A    between atoms: C_30  and  O_32
REMARK   14  A    between atoms: C_33  and  C_34
REMARK                            x       y       z     vdW  Elec       q    Type
REMARK                         _______ _______ _______ _____ _____    ______ ____
ROOT
ATOM      1  C   UNL     1       0.482  10.744  20.267  0.00  0.00    +0.000 C 
ATOM      2  C   UNL     1       0.087  10.181  18.913  0.00  0.00    +0.000 C 
ATOM      3  N   UNL     1       0.835   9.384  18.205  0.00  0.00    +0.000 NA
ENDROOT
BRANCH   2   4
ATOM      4  C   UNL     1      -1.241  10.595  18.376  0.00  0.00    +0.000 A 
ATOM      5  C   UNL     1      -2.072  11.442  19.103  0.00  0.00    +0.000 A 
ATOM      6  C   UNL     1      -3.318  11.798  18.590  0.00  0.00    +0.000 A 
ATOM      7  C   UNL     1      -3.771  11.325  17.340  0.00  0.00    +0.000 A 
ATOM      8  C   UNL     1      -2.930  10.465  16.600  0.00  0.00    +0.000 A 
ATOM      9  C   UNL     1      -3.291   9.841  15.281  0.00  0.00    +0.000 C 
ATOM     10  C   UNL     1      -1.668  10.116  17.132  0.00  0.00    +0.000 A 
BRANCH   7  11
ATOM     11  C   UNL     1      -5.144  11.797  16.894  0.00  0.00    +0.000 C 
BRANCH  11  12
ATOM     12  N   UNL     1      -5.615  12.871  17.777  0.00  0.00    +0.000 NA
ATOM     13  H   UNL     1      -5.143  13.732  17.503  0.00  0.00    +0.000 HD
BRANCH  12  14
ATOM     14  C   UNL     1      -7.068  13.043  17.711  0.00  0.00    +0.000 C 
BRANCH  14  15
ATOM     15  C   UNL     1      -7.635  13.007  19.131  0.00  0.00    +0.000 C 
BRANCH  15  16
ATOM     16  C   UNL     1      -6.732  12.246  20.075  0.00  0.00    +0.000 C 
ATOM     17  O   UNL     1      -6.643  11.034  20.136  0.00  0.00    +0.000 OA
BRANCH  16  18
ATOM     18  O   UNL     1      -6.022  13.068  20.879  0.00  0.00    +0.000 OA
ATOM     19  H   UNL     1      -6.466  13.920  21.066  0.00  0.00    +0.000 HD
ENDBRANCH  16  18
ENDBRANCH  15  16
ENDBRANCH  14  15
ENDBRANCH  12  14
ENDBRANCH  11  12
ENDBRANCH   7  11
ENDBRANCH   2   4
BRANCH   3  20
ATOM     20  O   UNL     1       2.025   9.085  18.879  0.00  0.00    +0.000 OA
BRANCH  20  21
ATOM     21  C   UNL     1       1.899   7.840  19.560  0.00  0.00    +0.000 C 
BRANCH  21  22
ATOM     22  C   UNL     1       2.784   6.849  18.849  0.00  0.00    +0.000 A 
ATOM     23  C   UNL     1       3.578   7.230  17.774  0.00  0.00    +0.000 A 
ATOM     24  C   UNL     1       4.452   6.315  17.180  0.00  0.00    +0.000 A 
ATOM     25  C   UNL     1       4.569   4.985  17.627  0.00  0.00    +0.000 A 
ATOM     26  C   UNL     1       3.682   4.561  18.649  0.00  0.00    +0.000 A 
ATOM     27  C   UNL     1       2.840   5.517  19.270  0.00  0.00    +0.000 A 
BRANCH  25  28
ATOM     28  C   UNL     1       5.628   4.063  17.015  0.00  0.00    +0.000 C 
ATOM     29  C   UNL     1       5.211   3.500  15.648  0.00  0.00    +0.000 C 
ATOM     30  C   UNL     1       5.496   4.445  14.484  0.00  0.00    +0.000 C 
ATOM     31  C   UNL     1       6.957   4.880  14.441  0.00  0.00    +0.000 C 
ATOM     32  C   UNL     1       7.454   5.458  15.760  0.00  0.00    +0.000 C 
ATOM     33  C   UNL     1       7.072   4.620  16.980  0.00  0.00    +0.000 C 
ENDBRANCH  25  28
BRANCH  26  34
ATOM     34  C   UNL     1       3.515   3.139  19.155  0.00  0.00    +0.000 C 
ATOM     35  F   UNL     1       2.598   2.960  20.143  0.00  0.00    +0.000 F 
ATOM     36  F   UNL     1       3.171   2.270  18.163  0.00  0.00    +0.000 F 
ATOM     37  F   UNL     1       4.683   2.652  19.674  0.00  0.00    +0.000 F 
ENDBRANCH  26  34
ENDBRANCH  21  22
ENDBRANCH  20  21
ENDBRANCH   3  20
TORSDOF 12
ENDMDL
MODEL 2
REMARK VINA RESULT:      -8.0      4.777     11.623
REMARK  Name = 
REMARK  14 active torsions:
REMARK  status: ('A' for Active; 'I' for Inactive)
REMARK    1  A    between atoms: C_1  and  C_2
REMARK    2  A    between atoms: C_2  and  C_22
REMARK    3  A    between atoms: N_3  and  O_4
REMARK    4  A    between atoms: O_4  and  C_5
REMARK    5  A    between atoms: C_5  and  C_6
REMARK    6  A    between atoms: C_9  and  C_10
REMARK    7  A    between atoms: C_16  and  C_17
REMARK    8  A    between atoms: C_25  and  C_26
REMARK    9  A    between atoms: C_26  and  N_27
REMARK   10  A    between atoms: N_27  and  C_28
REMARK   11  A    between atoms: C_28  and  C_29
REMARK   12  A    between atoms: C_29  and  C_30
REMARK   13  A    between atoms: C_30  and  O_32
REMARK   14  A    between atoms: C_33  and  C_34
REMARK                            x       y       z     vdW  Elec       q    Type
REMARK                         _______ _______ _______ _____ _____    ______ ____
ROOT
ATOM      1  C   UNL     1       1.867   8.216  17.893  0.00  0.00    +0.000 C 
ATOM      2  C   UNL     1       2.545   7.113  18.687  0.00  0.00    +0.000 C 
ATOM      3  N   UNL     1       2.204   6.763  19.894  0.00  0.00    +0.000 NA
ENDROOT
BRANCH   2   4
ATOM      4  C   UNL     1       3.680   6.410  18.023  0.00  0.00    +0.000 A 
ATOM      5  C   UNL     1       3.532   5.113  17.539  0.00  0.00    +0.000 A 
ATOM      6  C   UNL     1       4.614   4.470  16.941  0.00  0.00    +0.000 A 
ATOM      7  C   UNL     1       5.871   5.096  16.805  0.00  0.00    +0.000 A 
ATOM      8  C   UNL     1       6.025   6.411  17.296  0.00  0.00    +0.000 A 
ATOM      9  C   UNL     1       7.311   7.190  17.271  0.00  0.00    +0.000 C 
ATOM     10  C   UNL     1       4.917   7.053  17.896  0.00  0.00    +0.000 A 
BRANCH   7  11
ATOM     11  C   UNL     1       6.962   4.286  16.127  0.00  0.00    +0.000 C 
BRANCH  11  12
ATOM     12  N   UNL     1       6.399   3.536  14.997  0.00  0.00    +0.000 NA
ATOM     13  H   UNL     1       5.515   3.129  15.300  0.00  0.00    +0.000 HD
BRANCH  12  14
ATOM     14  C   UNL     1       6.192   4.383  13.820  0.00  0.00    +0.000 C 
BRANCH  14  15
ATOM     15  C   UNL     1       6.642   3.616  12.575  0.00  0.00    +0.000 C 
BRANCH  15  16
ATOM     16  C   UNL     1       5.488   2.898  11.914  0.00  0.00    +0.000 C 
ATOM     17  O   UNL     1       4.389   3.377  11.707  0.00  0.00    +0.000 OA
BRANCH  16  18
ATOM     18  O   UNL     1       5.802   1.627  11.578  0.00  0.00    +0.000 OA
ATOM     19  H   UNL     1       5.080   0.985  11.734  0.00  0.00    +0.000 HD
ENDBRANCH  16  18
ENDBRANCH  15  16
ENDBRANCH  14  15
ENDBRANCH  12  14
ENDBRANCH  11  12
ENDBRANCH   7  11
ENDBRANCH   2   4
BRANCH   3  20
ATOM     20  O   UNL     1       1.106   7.510  20.340  0.00  0.00    +0.000 OA
BRANCH  20  21
ATOM     21  C   UNL     1       1.505   8.377  21.398  0.00  0.00    +0.000 C 
BRANCH  21  22
ATOM     22  C   UNL     1       0.493   9.491  21.470  0.00  0.00    +0.000 A 
ATOM     23  C   UNL     1      -0.009   9.933  22.689  0.00  0.00    +0.000 A 
ATOM     24  C   UNL     1      -0.885  11.021  22.740  0.00  0.00    +0.000 A 
ATOM     25  C   UNL     1      -1.300  11.710  21.584  0.00  0.00    +0.000 A 
ATOM     26  C   UNL     1      -0.879  11.195  20.332  0.00  0.00    +0.000 A 
ATOM     27  C   UNL     1       0.048  10.122  20.305  0.00  0.00    +0.000 A 
BRANCH  25  28
ATOM     28  C   UNL     1      -2.166  12.968  21.713  0.00  0.00    +0.000 C 
ATOM     29  C   UNL     1      -3.561  12.675  22.286  0.00  0.00    +0.000 C 
ATOM     30  C   UNL     1      -3.593  12.610  23.811  0.00  0.00    +0.000 C 
ATOM     31  C   UNL     1      -3.024  13.868  24.454  0.00  0.00    +0.000 C 
ATOM     32  C   UNL     1      -1.634  14.231  23.943  0.00  0.00    +0.000 C 
ATOM     33  C   UNL     1      -1.505  14.174  22.422  0.00  0.00    +0.000 C 
ENDBRANCH  25  28
BRANCH  26  34
ATOM     34  C   UNL     1      -1.346  11.668  18.967  0.00  0.00    +0.000 C 
ATOM     35  F   UNL     1      -1.048  12.956  18.647  0.00  0.00    +0.000 F 
ATOM     36  F   UNL     1      -0.848  10.906  17.952  0.00  0.00    +0.000 F 
ATOM     37  F   UNL     1      -2.705  11.588  18.847  0.00  0.00    +0.000 F 
ENDBRANCH  26  34
ENDBRANCH  21  22
ENDBRANCH  20  21
ENDBRANCH   3  20
TORSDOF 12
ENDMDL
MODEL 3
REMARK VINA RESULT:      -8.0      1.878      3.423
REMARK  Name = 
REMARK  14 active torsions:
REMARK  status: ('A' for Active; 'I' for Inactive)
REMARK    1  A    between atoms: C_1  and  C_2
REMARK    2  A    between atoms: C_2  and  C_22
REMARK    3  A    between atoms: N_3  and  O_4
REMARK    4  A    between atoms: O_4  and  C_5
REMARK    5  A    between atoms: C_5  and  C_6
REMARK    6  A    between atoms: C_9  and  C_10
REMARK    7  A    between atoms: C_16  and  C_17
REMARK    8  A    between atoms: C_25  and  C_26
REMARK    9  A    between atoms: C_26  and  N_27
REMARK   10  A    between atoms: N_27  and  C_28
REMARK   11  A    between atoms: C_28  and  C_29
REMARK   12  A    between atoms: C_29  and  C_30
REMARK   13  A    between atoms: C_30  and  O_32
REMARK   14  A    between atoms: C_33  and  C_34
REMARK                            x       y       z     vdW  Elec       q    Type
REMARK                         _______ _______ _______ _____ _____    ______ ____
ROOT
ATOM      1  C   UNL     1      -0.454   9.715  20.361  0.00  0.00    +0.000 C 
ATOM      2  C   UNL     1      -0.450  10.163  18.910  0.00  0.00    +0.000 C 
ATOM      3  N   UNL     1       0.598  10.137  18.138  0.00  0.00    +0.000 NA
ENDROOT
BRANCH   2   4
ATOM      4  C   UNL     1      -1.740  10.673  18.362  0.00  0.00    +0.000 A 
ATOM      5  C   UNL     1      -2.569  11.487  19.129  0.00  0.00    +0.000 A 
ATOM      6  C   UNL     1      -3.779  11.934  18.603  0.00  0.00    +0.000 A 
ATOM      7  C   UNL     1      -4.198  11.589  17.300  0.00  0.00    +0.000 A 
ATOM      8  C   UNL     1      -3.360  10.763  16.520  0.00  0.00    +0.000 A 
ATOM      9  C   UNL     1      -3.690  10.269  15.139  0.00  0.00    +0.000 C 
ATOM     10  C   UNL     1      -2.133  10.320  17.066  0.00  0.00    +0.000 A 
BRANCH   7  11
ATOM     11  C   UNL     1      -5.534  12.151  16.847  0.00  0.00    +0.000 C 
BRANCH  11  12
ATOM     12  N   UNL     1      -6.606  11.661  17.721  0.00  0.00    +0.000 NA
ATOM     13  H   UNL     1      -6.173  11.237  18.541  0.00  0.00    +0.000 HD
BRANCH  12  14
ATOM     14  C   UNL     1      -7.523  12.730  18.123  0.00  0.00    +0.000 C 
BRANCH  14  15
ATOM     15  C   UNL     1      -7.180  13.996  17.336  0.00  0.00    +0.000 C 
BRANCH  15  16
ATOM     16  C   UNL     1      -6.874  15.158  18.252  0.00  0.00    +0.000 C 
ATOM     17  O   UNL     1      -7.402  16.253  18.198  0.00  0.00    +0.000 OA
BRANCH  16  18
ATOM     18  O   UNL     1      -5.915  14.858  19.157  0.00  0.00    +0.000 OA
ATOM     19  H   UNL     1      -5.165  15.486  19.164  0.00  0.00    +0.000 HD
ENDBRANCH  16  18
ENDBRANCH  15  16
ENDBRANCH  14  15
ENDBRANCH  12  14
ENDBRANCH  11  12
ENDBRANCH   7  11
ENDBRANCH   2   4
BRANCH   3  20
ATOM     20  O   UNL     1       1.703   9.603  18.813  0.00  0.00    +0.000 OA
BRANCH  20  21
ATOM     21  C   UNL     1       2.711   9.230  17.877  0.00  0.00    +0.000 C 
BRANCH  21  22
ATOM     22  C   UNL     1       2.961   7.755  18.052  0.00  0.00    +0.000 A 
ATOM     23  C   UNL     1       2.273   7.013  19.006  0.00  0.00    +0.000 A 
ATOM     24  C   UNL     1       2.461   5.631  19.098  0.00  0.00    +0.000 A 
ATOM     25  C   UNL     1       3.340   4.931  18.250  0.00  0.00    +0.000 A 
ATOM     26  C   UNL     1       4.125   5.697  17.350  0.00  0.00    +0.000 A 
ATOM     27  C   UNL     1       3.883   7.089  17.239  0.00  0.00    +0.000 A 
BRANCH  25  28
ATOM     28  C   UNL     1       3.414   3.402  18.318  0.00  0.00    +0.000 C 
ATOM     29  C   UNL     1       3.914   2.890  19.678  0.00  0.00    +0.000 C 
ATOM     30  C   UNL     1       2.817   2.791  20.734  0.00  0.00    +0.000 C 
ATOM     31  C   UNL     1       1.639   1.946  20.263  0.00  0.00    +0.000 C 
ATOM     32  C   UNL     1       1.076   2.390  18.919  0.00  0.00    +0.000 C 
ATOM     33  C   UNL     1       2.147   2.642  17.859  0.00  0.00    +0.000 C 
ENDBRANCH  25  28
BRANCH  26  34
ATOM     34  C   UNL     1       5.252   5.173  16.477  0.00  0.00    +0.000 C 
ATOM     35  F   UNL     1       4.904   4.246  15.545  0.00  0.00    +0.000 F 
ATOM     36  F   UNL     1       5.888   6.168  15.796  0.00  0.00    +0.000 F 
ATOM     37  F   UNL     1       6.223   4.567  17.224  0.00  0.00    +0.000 F 
ENDBRANCH  26  34
ENDBRANCH  21  22
ENDBRANCH  20  21
ENDBRANCH   3  20
TORSDOF 12
ENDMDL
MODEL 4
REMARK VINA RESULT:      -7.9      4.326     11.564
REMARK  Name = 
REMARK  14 active torsions:
REMARK  status: ('A' for Active; 'I' for Inactive)
REMARK    1  A    between atoms: C_1  and  C_2
REMARK    2  A    between atoms: C_2  and  C_22
REMARK    3  A    between atoms: N_3  and  O_4
REMARK    4  A    between atoms: O_4  and  C_5
REMARK    5  A    between atoms: C_5  and  C_6
REMARK    6  A    between atoms: C_9  and  C_10
REMARK    7  A    between atoms: C_16  and  C_17
REMARK    8  A    between atoms: C_25  and  C_26
REMARK    9  A    between atoms: C_26  and  N_27
REMARK   10  A    between atoms: N_27  and  C_28
REMARK   11  A    between atoms: C_28  and  C_29
REMARK   12  A    between atoms: C_29  and  C_30
REMARK   13  A    between atoms: C_30  and  O_32
REMARK   14  A    between atoms: C_33  and  C_34
REMARK                            x       y       z     vdW  Elec       q    Type
REMARK                         _______ _______ _______ _____ _____    ______ ____
ROOT
ATOM      1  C   UNL     1       1.689   7.712  20.806  0.00  0.00    +0.000 C 
ATOM      2  C   UNL     1       1.916   8.027  19.337  0.00  0.00    +0.000 C 
ATOM      3  N   UNL     1       1.485   9.102  18.743  0.00  0.00    +0.000 NA
ENDROOT
BRANCH   2   4
ATOM      4  C   UNL     1       2.674   7.016  18.544  0.00  0.00    +0.000 A 
ATOM      5  C   UNL     1       3.802   7.382  17.815  0.00  0.00    +0.000 A 
ATOM      6  C   UNL     1       4.481   6.424  17.065  0.00  0.00    +0.000 A 
ATOM      7  C   UNL     1       4.061   5.077  17.021  0.00  0.00    +0.000 A 
ATOM      8  C   UNL     1       2.917   4.704  17.759  0.00  0.00    +0.000 A 
ATOM      9  C   UNL     1       2.319   3.324  17.773  0.00  0.00    +0.000 C 
ATOM     10  C   UNL     1       2.241   5.685  18.519  0.00  0.00    +0.000 A 
BRANCH   7  11
ATOM     11  C   UNL     1       4.896   4.134  16.172  0.00  0.00    +0.000 C 
BRANCH  11  12
ATOM     12  N   UNL     1       6.304   4.552  16.197  0.00  0.00    +0.000 NA
ATOM     13  H   UNL     1       6.802   3.935  16.837  0.00  0.00    +0.000 HD
BRANCH  12  14
ATOM     14  C   UNL     1       6.916   4.509  14.867  0.00  0.00    +0.000 C 
BRANCH  14  15
ATOM     15  C   UNL     1       5.856   4.082  13.850  0.00  0.00    +0.000 C 
BRANCH  15  16
ATOM     16  C   UNL     1       6.481   3.619  12.554  0.00  0.00    +0.000 C 
ATOM     17  O   UNL     1       7.235   4.279  11.863  0.00  0.00    +0.000 OA
BRANCH  16  18
ATOM     18  O   UNL     1       6.097   2.367  12.219  0.00  0.00    +0.000 OA
ATOM     19  H   UNL     1       5.269   2.077  12.652  0.00  0.00    +0.000 HD
ENDBRANCH  16  18
ENDBRANCH  15  16
ENDBRANCH  14  15
ENDBRANCH  12  14
ENDBRANCH  11  12
ENDBRANCH   7  11
ENDBRANCH   2   4
BRANCH   3  20
ATOM     20  O   UNL     1       0.824   9.942  19.649  0.00  0.00    +0.000 OA
BRANCH  20  21
ATOM     21  C   UNL     1       0.592  11.215  19.051  0.00  0.00    +0.000 C 
BRANCH  21  22
ATOM     22  C   UNL     1      -0.896  11.359  18.867  0.00  0.00    +0.000 A 
ATOM     23  C   UNL     1      -1.715  11.790  19.904  0.00  0.00    +0.000 A 
ATOM     24  C   UNL     1      -3.081  11.994  19.689  0.00  0.00    +0.000 A 
ATOM     25  C   UNL     1      -3.689  11.774  18.438  0.00  0.00    +0.000 A 
ATOM     26  C   UNL     1      -2.881  11.230  17.407  0.00  0.00    +0.000 A 
ATOM     27  C   UNL     1      -1.489  11.078  17.632  0.00  0.00    +0.000 A 
BRANCH  25  28
ATOM     28  C   UNL     1      -5.165  12.130  18.232  0.00  0.00    +0.000 C 
ATOM     29  C   UNL     1      -6.067  10.890  18.124  0.00  0.00    +0.000 C 
ATOM     30  C   UNL     1      -6.488  10.322  19.476  0.00  0.00    +0.000 C 
ATOM     31  C   UNL     1      -7.154  11.371  20.359  0.00  0.00    +0.000 C 
ATOM     32  C   UNL     1      -6.322  12.637  20.524  0.00  0.00    +0.000 C 
ATOM     33  C   UNL     1      -5.753  13.173  19.212  0.00  0.00    +0.000 C 
ENDBRANCH  25  28
BRANCH  26  34
ATOM     34  C   UNL     1      -3.363  10.755  16.049  0.00  0.00    +0.000 C 
ATOM     35  F   UNL     1      -4.382  11.465  15.494  0.00  0.00    +0.000 F 
ATOM     36  F   UNL     1      -2.367  10.739  15.118  0.00  0.00    +0.000 F 
ATOM     37  F   UNL     1      -3.827   9.470  16.104  0.00  0.00    +0.000 F 
ENDBRANCH  26  34
ENDBRANCH  21  22
ENDBRANCH  20  21
ENDBRANCH   3  20
TORSDOF 12
ENDMDL
MODEL 5
REMARK VINA RESULT:      -7.8      1.214      1.495
REMARK  Name = 
REMARK  14 active torsions:
REMARK  status: ('A' for Active; 'I' for Inactive)
REMARK    1  A    between atoms: C_1  and  C_2
REMARK    2  A    between atoms: C_2  and  C_22
REMARK    3  A    between atoms: N_3  and  O_4
REMARK    4  A    between atoms: O_4  and  C_5
REMARK    5  A    between atoms: C_5  and  C_6
REMARK    6  A    between atoms: C_9  and  C_10
REMARK    7  A    between atoms: C_16  and  C_17
REMARK    8  A    between atoms: C_25  and  C_26
REMARK    9  A    between atoms: C_26  and  N_27
REMARK   10  A    between atoms: N_27  and  C_28
REMARK   11  A    between atoms: C_28  and  C_29
REMARK   12  A    between atoms: C_29  and  C_30
REMARK   13  A    between atoms: C_30  and  O_32
REMARK   14  A    between atoms: C_33  and  C_34
REMARK                            x       y       z     vdW  Elec       q    Type
REMARK                         _______ _______ _______ _____ _____    ______ ____
ROOT
ATOM      1  C   UNL     1       1.221  11.016  19.331  0.00  0.00    +0.000 C 
ATOM      2  C   UNL     1       0.009  10.104  19.403  0.00  0.00    +0.000 C 
ATOM      3  N   UNL     1       0.010   8.929  19.965  0.00  0.00    +0.000 NA
ENDROOT
BRANCH   2   4
ATOM      4  C   UNL     1      -1.245  10.604  18.771  0.00  0.00    +0.000 A 
ATOM      5  C   UNL     1      -2.016  11.582  19.393  0.00  0.00    +0.000 A 
ATOM      6  C   UNL     1      -3.196  12.018  18.792  0.00  0.00    +0.000 A 
ATOM      7  C   UNL     1      -3.640  11.497  17.558  0.00  0.00    +0.000 A 
ATOM      8  C   UNL     1      -2.861  10.505  16.926  0.00  0.00    +0.000 A 
ATOM      9  C   UNL     1      -3.226   9.819  15.638  0.00  0.00    +0.000 C 
ATOM     10  C   UNL     1      -1.664  10.075  17.545  0.00  0.00    +0.000 A 
BRANCH   7  11
ATOM     11  C   UNL     1      -4.938  12.067  17.010  0.00  0.00    +0.000 C 
BRANCH  11  12
ATOM     12  N   UNL     1      -6.042  11.134  17.268  0.00  0.00    +0.000 NA
ATOM     13  H   UNL     1      -5.892  10.305  16.693  0.00  0.00    +0.000 HD
BRANCH  12  14
ATOM     14  C   UNL     1      -6.134  10.764  18.682  0.00  0.00    +0.000 C 
BRANCH  14  15
ATOM     15  C   UNL     1      -7.166  11.667  19.362  0.00  0.00    +0.000 C 
BRANCH  15  16
ATOM     16  C   UNL     1      -7.532  11.159  20.737  0.00  0.00    +0.000 C 
ATOM     17  O   UNL     1      -7.505   9.994  21.086  0.00  0.00    +0.000 OA
BRANCH  16  18
ATOM     18  O   UNL     1      -7.917  12.156  21.565  0.00  0.00    +0.000 OA
ATOM     19  H   UNL     1      -7.538  13.029  21.337  0.00  0.00    +0.000 HD
ENDBRANCH  16  18
ENDBRANCH  15  16
ENDBRANCH  14  15
ENDBRANCH  12  14
ENDBRANCH  11  12
ENDBRANCH   7  11
ENDBRANCH   2   4
BRANCH   3  20
ATOM     20  O   UNL     1       1.261   8.643  20.526  0.00  0.00    +0.000 OA
BRANCH  20  21
ATOM     21  C   UNL     1       1.261   7.326  21.070  0.00  0.00    +0.000 C 
BRANCH  21  22
ATOM     22  C   UNL     1       2.159   6.483  20.203  0.00  0.00    +0.000 A 
ATOM     23  C   UNL     1       2.801   7.018  19.091  0.00  0.00    +0.000 A 
ATOM     24  C   UNL     1       3.693   6.240  18.347  0.00  0.00    +0.000 A 
ATOM     25  C   UNL     1       3.980   4.901  18.674  0.00  0.00    +0.000 A 
ATOM     26  C   UNL     1       3.246   4.318  19.739  0.00  0.00    +0.000 A 
ATOM     27  C   UNL     1       2.384   5.138  20.510  0.00  0.00    +0.000 A 
BRANCH  25  28
ATOM     28  C   UNL     1       5.055   4.137  17.895  0.00  0.00    +0.000 C 
ATOM     29  C   UNL     1       4.789   4.111  16.382  0.00  0.00    +0.000 C 
ATOM     30  C   UNL     1       5.279   5.358  15.653  0.00  0.00    +0.000 C 
ATOM     31  C   UNL     1       6.755   5.634  15.914  0.00  0.00    +0.000 C 
ATOM     32  C   UNL     1       7.108   5.682  17.395  0.00  0.00    +0.000 C 
ATOM     33  C   UNL     1       6.521   4.527  18.204  0.00  0.00    +0.000 C 
ENDBRANCH  25  28
BRANCH  26  34
ATOM     34  C   UNL     1       3.267   2.855  20.144  0.00  0.00    +0.000 C 
ATOM     35  F   UNL     1       4.484   2.342  20.467  0.00  0.00    +0.000 F 
ATOM     36  F   UNL     1       2.457   2.598  21.211  0.00  0.00    +0.000 F 
ATOM     37  F   UNL     1       2.807   2.051  19.139  0.00  0.00    +0.000 F 
ENDBRANCH  26  34
ENDBRANCH  21  22
ENDBRANCH  20  21
ENDBRANCH   3  20
TORSDOF 12
ENDMDL
MODEL 6
REMARK VINA RESULT:      -7.8      4.782     11.700
REMARK  Name = 
REMARK  14 active torsions:
REMARK  status: ('A' for Active; 'I' for Inactive)
REMARK    1  A    between atoms: C_1  and  C_2
REMARK    2  A    between atoms: C_2  and  C_22
REMARK    3  A    between atoms: N_3  and  O_4
REMARK    4  A    between atoms: O_4  and  C_5
REMARK    5  A    between atoms: C_5  and  C_6
REMARK    6  A    between atoms: C_9  and  C_10
REMARK    7  A    between atoms: C_16  and  C_17
REMARK    8  A    between atoms: C_25  and  C_26
REMARK    9  A    between atoms: C_26  and  N_27
REMARK   10  A    between atoms: N_27  and  C_28
REMARK   11  A    between atoms: C_28  and  C_29
REMARK   12  A    between atoms: C_29  and  C_30
REMARK   13  A    between atoms: C_30  and  O_32
REMARK   14  A    between atoms: C_33  and  C_34
REMARK                            x       y       z     vdW  Elec       q    Type
REMARK                         _______ _______ _______ _____ _____    ______ ____
ROOT
ATOM      1  C   UNL     1       1.136   4.991  20.477  0.00  0.00    +0.000 C 
ATOM      2  C   UNL     1       2.048   5.991  19.789  0.00  0.00    +0.000 C 
ATOM      3  N   UNL     1       2.040   7.273  20.022  0.00  0.00    +0.000 NA
ENDROOT
BRANCH   2   4
ATOM      4  C   UNL     1       2.996   5.447  18.775  0.00  0.00    +0.000 A 
ATOM      5  C   UNL     1       2.783   4.199  18.197  0.00  0.00    +0.000 A 
ATOM      6  C   UNL     1       3.694   3.702  17.267  0.00  0.00    +0.000 A 
ATOM      7  C   UNL     1       4.840   4.431  16.884  0.00  0.00    +0.000 A 
ATOM      8  C   UNL     1       5.059   5.697  17.469  0.00  0.00    +0.000 A 
ATOM      9  C   UNL     1       6.256   6.569  17.202  0.00  0.00    +0.000 C 
ATOM     10  C   UNL     1       4.124   6.190  18.408  0.00  0.00    +0.000 A 
BRANCH   7  11
ATOM     11  C   UNL     1       5.746   3.779  15.854  0.00  0.00    +0.000 C 
BRANCH  11  12
ATOM     12  N   UNL     1       5.742   4.565  14.614  0.00  0.00    +0.000 NA
ATOM     13  H   UNL     1       5.426   5.507  14.841  0.00  0.00    +0.000 HD
BRANCH  12  14
ATOM     14  C   UNL     1       7.064   4.608  13.984  0.00  0.00    +0.000 C 
BRANCH  14  15
ATOM     15  C   UNL     1       6.894   4.474  12.470  0.00  0.00    +0.000 C 
BRANCH  15  16
ATOM     16  C   UNL     1       6.020   3.295  12.108  0.00  0.00    +0.000 C 
ATOM     17  O   UNL     1       4.803   3.298  12.105  0.00  0.00    +0.000 OA
BRANCH  16  18
ATOM     18  O   UNL     1       6.745   2.199  11.790  0.00  0.00    +0.000 OA
ATOM     19  H   UNL     1       6.903   2.092  10.831  0.00  0.00    +0.000 HD
ENDBRANCH  16  18
ENDBRANCH  15  16
ENDBRANCH  14  15
ENDBRANCH  12  14
ENDBRANCH  11  12
ENDBRANCH   7  11
ENDBRANCH   2   4
BRANCH   3  20
ATOM     20  O   UNL     1       1.109   7.592  21.019  0.00  0.00    +0.000 OA
BRANCH  20  21
ATOM     21  C   UNL     1       1.569   8.713  21.771  0.00  0.00    +0.000 C 
BRANCH  21  22
ATOM     22  C   UNL     1       0.455   9.727  21.791  0.00  0.00    +0.000 A 
ATOM     23  C   UNL     1      -0.241  10.014  22.959  0.00  0.00    +0.000 A 
ATOM     24  C   UNL     1      -1.216  11.015  22.975  0.00  0.00    +0.000 A 
ATOM     25  C   UNL     1      -1.543  11.767  21.830  0.00  0.00    +0.000 A 
ATOM     26  C   UNL     1      -0.916  11.404  20.611  0.00  0.00    +0.000 A 
ATOM     27  C   UNL     1       0.105  10.420  20.628  0.00  0.00    +0.000 A 
BRANCH  25  28
ATOM     28  C   UNL     1      -2.533  12.931  21.937  0.00  0.00    +0.000 C 
ATOM     29  C   UNL     1      -3.855  12.529  22.609  0.00  0.00    +0.000 C 
ATOM     30  C   UNL     1      -3.799  12.559  24.134  0.00  0.00    +0.000 C 
ATOM     31  C   UNL     1      -3.338  13.911  24.666  0.00  0.00    +0.000 C 
ATOM     32  C   UNL     1      -2.027  14.386  24.053  0.00  0.00    +0.000 C 
ATOM     33  C   UNL     1      -1.973  14.245  22.533  0.00  0.00    +0.000 C 
ENDBRANCH  25  28
BRANCH  26  34
ATOM     34  C   UNL     1      -1.245  11.958  19.236  0.00  0.00    +0.000 C 
ATOM     35  F   UNL     1      -2.556  11.927  18.878  0.00  0.00    +0.000 F 
ATOM     36  F   UNL     1      -0.846  13.252  19.086  0.00  0.00    +0.000 F 
ATOM     37  F   UNL     1      -0.600  11.264  18.250  0.00  0.00    +0.000 F 
ENDBRANCH  26  34
ENDBRANCH  21  22
ENDBRANCH  20  21
ENDBRANCH   3  20
TORSDOF 12
ENDMDL
MODEL 7
REMARK VINA RESULT:      -7.8      4.817     11.705
REMARK  Name = 
REMARK  14 active torsions:
REMARK  status: ('A' for Active; 'I' for Inactive)
REMARK    1  A    between atoms: C_1  and  C_2
REMARK    2  A    between atoms: C_2  and  C_22
REMARK    3  A    between atoms: N_3  and  O_4
REMARK    4  A    between atoms: O_4  and  C_5
REMARK    5  A    between atoms: C_5  and  C_6
REMARK    6  A    between atoms: C_9  and  C_10
REMARK    7  A    between atoms: C_16  and  C_17
REMARK    8  A    between atoms: C_25  and  C_26
REMARK    9  A    between atoms: C_26  and  N_27
REMARK   10  A    between atoms: N_27  and  C_28
REMARK   11  A    between atoms: C_28  and  C_29
REMARK   12  A    between atoms: C_29  and  C_30
REMARK   13  A    between atoms: C_30  and  O_32
REMARK   14  A    between atoms: C_33  and  C_34
REMARK                            x       y       z     vdW  Elec       q    Type
REMARK                         _______ _______ _______ _____ _____    ______ ____
ROOT
ATOM      1  C   UNL     1       1.759   4.586  19.674  0.00  0.00    +0.000 C 
ATOM      2  C   UNL     1       2.606   5.750  19.187  0.00  0.00    +0.000 C 
ATOM      3  N   UNL     1       2.430   6.987  19.554  0.00  0.00    +0.000 NA
ENDROOT
BRANCH   2   4
ATOM      4  C   UNL     1       3.692   5.430  18.217  0.00  0.00    +0.000 A 
ATOM      5  C   UNL     1       3.588   4.333  17.366  0.00  0.00    +0.000 A 
ATOM      6  C   UNL     1       4.625   4.042  16.482  0.00  0.00    +0.000 A 
ATOM      7  C   UNL     1       5.793   4.833  16.417  0.00  0.00    +0.000 A 
ATOM      8  C   UNL     1       5.901   5.946  17.280  0.00  0.00    +0.000 A 
ATOM      9  C   UNL     1       7.099   6.851  17.364  0.00  0.00    +0.000 C 
ATOM     10  C   UNL     1       4.839   6.231  18.168  0.00  0.00    +0.000 A 
BRANCH   7  11
ATOM     11  C   UNL     1       6.842   4.411  15.404  0.00  0.00    +0.000 C 
BRANCH  11  12
ATOM     12  N   UNL     1       6.246   3.503  14.416  0.00  0.00    +0.000 NA
ATOM     13  H   UNL     1       5.264   3.379  14.656  0.00  0.00    +0.000 HD
BRANCH  12  14
ATOM     14  C   UNL     1       6.376   4.012  13.049  0.00  0.00    +0.000 C 
BRANCH  14  15
ATOM     15  C   UNL     1       5.610   3.086  12.102  0.00  0.00    +0.000 C 
BRANCH  15  16
ATOM     16  C   UNL     1       6.507   2.021  11.516  0.00  0.00    +0.000 C 
ATOM     17  O   UNL     1       7.660   2.189  11.164  0.00  0.00    +0.000 OA
BRANCH  16  18
ATOM     18  O   UNL     1       5.881   0.828  11.405  0.00  0.00    +0.000 OA
ATOM     19  H   UNL     1       6.293   0.222  10.757  0.00  0.00    +0.000 HD
ENDBRANCH  16  18
ENDBRANCH  15  16
ENDBRANCH  14  15
ENDBRANCH  12  14
ENDBRANCH  11  12
ENDBRANCH   7  11
ENDBRANCH   2   4
BRANCH   3  20
ATOM     20  O   UNL     1       1.389   7.089  20.485  0.00  0.00    +0.000 OA
BRANCH  20  21
ATOM     21  C   UNL     1       1.732   8.033  21.496  0.00  0.00    +0.000 C 
BRANCH  21  22
ATOM     22  C   UNL     1       0.714   9.142  21.438  0.00  0.00    +0.000 A 
ATOM     23  C   UNL     1       0.175   9.690  22.596  0.00  0.00    +0.000 A 
ATOM     24  C   UNL     1      -0.708  10.772  22.522  0.00  0.00    +0.000 A 
ATOM     25  C   UNL     1      -1.093  11.350  21.297  0.00  0.00    +0.000 A 
ATOM     26  C   UNL     1      -0.633  10.725  20.110  0.00  0.00    +0.000 A 
ATOM     27  C   UNL     1       0.299   9.662  20.208  0.00  0.00    +0.000 A 
BRANCH  25  28
ATOM     28  C   UNL     1      -1.967  12.608  21.286  0.00  0.00    +0.000 C 
ATOM     29  C   UNL     1      -3.141  12.526  22.274  0.00  0.00    +0.000 C 
ATOM     30  C   UNL     1      -2.765  12.913  23.702  0.00  0.00    +0.000 C 
ATOM     31  C   UNL     1      -2.123  14.293  23.774  0.00  0.00    +0.000 C 
ATOM     32  C   UNL     1      -0.942  14.460  22.826  0.00  0.00    +0.000 C 
ATOM     33  C   UNL     1      -1.216  13.955  21.410  0.00  0.00    +0.000 C 
ENDBRANCH  25  28
BRANCH  26  34
ATOM     34  C   UNL     1      -1.062  11.069  18.694  0.00  0.00    +0.000 C 
ATOM     35  F   UNL     1      -2.401  11.059  18.456  0.00  0.00    +0.000 F 
ATOM     36  F   UNL     1      -0.621  12.297  18.300  0.00  0.00    +0.000 F 
ATOM     37  F   UNL     1      -0.542  10.189  17.786  0.00  0.00    +0.000 F 
ENDBRANCH  26  34
ENDBRANCH  21  22
ENDBRANCH  20  21
ENDBRANCH   3  20
TORSDOF 12
ENDMDL
MODEL 8
REMARK VINA RESULT:      -7.7      4.314     11.285
REMARK  Name = 
REMARK  14 active torsions:
REMARK  status: ('A' for Active; 'I' for Inactive)
REMARK    1  A    between atoms: C_1  and  C_2
REMARK    2  A    between atoms: C_2  and  C_22
REMARK    3  A    between atoms: N_3  and  O_4
REMARK    4  A    between atoms: O_4  and  C_5
REMARK    5  A    between atoms: C_5  and  C_6
REMARK    6  A    between atoms: C_9  and  C_10
REMARK    7  A    between atoms: C_16  and  C_17
REMARK    8  A    between atoms: C_25  and  C_26
REMARK    9  A    between atoms: C_26  and  N_27
REMARK   10  A    between atoms: N_27  and  C_28
REMARK   11  A    between atoms: C_28  and  C_29
REMARK   12  A    between atoms: C_29  and  C_30
REMARK   13  A    between atoms: C_30  and  O_32
REMARK   14  A    between atoms: C_33  and  C_34
REMARK                            x       y       z     vdW  Elec       q    Type
REMARK                         _______ _______ _______ _____ _____    ______ ____
ROOT
ATOM      1  C   UNL     1       0.936   9.252  20.472  0.00  0.00    +0.000 C 
ATOM      2  C   UNL     1       1.359   8.863  19.066  0.00  0.00    +0.000 C 
ATOM      3  N   UNL     1       0.959   9.472  17.986  0.00  0.00    +0.000 NA
ENDROOT
BRANCH   2   4
ATOM      4  C   UNL     1       2.280   7.698  18.941  0.00  0.00    +0.000 A 
ATOM      5  C   UNL     1       2.334   6.721  19.931  0.00  0.00    +0.000 A 
ATOM      6  C   UNL     1       3.219   5.652  19.801  0.00  0.00    +0.000 A 
ATOM      7  C   UNL     1       4.071   5.521  18.684  0.00  0.00    +0.000 A 
ATOM      8  C   UNL     1       4.019   6.511  17.678  0.00  0.00    +0.000 A 
ATOM      9  C   UNL     1       4.896   6.538  16.457  0.00  0.00    +0.000 C 
ATOM     10  C   UNL     1       3.114   7.587  17.821  0.00  0.00    +0.000 A 
BRANCH   7  11
ATOM     11  C   UNL     1       4.979   4.304  18.663  0.00  0.00    +0.000 C 
BRANCH  11  12
ATOM     12  N   UNL     1       4.262   3.154  18.098  0.00  0.00    +0.000 NA
ATOM     13  H   UNL     1       4.909   2.645  17.498  0.00  0.00    +0.000 HD
BRANCH  12  14
ATOM     14  C   UNL     1       3.728   2.272  19.138  0.00  0.00    +0.000 C 
BRANCH  14  15
ATOM     15  C   UNL     1       2.358   1.756  18.692  0.00  0.00    +0.000 C 
BRANCH  15  16
ATOM     16  C   UNL     1       1.343   2.871  18.603  0.00  0.00    +0.000 C 
ATOM     17  O   UNL     1       1.239   3.653  17.676  0.00  0.00    +0.000 OA
BRANCH  16  18
ATOM     18  O   UNL     1       0.546   2.927  19.693  0.00  0.00    +0.000 OA
ATOM     19  H   UNL     1       1.033   2.925  20.541  0.00  0.00    +0.000 HD
ENDBRANCH  16  18
ENDBRANCH  15  16
ENDBRANCH  14  15
ENDBRANCH  12  14
ENDBRANCH  11  12
ENDBRANCH   7  11
ENDBRANCH   2   4
BRANCH   3  20
ATOM     20  O   UNL     1       0.127  10.553  18.302  0.00  0.00    +0.000 OA
BRANCH  20  21
ATOM     21  C   UNL     1      -1.160  10.361  17.721  0.00  0.00    +0.000 C 
BRANCH  21  22
ATOM     22  C   UNL     1      -2.141  11.173  18.526  0.00  0.00    +0.000 A 
ATOM     23  C   UNL     1      -3.468  11.301  18.132  0.00  0.00    +0.000 A 
ATOM     24  C   UNL     1      -4.381  11.991  18.935  0.00  0.00    +0.000 A 
ATOM     25  C   UNL     1      -4.012  12.585  20.157  0.00  0.00    +0.000 A 
ATOM     26  C   UNL     1      -2.638  12.553  20.509  0.00  0.00    +0.000 A 
ATOM     27  C   UNL     1      -1.740  11.806  19.706  0.00  0.00    +0.000 A 
BRANCH  25  28
ATOM     28  C   UNL     1      -5.080  13.224  21.050  0.00  0.00    +0.000 C 
ATOM     29  C   UNL     1      -5.384  14.681  20.667  0.00  0.00    +0.000 C 
ATOM     30  C   UNL     1      -6.389  14.816  19.527  0.00  0.00    +0.000 C 
ATOM     31  C   UNL     1      -7.690  14.075  19.815  0.00  0.00    +0.000 C 
ATOM     32  C   UNL     1      -7.480  12.616  20.201  0.00  0.00    +0.000 C 
ATOM     33  C   UNL     1      -6.381  12.407  21.241  0.00  0.00    +0.000 C 
ENDBRANCH  25  28
BRANCH  26  34
ATOM     34  C   UNL     1      -1.998  13.274  21.681  0.00  0.00    +0.000 C 
ATOM     35  F   UNL     1      -2.169  14.623  21.718  0.00  0.00    +0.000 F 
ATOM     36  F   UNL     1      -2.437  12.807  22.884  0.00  0.00    +0.000 F 
ATOM     37  F   UNL     1      -0.642  13.097  21.697  0.00  0.00    +0.000 F 
ENDBRANCH  26  34
ENDBRANCH  21  22
ENDBRANCH  20  21
ENDBRANCH   3  20
TORSDOF 12
ENDMDL
MODEL 9
REMARK VINA RESULT:      -7.7      2.329      3.853
REMARK  Name = 
REMARK  14 active torsions:
REMARK  status: ('A' for Active; 'I' for Inactive)
REMARK    1  A    between atoms: C_1  and  C_2
REMARK    2  A    between atoms: C_2  and  C_22
REMARK    3  A    between atoms: N_3  and  O_4
REMARK    4  A    between atoms: O_4  and  C_5
REMARK    5  A    between atoms: C_5  and  C_6
REMARK    6  A    between atoms: C_9  and  C_10
REMARK    7  A    between atoms: C_16  and  C_17
REMARK    8  A    between atoms: C_25  and  C_26
REMARK    9  A    between atoms: C_26  and  N_27
REMARK   10  A    between atoms: N_27  and  C_28
REMARK   11  A    between atoms: C_28  and  C_29
REMARK   12  A    between atoms: C_29  and  C_30
REMARK   13  A    between atoms: C_30  and  O_32
REMARK   14  A    between atoms: C_33  and  C_34
REMARK                            x       y       z     vdW  Elec       q    Type
REMARK                         _______ _______ _______ _____ _____    ______ ____
ROOT
ATOM      1  C   UNL     1       0.437  12.240  20.810  0.00  0.00    +0.000 C 
ATOM      2  C   UNL     1      -0.384  11.616  19.695  0.00  0.00    +0.000 C 
ATOM      3  N   UNL     1       0.110  10.860  18.756  0.00  0.00    +0.000 NA
ENDROOT
BRANCH   2   4
ATOM      4  C   UNL     1      -1.845  11.914  19.691  0.00  0.00    +0.000 A 
ATOM      5  C   UNL     1      -2.447  12.550  20.773  0.00  0.00    +0.000 A 
ATOM      6  C   UNL     1      -3.818  12.800  20.754  0.00  0.00    +0.000 A 
ATOM      7  C   UNL     1      -4.628  12.427  19.660  0.00  0.00    +0.000 A 
ATOM      8  C   UNL     1      -4.021  11.780  18.562  0.00  0.00    +0.000 A 
ATOM      9  C   UNL     1      -4.756  11.279  17.349  0.00  0.00    +0.000 C 
ATOM     10  C   UNL     1      -2.628  11.538  18.593  0.00  0.00    +0.000 A 
BRANCH   7  11
ATOM     11  C   UNL     1      -6.105  12.765  19.765  0.00  0.00    +0.000 C 
BRANCH  11  12
ATOM     12  N   UNL     1      -6.486  12.915  21.175  0.00  0.00    +0.000 NA
ATOM     13  H   UNL     1      -5.677  13.273  21.681  0.00  0.00    +0.000 HD
BRANCH  12  14
ATOM     14  C   UNL     1      -7.631  13.811  21.344  0.00  0.00    +0.000 C 
BRANCH  14  15
ATOM     15  C   UNL     1      -7.647  14.324  22.786  0.00  0.00    +0.000 C 
BRANCH  15  16
ATOM     16  C   UNL     1      -7.340  13.223  23.774  0.00  0.00    +0.000 C 
ATOM     17  O   UNL     1      -7.916  12.153  23.835  0.00  0.00    +0.000 OA
BRANCH  16  18
ATOM     18  O   UNL     1      -6.340  13.559  24.620  0.00  0.00    +0.000 OA
ATOM     19  H   UNL     1      -5.872  12.791  25.006  0.00  0.00    +0.000 HD
ENDBRANCH  16  18
ENDBRANCH  15  16
ENDBRANCH  14  15
ENDBRANCH  12  14
ENDBRANCH  11  12
ENDBRANCH   7  11
ENDBRANCH   2   4
BRANCH   3  20
ATOM     20  O   UNL     1       1.485  10.670  18.940  0.00  0.00    +0.000 OA
BRANCH  20  21
ATOM     21  C   UNL     1       2.036   9.988  17.816  0.00  0.00    +0.000 C 
BRANCH  21  22
ATOM     22  C   UNL     1       2.421   8.606  18.274  0.00  0.00    +0.000 A 
ATOM     23  C   UNL     1       1.876   8.048  19.425  0.00  0.00    +0.000 A 
ATOM     24  C   UNL     1       2.186   6.734  19.789  0.00  0.00    +0.000 A 
ATOM     25  C   UNL     1       3.051   5.924  19.028  0.00  0.00    +0.000 A 
ATOM     26  C   UNL     1       3.694   6.524  17.915  0.00  0.00    +0.000 A 
ATOM     27  C   UNL     1       3.329   7.840  17.536  0.00  0.00    +0.000 A 
BRANCH  25  28
ATOM     28  C   UNL     1       3.257   4.455  19.411  0.00  0.00    +0.000 C 
ATOM     29  C   UNL     1       2.668   4.110  20.787  0.00  0.00    +0.000 C 
ATOM     30  C   UNL     1       1.176   3.793  20.751  0.00  0.00    +0.000 C 
ATOM     31  C   UNL     1       0.846   2.688  19.754  0.00  0.00    +0.000 C 
ATOM     32  C   UNL     1       1.391   2.954  18.356  0.00  0.00    +0.000 C 
ATOM     33  C   UNL     1       2.848   3.413  18.343  0.00  0.00    +0.000 C 
ENDBRANCH  25  28
BRANCH  26  34
ATOM     34  C   UNL     1       4.787   5.897  17.069  0.00  0.00    +0.000 C 
ATOM     35  F   UNL     1       5.817   5.326  17.750  0.00  0.00    +0.000 F 
ATOM     36  F   UNL     1       4.310   4.931  16.234  0.00  0.00    +0.000 F 
ATOM     37  F   UNL     1       5.381   6.820  16.253  0.00  0.00    +0.000 F 
ENDBRANCH  26  34
ENDBRANCH  21  22
ENDBRANCH  20  21
ENDBRANCH   3  20
TORSDOF 12
ENDMDL
