MODEL 1
REMARK VINA RESULT:      -8.2      0.000      0.000
REMARK  Name = 
REMARK  7 active torsions:
REMARK  status: ('A' for Active; 'I' for Inactive)
REMARK    1  A    between atoms: C_1  and  O_2
REMARK    2  A    between atoms: O_2  and  C_3
REMARK    3  A    between atoms: C_6  and  S_7
REMARK    4  A    between atoms: S_7  and  N_10
REMARK    5  A    between atoms: C_14  and  C_16
REMARK    6  A    between atoms: C_16  and  O_17
REMARK    7  A    between atoms: O_17  and  C_18
REMARK                            x       y       z     vdW  Elec       q    Type
REMARK                         _______ _______ _______ _____ _____    ______ ____
ROOT
ATOM      1  N   UNL     1       1.995   3.272  18.729  0.00  0.00    +0.000 NA
ATOM      2  C   UNL     1       1.202   3.775  19.887  0.00  0.00    +0.000 C 
ATOM      3  C   UNL     1       1.730   5.104  20.430  0.00  0.00    +0.000 C 
ATOM      4  N   UNL     1       1.908   6.125  19.391  0.00  0.00    +0.000 N 
ATOM      5  C   UNL     1       1.986   7.489  19.691  0.00  0.00    +0.000 C 
ATOM      6  O   UNL     1       2.295   8.326  18.839  0.00  0.00    +0.000 OA
ATOM      7  C   UNL     1       2.512   5.674  18.127  0.00  0.00    +0.000 C 
ATOM      8  C   UNL     1       1.980   4.314  17.641  0.00  0.00    +0.000 C 
ENDROOT
BRANCH   1   9
ATOM      9  S   UNL     1       3.541   2.616  19.033  0.00  0.00    +0.000 S 
ATOM     10  O   UNL     1       3.676   1.416  18.229  0.00  0.00    +0.000 OA
ATOM     11  O   UNL     1       3.725   2.565  20.465  0.00  0.00    +0.000 OA
BRANCH   9  15
ATOM     12  C   UNL     1       6.556   5.641  17.384  0.00  0.00    +0.000 A 
ATOM     13  C   UNL     1       6.260   5.615  18.751  0.00  0.00    +0.000 A 
ATOM     14  C   UNL     1       5.328   4.701  19.258  0.00  0.00    +0.000 A 
ATOM     15  C   UNL     1       4.691   3.811  18.392  0.00  0.00    +0.000 A 
ATOM     16  C   UNL     1       4.988   3.821  17.025  0.00  0.00    +0.000 A 
ATOM     17  C   UNL     1       5.918   4.737  16.529  0.00  0.00    +0.000 A 
BRANCH  12  19
ATOM     18  C   UNL     1       7.670   7.745  17.382  0.00  0.00    +0.000 C 
ATOM     19  O   UNL     1       7.429   6.488  16.763  0.00  0.00    +0.000 OA
ENDBRANCH  12  19
ENDBRANCH   9  15
ENDBRANCH   1   9
BRANCH   5  20
ATOM     20  C   UNL     1       1.701   7.921  21.136  0.00  0.00    +0.000 C 
BRANCH  20  21
ATOM     21  O   UNL     1       0.296   7.995  21.360  0.00  0.00    +0.000 OA
BRANCH  21  22
ATOM     22  C   UNL     1      -0.176   9.249  21.640  0.00  0.00    +0.000 A 
ATOM     23  C   UNL     1      -0.364  10.092  20.542  0.00  0.00    +0.000 A 
ATOM     24  C   UNL     1      -0.867  11.384  20.719  0.00  0.00    +0.000 A 
ATOM     25  C   UNL     1      -1.204  11.829  21.997  0.00  0.00    +0.000 A 
ATOM     26  C   UNL     1      -1.043  10.982  23.092  0.00  0.00    +0.000 A 
ATOM     27  C   UNL     1      -0.533   9.692  22.915  0.00  0.00    +0.000 A 
ENDBRANCH  21  22
ENDBRANCH  20  21
ENDBRANCH   5  20
TORSDOF 6
ENDMDL
MODEL 2
REMARK VINA RESULT:      -8.1      0.387      1.334
REMARK  Name = 
REMARK  7 active torsions:
REMARK  status: ('A' for Active; 'I' for Inactive)
REMARK    1  A    between atoms: C_1  and  O_2
REMARK    2  A    between atoms: O_2  and  C_3
REMARK    3  A    between atoms: C_6  and  S_7
REMARK    4  A    between atoms: S_7  and  N_10
REMARK    5  A    between atoms: C_14  and  C_16
REMARK    6  A    between atoms: C_16  and  O_17
REMARK    7  A    between atoms: O_17  and  C_18
REMARK                            x       y       z     vdW  Elec       q    Type
REMARK                         _______ _______ _______ _____ _____    ______ ____
ROOT
ATOM      1  N   UNL     1       1.917   3.200  18.949  0.00  0.00    +0.000 NA
ATOM      2  C   UNL     1       1.224   3.771  20.138  0.00  0.00    +0.000 C 
ATOM      3  C   UNL     1       1.792   5.129  20.556  0.00  0.00    +0.000 C 
ATOM      4  N   UNL     1       1.879   6.087  19.448  0.00  0.00    +0.000 N 
ATOM      5  C   UNL     1       1.977   7.466  19.660  0.00  0.00    +0.000 C 
ATOM      6  O   UNL     1       2.210   8.251  18.738  0.00  0.00    +0.000 OA
ATOM      7  C   UNL     1       2.374   5.562  18.165  0.00  0.00    +0.000 C 
ATOM      8  C   UNL     1       1.806   4.177  17.806  0.00  0.00    +0.000 C 
ENDROOT
BRANCH   1   9
ATOM      9  S   UNL     1       3.485   2.560  19.158  0.00  0.00    +0.000 S 
ATOM     10  O   UNL     1       3.554   1.314  18.416  0.00  0.00    +0.000 OA
ATOM     11  O   UNL     1       3.791   2.592  20.568  0.00  0.00    +0.000 OA
BRANCH   9  15
ATOM     12  C   UNL     1       6.229   5.579  17.080  0.00  0.00    +0.000 A 
ATOM     13  C   UNL     1       5.560   4.605  16.332  0.00  0.00    +0.000 A 
ATOM     14  C   UNL     1       4.730   3.669  16.965  0.00  0.00    +0.000 A 
ATOM     15  C   UNL     1       4.573   3.713  18.351  0.00  0.00    +0.000 A 
ATOM     16  C   UNL     1       5.228   4.691  19.106  0.00  0.00    +0.000 A 
ATOM     17  C   UNL     1       6.053   5.618  18.466  0.00  0.00    +0.000 A 
BRANCH  12  19
ATOM     18  C   UNL     1       7.601   7.475  17.515  0.00  0.00    +0.000 C 
ATOM     19  O   UNL     1       7.073   6.534  16.589  0.00  0.00    +0.000 OA
ENDBRANCH  12  19
ENDBRANCH   9  15
ENDBRANCH   1   9
BRANCH   5  20
ATOM     20  C   UNL     1       1.816   7.982  21.096  0.00  0.00    +0.000 C 
BRANCH  20  21
ATOM     21  O   UNL     1       0.436   8.152  21.406  0.00  0.00    +0.000 OA
BRANCH  21  22
ATOM     22  C   UNL     1       0.057   9.445  21.653  0.00  0.00    +0.000 A 
ATOM     23  C   UNL     1      -0.688   9.652  22.816  0.00  0.00    +0.000 A 
ATOM     24  C   UNL     1      -1.101  10.939  23.172  0.00  0.00    +0.000 A 
ATOM     25  C   UNL     1      -0.751  12.027  22.373  0.00  0.00    +0.000 A 
ATOM     26  C   UNL     1       0.014  11.826  21.225  0.00  0.00    +0.000 A 
ATOM     27  C   UNL     1       0.421  10.538  20.866  0.00  0.00    +0.000 A 
ENDBRANCH  21  22
ENDBRANCH  20  21
ENDBRANCH   5  20
TORSDOF 6
ENDMDL
MODEL 3
REMARK VINA RESULT:      -8.0      2.788      7.509
REMARK  Name = 
REMARK  7 active torsions:
REMARK  status: ('A' for Active; 'I' for Inactive)
REMARK    1  A    between atoms: C_1  and  O_2
REMARK    2  A    between atoms: O_2  and  C_3
REMARK    3  A    between atoms: C_6  and  S_7
REMARK    4  A    between atoms: S_7  and  N_10
REMARK    5  A    between atoms: C_14  and  C_16
REMARK    6  A    between atoms: C_16  and  O_17
REMARK    7  A    between atoms: O_17  and  C_18
REMARK                            x       y       z     vdW  Elec       q    Type
REMARK                         _______ _______ _______ _____ _____    ______ ____
ROOT
ATOM      1  N   UNL     1       3.103   2.037  19.038  0.00  0.00    +0.000 NA
ATOM      2  C   UNL     1       3.458   2.142  17.595  0.00  0.00    +0.000 C 
ATOM      3  C   UNL     1       3.956   3.537  17.211  0.00  0.00    +0.000 C 
ATOM      4  N   UNL     1       5.024   4.033  18.085  0.00  0.00    +0.000 N 
ATOM      5  C   UNL     1       5.885   5.065  17.701  0.00  0.00    +0.000 C 
ATOM      6  O   UNL     1       6.673   5.585  18.494  0.00  0.00    +0.000 OA
ATOM      7  C   UNL     1       4.851   3.798  19.529  0.00  0.00    +0.000 C 
ATOM      8  C   UNL     1       4.311   2.396  19.864  0.00  0.00    +0.000 C 
ENDROOT
BRANCH   1   9
ATOM      9  S   UNL     1       1.659   2.776  19.571  0.00  0.00    +0.000 S 
ATOM     10  O   UNL     1       1.570   2.583  21.006  0.00  0.00    +0.000 OA
ATOM     11  O   UNL     1       0.592   2.337  18.703  0.00  0.00    +0.000 OA
BRANCH   9  15
ATOM     12  C   UNL     1       2.333   7.242  18.823  0.00  0.00    +0.000 A 
ATOM     13  C   UNL     1       2.431   6.723  20.117  0.00  0.00    +0.000 A 
ATOM     14  C   UNL     1       2.211   5.359  20.354  0.00  0.00    +0.000 A 
ATOM     15  C   UNL     1       1.893   4.516  19.288  0.00  0.00    +0.000 A 
ATOM     16  C   UNL     1       1.806   5.024  17.987  0.00  0.00    +0.000 A 
ATOM     17  C   UNL     1       2.025   6.384  17.762  0.00  0.00    +0.000 A 
BRANCH  12  19
ATOM     18  C   UNL     1       1.366   9.255  17.996  0.00  0.00    +0.000 C 
ATOM     19  O   UNL     1       2.509   8.548  18.462  0.00  0.00    +0.000 OA
ENDBRANCH  12  19
ENDBRANCH   9  15
ENDBRANCH   1   9
BRANCH   5  20
ATOM     20  C   UNL     1       5.801   5.562  16.251  0.00  0.00    +0.000 C 
BRANCH  20  21
ATOM     21  O   UNL     1       7.075   5.458  15.621  0.00  0.00    +0.000 OA
BRANCH  21  22
ATOM     22  C   UNL     1       7.049   4.939  14.354  0.00  0.00    +0.000 A 
ATOM     23  C   UNL     1       6.068   3.976  14.107  0.00  0.00    +0.000 A 
ATOM     24  C   UNL     1       5.941   3.404  12.839  0.00  0.00    +0.000 A 
ATOM     25  C   UNL     1       6.785   3.809  11.806  0.00  0.00    +0.000 A 
ATOM     26  C   UNL     1       7.748   4.788  12.041  0.00  0.00    +0.000 A 
ATOM     27  C   UNL     1       7.880   5.356  13.312  0.00  0.00    +0.000 A 
ENDBRANCH  21  22
ENDBRANCH  20  21
ENDBRANCH   5  20
TORSDOF 6
ENDMDL
MODEL 4
REMARK VINA RESULT:      -8.0      1.646      2.078
REMARK  Name = 
REMARK  7 active torsions:
REMARK  status: ('A' for Active; 'I' for Inactive)
REMARK    1  A    between atoms: C_1  and  O_2
REMARK    2  A    between atoms: O_2  and  C_3
REMARK    3  A    between atoms: C_6  and  S_7
REMARK    4  A    between atoms: S_7  and  N_10
REMARK    5  A    between atoms: C_14  and  C_16
REMARK    6  A    between atoms: C_16  and  O_17
REMARK    7  A    between atoms: O_17  and  C_18
REMARK                            x       y       z     vdW  Elec       q    Type
REMARK                         _______ _______ _______ _____ _____    ______ ____
ROOT
ATOM      1  N   UNL     1       3.023   4.440  18.809  0.00  0.00    +0.000 NA
ATOM      2  C   UNL     1       2.100   4.539  19.975  0.00  0.00    +0.000 C 
ATOM      3  C   UNL     1       2.119   5.923  20.625  0.00  0.00    +0.000 C 
ATOM      4  N   UNL     1       1.925   7.017  19.667  0.00  0.00    +0.000 N 
ATOM      5  C   UNL     1       1.511   8.293  20.063  0.00  0.00    +0.000 C 
ATOM      6  O   UNL     1       1.504   9.247  19.282  0.00  0.00    +0.000 OA
ATOM      7  C   UNL     1       2.653   6.907  18.392  0.00  0.00    +0.000 C 
ATOM      8  C   UNL     1       2.640   5.488  17.796  0.00  0.00    +0.000 C 
ENDROOT
BRANCH   1   9
ATOM      9  S   UNL     1       4.701   4.354  19.111  0.00  0.00    +0.000 S 
ATOM     10  O   UNL     1       5.005   2.995  19.520  0.00  0.00    +0.000 OA
ATOM     11  O   UNL     1       5.055   5.471  19.954  0.00  0.00    +0.000 OA
BRANCH   9  15
ATOM     12  C   UNL     1       6.745   4.972  15.062  0.00  0.00    +0.000 A 
ATOM     13  C   UNL     1       7.004   5.846  16.121  0.00  0.00    +0.000 A 
ATOM     14  C   UNL     1       6.369   5.670  17.358  0.00  0.00    +0.000 A 
ATOM     15  C   UNL     1       5.474   4.613  17.531  0.00  0.00    +0.000 A 
ATOM     16  C   UNL     1       5.218   3.726  16.481  0.00  0.00    +0.000 A 
ATOM     17  C   UNL     1       5.854   3.911  15.251  0.00  0.00    +0.000 A 
BRANCH  12  19
ATOM     18  C   UNL     1       6.789   4.130  12.834  0.00  0.00    +0.000 C 
ATOM     19  O   UNL     1       7.284   5.041  13.808  0.00  0.00    +0.000 OA
ENDBRANCH  12  19
ENDBRANCH   9  15
ENDBRANCH   1   9
BRANCH   5  20
ATOM     20  C   UNL     1       1.089   8.484  21.526  0.00  0.00    +0.000 C 
BRANCH  20  21
ATOM     21  O   UNL     1       1.383   9.811  21.954  0.00  0.00    +0.000 OA
BRANCH  21  22
ATOM     22  C   UNL     1       0.288  10.612  22.139  0.00  0.00    +0.000 A 
ATOM     23  C   UNL     1       0.148  11.674  21.242  0.00  0.00    +0.000 A 
ATOM     24  C   UNL     1      -0.950  12.533  21.329  0.00  0.00    +0.000 A 
ATOM     25  C   UNL     1      -1.923  12.321  22.305  0.00  0.00    +0.000 A 
ATOM     26  C   UNL     1      -1.800  11.247  23.185  0.00  0.00    +0.000 A 
ATOM     27  C   UNL     1      -0.698  10.391  23.102  0.00  0.00    +0.000 A 
ENDBRANCH  21  22
ENDBRANCH  20  21
ENDBRANCH   5  20
TORSDOF 6
ENDMDL
MODEL 5
REMARK VINA RESULT:      -7.9      1.565      2.118
REMARK  Name = 
REMARK  7 active torsions:
REMARK  status: ('A' for Active; 'I' for Inactive)
REMARK    1  A    between atoms: C_1  and  O_2
REMARK    2  A    between atoms: O_2  and  C_3
REMARK    3  A    between atoms: C_6  and  S_7
REMARK    4  A    between atoms: S_7  and  N_10
REMARK    5  A    between atoms: C_14  and  C_16
REMARK    6  A    between atoms: C_16  and  O_17
REMARK    7  A    between atoms: O_17  and  C_18
REMARK                            x       y       z     vdW  Elec       q    Type
REMARK                         _______ _______ _______ _____ _____    ______ ____
ROOT
ATOM      1  N   UNL     1       3.162   4.270  18.812  0.00  0.00    +0.000 NA
ATOM      2  C   UNL     1       2.269   4.460  19.990  0.00  0.00    +0.000 C 
ATOM      3  C   UNL     1       2.307   5.889  20.534  0.00  0.00    +0.000 C 
ATOM      4  N   UNL     1       2.092   6.909  19.502  0.00  0.00    +0.000 N 
ATOM      5  C   UNL     1       1.692   8.212  19.812  0.00  0.00    +0.000 C 
ATOM      6  O   UNL     1       1.668   9.106  18.961  0.00  0.00    +0.000 OA
ATOM      7  C   UNL     1       2.788   6.701  18.221  0.00  0.00    +0.000 C 
ATOM      8  C   UNL     1       2.757   5.241  17.734  0.00  0.00    +0.000 C 
ENDROOT
BRANCH   1   9
ATOM      9  S   UNL     1       4.846   4.199  19.079  0.00  0.00    +0.000 S 
ATOM     10  O   UNL     1       5.169   2.847  19.495  0.00  0.00    +0.000 OA
ATOM     11  O   UNL     1       5.211   5.328  19.903  0.00  0.00    +0.000 OA
BRANCH   9  15
ATOM     12  C   UNL     1       6.697   4.896  14.950  0.00  0.00    +0.000 A 
ATOM     13  C   UNL     1       5.717   3.914  15.125  0.00  0.00    +0.000 A 
ATOM     14  C   UNL     1       5.158   3.687  16.390  0.00  0.00    +0.000 A 
ATOM     15  C   UNL     1       5.584   4.448  17.480  0.00  0.00    +0.000 A 
ATOM     16  C   UNL     1       6.554   5.441  17.312  0.00  0.00    +0.000 A 
ATOM     17  C   UNL     1       7.107   5.658  16.048  0.00  0.00    +0.000 A 
BRANCH  12  19
ATOM     18  C   UNL     1       7.169   4.301  12.693  0.00  0.00    +0.000 C 
ATOM     19  O   UNL     1       7.329   5.205  13.779  0.00  0.00    +0.000 OA
ENDBRANCH  12  19
ENDBRANCH   9  15
ENDBRANCH   1   9
BRANCH   5  20
ATOM     20  C   UNL     1       1.306   8.515  21.266  0.00  0.00    +0.000 C 
BRANCH  20  21
ATOM     21  O   UNL     1      -0.108   8.653  21.382  0.00  0.00    +0.000 OA
BRANCH  21  22
ATOM     22  C   UNL     1      -0.538   9.911  21.709  0.00  0.00    +0.000 A 
ATOM     23  C   UNL     1      -0.692  10.801  20.643  0.00  0.00    +0.000 A 
ATOM     24  C   UNL     1      -1.152  12.101  20.868  0.00  0.00    +0.000 A 
ATOM     25  C   UNL     1      -1.478  12.509  22.161  0.00  0.00    +0.000 A 
ATOM     26  C   UNL     1      -1.350  11.616  23.223  0.00  0.00    +0.000 A 
ATOM     27  C   UNL     1      -0.884  10.317  22.999  0.00  0.00    +0.000 A 
ENDBRANCH  21  22
ENDBRANCH  20  21
ENDBRANCH   5  20
TORSDOF 6
ENDMDL
MODEL 6
REMARK VINA RESULT:      -7.8      1.613      2.278
REMARK  Name = 
REMARK  7 active torsions:
REMARK  status: ('A' for Active; 'I' for Inactive)
REMARK    1  A    between atoms: C_1  and  O_2
REMARK    2  A    between atoms: O_2  and  C_3
REMARK    3  A    between atoms: C_6  and  S_7
REMARK    4  A    between atoms: S_7  and  N_10
REMARK    5  A    between atoms: C_14  and  C_16
REMARK    6  A    between atoms: C_16  and  O_17
REMARK    7  A    between atoms: O_17  and  C_18
REMARK                            x       y       z     vdW  Elec       q    Type
REMARK                         _______ _______ _______ _____ _____    ______ ____
ROOT
ATOM      1  N   UNL     1       3.009   4.416  18.887  0.00  0.00    +0.000 NA
ATOM      2  C   UNL     1       2.130   4.656  20.066  0.00  0.00    +0.000 C 
ATOM      3  C   UNL     1       2.186   6.103  20.558  0.00  0.00    +0.000 C 
ATOM      4  N   UNL     1       1.969   7.088  19.492  0.00  0.00    +0.000 N 
ATOM      5  C   UNL     1       1.583   8.405  19.758  0.00  0.00    +0.000 C 
ATOM      6  O   UNL     1       1.558   9.267  18.877  0.00  0.00    +0.000 OA
ATOM      7  C   UNL     1       2.650   6.827  18.212  0.00  0.00    +0.000 C 
ATOM      8  C   UNL     1       2.602   5.352  17.778  0.00  0.00    +0.000 C 
ENDROOT
BRANCH   1   9
ATOM      9  S   UNL     1       4.696   4.340  19.139  0.00  0.00    +0.000 S 
ATOM     10  O   UNL     1       5.010   3.005  19.612  0.00  0.00    +0.000 OA
ATOM     11  O   UNL     1       5.080   5.500  19.908  0.00  0.00    +0.000 OA
BRANCH   9  15
ATOM     12  C   UNL     1       6.610   4.728  14.998  0.00  0.00    +0.000 A 
ATOM     13  C   UNL     1       6.909   5.655  16.002  0.00  0.00    +0.000 A 
ATOM     14  C   UNL     1       6.315   5.549  17.266  0.00  0.00    +0.000 A 
ATOM     15  C   UNL     1       5.419   4.510  17.523  0.00  0.00    +0.000 A 
ATOM     16  C   UNL     1       5.122   3.571  16.530  0.00  0.00    +0.000 A 
ATOM     17  C   UNL     1       5.719   3.686  15.272  0.00  0.00    +0.000 A 
BRANCH  12  19
ATOM     18  C   UNL     1       6.517   3.828  12.796  0.00  0.00    +0.000 C 
ATOM     19  O   UNL     1       7.107   4.728  13.726  0.00  0.00    +0.000 OA
ENDBRANCH  12  19
ENDBRANCH   9  15
ENDBRANCH   1   9
BRANCH   5  20
ATOM     20  C   UNL     1       1.215   8.762  21.205  0.00  0.00    +0.000 C 
BRANCH  20  21
ATOM     21  O   UNL     1      -0.191   8.968  21.319  0.00  0.00    +0.000 OA
BRANCH  21  22
ATOM     22  C   UNL     1      -0.566  10.266  21.539  0.00  0.00    +0.000 A 
ATOM     23  C   UNL     1      -0.891  10.593  22.858  0.00  0.00    +0.000 A 
ATOM     24  C   UNL     1      -1.260  11.899  23.192  0.00  0.00    +0.000 A 
ATOM     25  C   UNL     1      -1.287  12.887  22.210  0.00  0.00    +0.000 A 
ATOM     26  C   UNL     1      -0.939  12.570  20.898  0.00  0.00    +0.000 A 
ATOM     27  C   UNL     1      -0.575  11.263  20.562  0.00  0.00    +0.000 A 
ENDBRANCH  21  22
ENDBRANCH  20  21
ENDBRANCH   5  20
TORSDOF 6
ENDMDL
MODEL 7
REMARK VINA RESULT:      -7.8      0.682      1.147
REMARK  Name = 
REMARK  7 active torsions:
REMARK  status: ('A' for Active; 'I' for Inactive)
REMARK    1  A    between atoms: C_1  and  O_2
REMARK    2  A    between atoms: O_2  and  C_3
REMARK    3  A    between atoms: C_6  and  S_7
REMARK    4  A    between atoms: S_7  and  N_10
REMARK    5  A    between atoms: C_14  and  C_16
REMARK    6  A    between atoms: C_16  and  O_17
REMARK    7  A    between atoms: O_17  and  C_18
REMARK                            x       y       z     vdW  Elec       q    Type
REMARK                         _______ _______ _______ _____ _____    ______ ____
ROOT
ATOM      1  N   UNL     1       1.984   2.996  19.016  0.00  0.00    +0.000 NA
ATOM      2  C   UNL     1       1.353   3.768  20.123  0.00  0.00    +0.000 C 
ATOM      3  C   UNL     1       1.905   5.190  20.239  0.00  0.00    +0.000 C 
ATOM      4  N   UNL     1       1.891   5.924  18.969  0.00  0.00    +0.000 N 
ATOM      5  C   UNL     1       1.961   7.319  18.912  0.00  0.00    +0.000 C 
ATOM      6  O   UNL     1       2.110   7.921  17.846  0.00  0.00    +0.000 OA
ATOM      7  C   UNL     1       2.317   5.175  17.775  0.00  0.00    +0.000 C 
ATOM      8  C   UNL     1       1.769   3.738  17.722  0.00  0.00    +0.000 C 
ENDROOT
BRANCH   1   9
ATOM      9  S   UNL     1       3.581   2.434  19.231  0.00  0.00    +0.000 S 
ATOM     10  O   UNL     1       3.732   1.224  18.443  0.00  0.00    +0.000 OA
ATOM     11  O   UNL     1       3.859   2.426  20.648  0.00  0.00    +0.000 OA
BRANCH   9  15
ATOM     12  C   UNL     1       6.308   5.585  17.336  0.00  0.00    +0.000 A 
ATOM     13  C   UNL     1       6.031   5.626  18.705  0.00  0.00    +0.000 A 
ATOM     14  C   UNL     1       5.185   4.673  19.288  0.00  0.00    +0.000 A 
ATOM     15  C   UNL     1       4.617   3.676  18.493  0.00  0.00    +0.000 A 
ATOM     16  C   UNL     1       4.899   3.618  17.124  0.00  0.00    +0.000 A 
ATOM     17  C   UNL     1       5.742   4.574  16.553  0.00  0.00    +0.000 A 
BRANCH  12  19
ATOM     18  C   UNL     1       7.601   7.584  17.355  0.00  0.00    +0.000 C 
ATOM     19  O   UNL     1       7.100   6.458  16.646  0.00  0.00    +0.000 OA
ENDBRANCH  12  19
ENDBRANCH   9  15
ENDBRANCH   1   9
BRANCH   5  20
ATOM     20  C   UNL     1       1.878   8.094  20.235  0.00  0.00    +0.000 C 
BRANCH  20  21
ATOM     21  O   UNL     1       1.352   9.398  20.009  0.00  0.00    +0.000 OA
BRANCH  21  22
ATOM     22  C   UNL     1       0.541   9.872  21.006  0.00  0.00    +0.000 A 
ATOM     23  C   UNL     1       0.465   9.087  22.158  0.00  0.00    +0.000 A 
ATOM     24  C   UNL     1      -0.314   9.496  23.243  0.00  0.00    +0.000 A 
ATOM     25  C   UNL     1      -1.005  10.705  23.186  0.00  0.00    +0.000 A 
ATOM     26  C   UNL     1      -0.911  11.504  22.048  0.00  0.00    +0.000 A 
ATOM     27  C   UNL     1      -0.137  11.092  20.960  0.00  0.00    +0.000 A 
ENDBRANCH  21  22
ENDBRANCH  20  21
ENDBRANCH   5  20
TORSDOF 6
ENDMDL
MODEL 8
REMARK VINA RESULT:      -7.8      0.645      1.231
REMARK  Name = 
REMARK  7 active torsions:
REMARK  status: ('A' for Active; 'I' for Inactive)
REMARK    1  A    between atoms: C_1  and  O_2
REMARK    2  A    between atoms: O_2  and  C_3
REMARK    3  A    between atoms: C_6  and  S_7
REMARK    4  A    between atoms: S_7  and  N_10
REMARK    5  A    between atoms: C_14  and  C_16
REMARK    6  A    between atoms: C_16  and  O_17
REMARK    7  A    between atoms: O_17  and  C_18
REMARK                            x       y       z     vdW  Elec       q    Type
REMARK                         _______ _______ _______ _____ _____    ______ ____
ROOT
ATOM      1  N   UNL     1       2.084   3.117  18.916  0.00  0.00    +0.000 NA
ATOM      2  C   UNL     1       1.348   3.852  19.983  0.00  0.00    +0.000 C 
ATOM      3  C   UNL     1       1.890   5.265  20.207  0.00  0.00    +0.000 C 
ATOM      4  N   UNL     1       2.004   6.046  18.970  0.00  0.00    +0.000 N 
ATOM      5  C   UNL     1       2.083   7.442  18.972  0.00  0.00    +0.000 C 
ATOM      6  O   UNL     1       2.339   8.081  17.949  0.00  0.00    +0.000 OA
ATOM      7  C   UNL     1       2.545   5.339  17.798  0.00  0.00    +0.000 C 
ATOM      8  C   UNL     1       2.001   3.908  17.636  0.00  0.00    +0.000 C 
ENDROOT
BRANCH   1   9
ATOM      9  S   UNL     1       3.651   2.538  19.268  0.00  0.00    +0.000 S 
ATOM     10  O   UNL     1       3.794   1.243  18.629  0.00  0.00    +0.000 OA
ATOM     11  O   UNL     1       3.867   2.683  20.688  0.00  0.00    +0.000 OA
BRANCH   9  15
ATOM     12  C   UNL     1       6.448   5.468  17.137  0.00  0.00    +0.000 A 
ATOM     13  C   UNL     1       5.868   4.410  16.431  0.00  0.00    +0.000 A 
ATOM     14  C   UNL     1       5.022   3.501  17.082  0.00  0.00    +0.000 A 
ATOM     15  C   UNL     1       4.759   3.657  18.444  0.00  0.00    +0.000 A 
ATOM     16  C   UNL     1       5.325   4.720  19.156  0.00  0.00    +0.000 A 
ATOM     17  C   UNL     1       6.168   5.619  18.498  0.00  0.00    +0.000 A 
BRANCH  12  19
ATOM     18  C   UNL     1       7.702   7.461  17.493  0.00  0.00    +0.000 C 
ATOM     19  O   UNL     1       7.297   6.409  16.626  0.00  0.00    +0.000 OA
ENDBRANCH  12  19
ENDBRANCH   9  15
ENDBRANCH   1   9
BRANCH   5  20
ATOM     20  C   UNL     1       1.871   8.167  20.308  0.00  0.00    +0.000 C 
BRANCH  20  21
ATOM     21  O   UNL     1       1.269   9.439  20.087  0.00  0.00    +0.000 OA
BRANCH  21  22
ATOM     22  C   UNL     1       0.498   9.899  21.122  0.00  0.00    +0.000 A 
ATOM     23  C   UNL     1      -0.028  11.183  20.969  0.00  0.00    +0.000 A 
ATOM     24  C   UNL     1      -0.850  11.734  21.956  0.00  0.00    +0.000 A 
ATOM     25  C   UNL     1      -1.164  10.990  23.093  0.00  0.00    +0.000 A 
ATOM     26  C   UNL     1      -0.661   9.698  23.237  0.00  0.00    +0.000 A 
ATOM     27  C   UNL     1       0.166   9.150  22.252  0.00  0.00    +0.000 A 
ENDBRANCH  21  22
ENDBRANCH  20  21
ENDBRANCH   5  20
TORSDOF 6
ENDMDL
MODEL 9
REMARK VINA RESULT:      -7.7      2.908      7.589
REMARK  Name = 
REMARK  7 active torsions:
REMARK  status: ('A' for Active; 'I' for Inactive)
REMARK    1  A    between atoms: C_1  and  O_2
REMARK    2  A    between atoms: O_2  and  C_3
REMARK    3  A    between atoms: C_6  and  S_7
REMARK    4  A    between atoms: S_7  and  N_10
REMARK    5  A    between atoms: C_14  and  C_16
REMARK    6  A    between atoms: C_16  and  O_17
REMARK    7  A    between atoms: O_17  and  C_18
REMARK                            x       y       z     vdW  Elec       q    Type
REMARK                         _______ _______ _______ _____ _____    ______ ____
ROOT
ATOM      1  N   UNL     1       2.800   1.926  19.386  0.00  0.00    +0.000 NA
ATOM      2  C   UNL     1       3.241   1.843  17.965  0.00  0.00    +0.000 C 
ATOM      3  C   UNL     1       3.813   3.164  17.448  0.00  0.00    +0.000 C 
ATOM      4  N   UNL     1       4.848   3.731  18.320  0.00  0.00    +0.000 N 
ATOM      5  C   UNL     1       5.768   4.681  17.868  0.00  0.00    +0.000 C 
ATOM      6  O   UNL     1       6.528   5.270  18.640  0.00  0.00    +0.000 OA
ATOM      7  C   UNL     1       4.583   3.680  19.768  0.00  0.00    +0.000 C 
ATOM      8  C   UNL     1       3.971   2.347  20.235  0.00  0.00    +0.000 C 
ENDROOT
BRANCH   1   9
ATOM      9  S   UNL     1       1.357   2.770  19.736  0.00  0.00    +0.000 S 
ATOM     10  O   UNL     1       1.116   2.656  21.162  0.00  0.00    +0.000 OA
ATOM     11  O   UNL     1       0.356   2.345  18.786  0.00  0.00    +0.000 OA
BRANCH   9  15
ATOM     12  C   UNL     1       2.221   7.183  18.880  0.00  0.00    +0.000 A 
ATOM     13  C   UNL     1       1.979   6.296  17.826  0.00  0.00    +0.000 A 
ATOM     14  C   UNL     1       1.728   4.941  18.082  0.00  0.00    +0.000 A 
ATOM     15  C   UNL     1       1.721   4.477  19.399  0.00  0.00    +0.000 A 
ATOM     16  C   UNL     1       1.949   5.359  20.460  0.00  0.00    +0.000 A 
ATOM     17  C   UNL     1       2.199   6.707  20.194  0.00  0.00    +0.000 A 
BRANCH  12  19
ATOM     18  C   UNL     1       1.727   9.259  17.823  0.00  0.00    +0.000 C 
ATOM     19  O   UNL     1       2.491   8.517  18.765  0.00  0.00    +0.000 OA
ENDBRANCH  12  19
ENDBRANCH   9  15
ENDBRANCH   1   9
BRANCH   5  20
ATOM     20  C   UNL     1       5.787   5.000  16.367  0.00  0.00    +0.000 C 
BRANCH  20  21
ATOM     21  O   UNL     1       6.018   3.812  15.615  0.00  0.00    +0.000 OA
BRANCH  21  22
ATOM     22  C   UNL     1       6.393   4.018  14.314  0.00  0.00    +0.000 A 
ATOM     23  C   UNL     1       7.326   5.036  14.101  0.00  0.00    +0.000 A 
ATOM     24  C   UNL     1       7.794   5.309  12.813  0.00  0.00    +0.000 A 
ATOM     25  C   UNL     1       7.344   4.548  11.734  0.00  0.00    +0.000 A 
ATOM     26  C   UNL     1       6.433   3.515  11.947  0.00  0.00    +0.000 A 
ATOM     27  C   UNL     1       5.960   3.247  13.235  0.00  0.00    +0.000 A 
ENDBRANCH  21  22
ENDBRANCH  20  21
ENDBRANCH   5  20
TORSDOF 6
ENDMDL
