MODEL 1
REMARK VINA RESULT:      -8.3      0.000      0.000
REMARK  Name = 
REMARK  9 active torsions:
REMARK  status: ('A' for Active; 'I' for Inactive)
REMARK    1  A    between atoms: C_1  and  C_2
REMARK    2  A    between atoms: C_2  and  C_3
REMARK    3  A    between atoms: C_3  and  N_4
REMARK    4  A    between atoms: C_9  and  C_10
REMARK    5  A    between atoms: N_13  and  C_14
REMARK    6  A    between atoms: C_14  and  C_15
REMARK    7  A    between atoms: N_27  and  C_28
REMARK    8  A    between atoms: C_28  and  C_29
REMARK    9  A    between atoms: C_29  and  C_30
REMARK                            x       y       z     vdW  Elec       q    Type
REMARK                         _______ _______ _______ _____ _____    ______ ____
ROOT
ATOM      1  N   UNL     1       5.070   5.003  17.738  0.00  0.00    +0.000 N 
ATOM      2  C   UNL     1       4.632   6.273  17.326  0.00  0.00    +0.000 A 
ATOM      3  O   UNL     1       5.084   6.871  16.352  0.00  0.00    +0.000 OA
ATOM      4  C   UNL     1       3.582   6.809  18.160  0.00  0.00    +0.000 A 
ATOM      5  N   UNL     1       2.924   8.009  18.052  0.00  0.00    +0.000 NA
ATOM      6  C   UNL     1       2.059   8.027  19.049  0.00  0.00    +0.000 A 
ATOM      7  N   UNL     1       2.144   6.872  19.794  0.00  0.00    +0.000 N 
ATOM      8  C   UNL     1       3.106   6.090  19.219  0.00  0.00    +0.000 A 
ATOM      9  N   UNL     1       3.532   4.831  19.588  0.00  0.00    +0.000 N 
ATOM     10  C   UNL     1       4.534   4.234  18.794  0.00  0.00    +0.000 A 
ATOM     11  O   UNL     1       4.920   3.083  19.018  0.00  0.00    +0.000 OA
ATOM     12  H   UNL     1       1.579   6.649  20.601  0.00  0.00    +0.000 HD
ENDROOT
BRANCH   6  13
ATOM     13  C   UNL     1       1.126   9.148  19.302  0.00  0.00    +0.000 A 
ATOM     14  C   UNL     1       0.493   9.557  20.487  0.00  0.00    +0.000 A 
ATOM     15  N   UNL     1      -0.296  10.622  20.299  0.00  0.00    +0.000 NA
ATOM     16  N   UNL     1      -0.182  10.876  18.975  0.00  0.00    +0.000 N 
ATOM     17  C   UNL     1       0.692  10.037  18.346  0.00  0.00    +0.000 A 
BRANCH  16  18
ATOM     18  C   UNL     1      -0.898  11.993  18.373  0.00  0.00    +0.000 C 
BRANCH  18  19
ATOM     19  C   UNL     1      -2.362  11.708  18.214  0.00  0.00    +0.000 A 
ATOM     20  C   UNL     1      -2.835  10.920  17.162  0.00  0.00    +0.000 A 
ATOM     21  F   UNL     1      -1.973  10.398  16.279  0.00  0.00    +0.000 F 
ATOM     22  C   UNL     1      -4.189  10.627  17.022  0.00  0.00    +0.000 A 
ATOM     23  C   UNL     1      -5.088  11.132  17.952  0.00  0.00    +0.000 A 
ATOM     24  F   UNL     1      -6.388  10.839  17.837  0.00  0.00    +0.000 F 
ATOM     25  C   UNL     1      -4.655  11.927  19.004  0.00  0.00    +0.000 A 
ATOM     26  C   UNL     1      -3.299  12.212  19.121  0.00  0.00    +0.000 A 
ATOM     27  F   UNL     1      -2.885  12.970  20.146  0.00  0.00    +0.000 F 
ENDBRANCH  18  19
ENDBRANCH  16  18
ENDBRANCH   6  13
BRANCH   1  28
ATOM     28  C   UNL     1       6.121   4.385  16.934  0.00  0.00    +0.000 C 
BRANCH  28  30
ATOM     29  C   UNL     1       6.310   4.064  14.442  0.00  0.00    +0.000 C 
ATOM     30  C   UNL     1       5.552   3.678  15.702  0.00  0.00    +0.000 C 
ENDBRANCH  28  30
ENDBRANCH   1  28
BRANCH   9  31
ATOM     31  C   UNL     1       2.965   4.065  20.696  0.00  0.00    +0.000 C 
BRANCH  31  32
ATOM     32  C   UNL     1       1.487   3.742  20.473  0.00  0.00    +0.000 C 
ATOM     33  C   UNL     1       1.304   2.615  19.469  0.00  0.00    +0.000 C 
ENDBRANCH  31  32
ENDBRANCH   9  31
TORSDOF 7
ENDMDL
MODEL 2
REMARK VINA RESULT:      -8.0      1.075      1.240
REMARK  Name = 
REMARK  9 active torsions:
REMARK  status: ('A' for Active; 'I' for Inactive)
REMARK    1  A    between atoms: C_1  and  C_2
REMARK    2  A    between atoms: C_2  and  C_3
REMARK    3  A    between atoms: C_3  and  N_4
REMARK    4  A    between atoms: C_9  and  C_10
REMARK    5  A    between atoms: N_13  and  C_14
REMARK    6  A    between atoms: C_14  and  C_15
REMARK    7  A    between atoms: N_27  and  C_28
REMARK    8  A    between atoms: C_28  and  C_29
REMARK    9  A    between atoms: C_29  and  C_30
REMARK                            x       y       z     vdW  Elec       q    Type
REMARK                         _______ _______ _______ _____ _____    ______ ____
ROOT
ATOM      1  N   UNL     1       5.249   4.703  16.856  0.00  0.00    +0.000 N 
ATOM      2  C   UNL     1       5.152   6.102  16.944  0.00  0.00    +0.000 A 
ATOM      3  O   UNL     1       5.992   6.877  16.492  0.00  0.00    +0.000 OA
ATOM      4  C   UNL     1       3.953   6.547  17.614  0.00  0.00    +0.000 A 
ATOM      5  N   UNL     1       3.536   7.829  17.873  0.00  0.00    +0.000 NA
ATOM      6  C   UNL     1       2.384   7.703  18.506  0.00  0.00    +0.000 A 
ATOM      7  N   UNL     1       2.050   6.376  18.660  0.00  0.00    +0.000 N 
ATOM      8  C   UNL     1       3.044   5.640  18.080  0.00  0.00    +0.000 A 
ATOM      9  N   UNL     1       3.147   4.270  17.957  0.00  0.00    +0.000 N 
ATOM     10  C   UNL     1       4.279   3.768  17.281  0.00  0.00    +0.000 A 
ATOM     11  O   UNL     1       4.409   2.559  17.071  0.00  0.00    +0.000 OA
ATOM     12  H   UNL     1       1.213   6.028  19.103  0.00  0.00    +0.000 HD
ENDROOT
BRANCH   6  13
ATOM     13  C   UNL     1       1.574   8.855  18.965  0.00  0.00    +0.000 A 
ATOM     14  C   UNL     1       0.985   9.113  20.214  0.00  0.00    +0.000 A 
ATOM     15  N   UNL     1       0.314  10.271  20.228  0.00  0.00    +0.000 NA
ATOM     16  N   UNL     1       0.458  10.740  18.967  0.00  0.00    +0.000 N 
ATOM     17  C   UNL     1       1.239   9.938  18.187  0.00  0.00    +0.000 A 
BRANCH  16  18
ATOM     18  C   UNL     1      -0.135  12.014  18.581  0.00  0.00    +0.000 C 
BRANCH  18  19
ATOM     19  C   UNL     1      -1.628  12.013  18.727  0.00  0.00    +0.000 A 
ATOM     20  C   UNL     1      -2.446  11.394  17.779  0.00  0.00    +0.000 A 
ATOM     21  F   UNL     1      -1.896  10.781  16.722  0.00  0.00    +0.000 F 
ATOM     22  C   UNL     1      -3.831  11.364  17.920  0.00  0.00    +0.000 A 
ATOM     23  C   UNL     1      -4.409  11.963  19.030  0.00  0.00    +0.000 A 
ATOM     24  F   UNL     1      -5.738  11.921  19.184  0.00  0.00    +0.000 F 
ATOM     25  C   UNL     1      -3.628  12.596  19.987  0.00  0.00    +0.000 A 
ATOM     26  C   UNL     1      -2.247  12.620  19.823  0.00  0.00    +0.000 A 
ATOM     27  F   UNL     1      -1.497  13.222  20.757  0.00  0.00    +0.000 F 
ENDBRANCH  18  19
ENDBRANCH  16  18
ENDBRANCH   6  13
BRANCH   1  28
ATOM     28  C   UNL     1       6.428   4.173  16.177  0.00  0.00    +0.000 C 
BRANCH  28  30
ATOM     29  C   UNL     1       6.983   4.776  13.794  0.00  0.00    +0.000 C 
ATOM     30  C   UNL     1       6.150   3.885  14.700  0.00  0.00    +0.000 C 
ENDBRANCH  28  30
ENDBRANCH   1  28
BRANCH   9  31
ATOM     31  C   UNL     1       2.130   3.327  18.420  0.00  0.00    +0.000 C 
BRANCH  31  32
ATOM     32  C   UNL     1       2.302   2.977  19.898  0.00  0.00    +0.000 C 
ATOM     33  C   UNL     1       1.148   3.503  20.737  0.00  0.00    +0.000 C 
ENDBRANCH  31  32
ENDBRANCH   9  31
TORSDOF 7
ENDMDL
MODEL 3
REMARK VINA RESULT:      -8.0      0.609      1.763
REMARK  Name = 
REMARK  9 active torsions:
REMARK  status: ('A' for Active; 'I' for Inactive)
REMARK    1  A    between atoms: C_1  and  C_2
REMARK    2  A    between atoms: C_2  and  C_3
REMARK    3  A    between atoms: C_3  and  N_4
REMARK    4  A    between atoms: C_9  and  C_10
REMARK    5  A    between atoms: N_13  and  C_14
REMARK    6  A    between atoms: C_14  and  C_15
REMARK    7  A    between atoms: N_27  and  C_28
REMARK    8  A    between atoms: C_28  and  C_29
REMARK    9  A    between atoms: C_29  and  C_30
REMARK                            x       y       z     vdW  Elec       q    Type
REMARK                         _______ _______ _______ _____ _____    ______ ____
ROOT
ATOM      1  N   UNL     1       5.008   4.938  17.836  0.00  0.00    +0.000 N 
ATOM      2  C   UNL     1       4.544   6.181  17.375  0.00  0.00    +0.000 A 
ATOM      3  O   UNL     1       4.936   6.720  16.342  0.00  0.00    +0.000 OA
ATOM      4  C   UNL     1       3.544   6.768  18.236  0.00  0.00    +0.000 A 
ATOM      5  N   UNL     1       2.878   7.960  18.095  0.00  0.00    +0.000 NA
ATOM      6  C   UNL     1       2.074   8.039  19.140  0.00  0.00    +0.000 A 
ATOM      7  N   UNL     1       2.205   6.931  19.946  0.00  0.00    +0.000 N 
ATOM      8  C   UNL     1       3.133   6.115  19.362  0.00  0.00    +0.000 A 
ATOM      9  N   UNL     1       3.583   4.879  19.780  0.00  0.00    +0.000 N 
ATOM     10  C   UNL     1       4.537   4.234  18.966  0.00  0.00    +0.000 A 
ATOM     11  O   UNL     1       4.938   3.099  19.236  0.00  0.00    +0.000 OA
ATOM     12  H   UNL     1       1.689   6.758  20.796  0.00  0.00    +0.000 HD
ENDROOT
BRANCH   6  13
ATOM     13  C   UNL     1       1.155   9.175  19.379  0.00  0.00    +0.000 A 
ATOM     14  C   UNL     1       0.564   9.634  20.568  0.00  0.00    +0.000 A 
ATOM     15  N   UNL     1      -0.226  10.695  20.365  0.00  0.00    +0.000 NA
ATOM     16  N   UNL     1      -0.156  10.896  19.029  0.00  0.00    +0.000 N 
ATOM     17  C   UNL     1       0.693  10.028  18.404  0.00  0.00    +0.000 A 
BRANCH  16  18
ATOM     18  C   UNL     1      -0.887  11.992  18.408  0.00  0.00    +0.000 C 
BRANCH  18  19
ATOM     19  C   UNL     1      -2.346  11.682  18.249  0.00  0.00    +0.000 A 
ATOM     20  C   UNL     1      -3.291  12.163  19.159  0.00  0.00    +0.000 A 
ATOM     21  F   UNL     1      -2.898  12.922  20.190  0.00  0.00    +0.000 F 
ATOM     22  C   UNL     1      -4.650  11.903  19.005  0.00  0.00    +0.000 A 
ATOM     23  C   UNL     1      -5.073  11.148  17.920  0.00  0.00    +0.000 A 
ATOM     24  F   UNL     1      -6.379  10.910  17.752  0.00  0.00    +0.000 F 
ATOM     25  C   UNL     1      -4.162  10.645  17.001  0.00  0.00    +0.000 A 
ATOM     26  C   UNL     1      -2.809  10.912  17.179  0.00  0.00    +0.000 A 
ATOM     27  F   UNL     1      -1.935  10.434  16.282  0.00  0.00    +0.000 F 
ENDBRANCH  18  19
ENDBRANCH  16  18
ENDBRANCH   6  13
BRANCH   1  28
ATOM     28  C   UNL     1       6.012   4.272  17.010  0.00  0.00    +0.000 C 
BRANCH  28  30
ATOM     29  C   UNL     1       7.463   5.508  18.658  0.00  0.00    +0.000 C 
ATOM     30  C   UNL     1       7.427   4.751  17.341  0.00  0.00    +0.000 C 
ENDBRANCH  28  30
ENDBRANCH   1  28
BRANCH   9  31
ATOM     31  C   UNL     1       3.084   4.182  20.964  0.00  0.00    +0.000 C 
BRANCH  31  32
ATOM     32  C   UNL     1       2.099   3.069  20.602  0.00  0.00    +0.000 C 
ATOM     33  C   UNL     1       0.770   3.630  20.122  0.00  0.00    +0.000 C 
ENDBRANCH  31  32
ENDBRANCH   9  31
TORSDOF 7
ENDMDL
MODEL 4
REMARK VINA RESULT:      -8.0      2.181      3.052
REMARK  Name = 
REMARK  9 active torsions:
REMARK  status: ('A' for Active; 'I' for Inactive)
REMARK    1  A    between atoms: C_1  and  C_2
REMARK    2  A    between atoms: C_2  and  C_3
REMARK    3  A    between atoms: C_3  and  N_4
REMARK    4  A    between atoms: C_9  and  C_10
REMARK    5  A    between atoms: N_13  and  C_14
REMARK    6  A    between atoms: C_14  and  C_15
REMARK    7  A    between atoms: N_27  and  C_28
REMARK    8  A    between atoms: C_28  and  C_29
REMARK    9  A    between atoms: C_29  and  C_30
REMARK                            x       y       z     vdW  Elec       q    Type
REMARK                         _______ _______ _______ _____ _____    ______ ____
ROOT
ATOM      1  N   UNL     1       4.076   4.878  17.669  0.00  0.00    +0.000 N 
ATOM      2  C   UNL     1       3.720   6.238  17.680  0.00  0.00    +0.000 A 
ATOM      3  O   UNL     1       4.014   7.031  16.788  0.00  0.00    +0.000 OA
ATOM      4  C   UNL     1       2.960   6.616  18.848  0.00  0.00    +0.000 A 
ATOM      5  N   UNL     1       2.450   7.846  19.183  0.00  0.00    +0.000 NA
ATOM      6  C   UNL     1       1.840   7.670  20.341  0.00  0.00    +0.000 A 
ATOM      7  N   UNL     1       1.943   6.361  20.757  0.00  0.00    +0.000 N 
ATOM      8  C   UNL     1       2.646   5.687  19.798  0.00  0.00    +0.000 A 
ATOM      9  N   UNL     1       2.982   4.350  19.752  0.00  0.00    +0.000 N 
ATOM     10  C   UNL     1       3.697   3.906  18.621  0.00  0.00    +0.000 A 
ATOM     11  O   UNL     1       3.975   2.713  18.473  0.00  0.00    +0.000 OA
ATOM     12  H   UNL     1       1.550   5.982  21.605  0.00  0.00    +0.000 HD
ENDROOT
BRANCH   6  13
ATOM     13  C   UNL     1       1.136   8.752  21.066  0.00  0.00    +0.000 A 
ATOM     14  C   UNL     1       1.223   9.155  22.409  0.00  0.00    +0.000 A 
ATOM     15  N   UNL     1       0.405  10.179  22.685  0.00  0.00    +0.000 NA
ATOM     16  N   UNL     1      -0.225  10.411  21.511  0.00  0.00    +0.000 N 
ATOM     17  C   UNL     1       0.212   9.600  20.502  0.00  0.00    +0.000 A 
BRANCH  16  18
ATOM     18  C   UNL     1      -1.208  11.481  21.399  0.00  0.00    +0.000 C 
BRANCH  18  19
ATOM     19  C   UNL     1      -0.691  12.644  20.605  0.00  0.00    +0.000 A 
ATOM     20  C   UNL     1      -0.856  12.703  19.219  0.00  0.00    +0.000 A 
ATOM     21  F   UNL     1      -1.493  11.712  18.580  0.00  0.00    +0.000 F 
ATOM     22  C   UNL     1      -0.404  13.790  18.476  0.00  0.00    +0.000 A 
ATOM     23  C   UNL     1       0.224  14.839  19.132  0.00  0.00    +0.000 A 
ATOM     24  F   UNL     1       0.644  15.899  18.429  0.00  0.00    +0.000 F 
ATOM     25  C   UNL     1       0.415  14.811  20.507  0.00  0.00    +0.000 A 
ATOM     26  C   UNL     1      -0.039  13.711  21.227  0.00  0.00    +0.000 A 
ATOM     27  F   UNL     1       0.137  13.694  22.556  0.00  0.00    +0.000 F 
ENDBRANCH  18  19
ENDBRANCH  16  18
ENDBRANCH   6  13
BRANCH   1  28
ATOM     28  C   UNL     1       4.834   4.414  16.511  0.00  0.00    +0.000 C 
BRANCH  28  30
ATOM     29  C   UNL     1       7.082   4.898  15.481  0.00  0.00    +0.000 C 
ATOM     30  C   UNL     1       6.344   4.503  16.749  0.00  0.00    +0.000 C 
ENDBRANCH  28  30
ENDBRANCH   1  28
BRANCH   9  31
ATOM     31  C   UNL     1       2.585   3.369  20.761  0.00  0.00    +0.000 C 
BRANCH  31  32
ATOM     32  C   UNL     1       1.081   3.096  20.736  0.00  0.00    +0.000 C 
ATOM     33  C   UNL     1       0.631   2.555  19.388  0.00  0.00    +0.000 C 
ENDBRANCH  31  32
ENDBRANCH   9  31
TORSDOF 7
ENDMDL
MODEL 5
REMARK VINA RESULT:      -8.0      4.445      9.937
REMARK  Name = 
REMARK  9 active torsions:
REMARK  status: ('A' for Active; 'I' for Inactive)
REMARK    1  A    between atoms: C_1  and  C_2
REMARK    2  A    between atoms: C_2  and  C_3
REMARK    3  A    between atoms: C_3  and  N_4
REMARK    4  A    between atoms: C_9  and  C_10
REMARK    5  A    between atoms: N_13  and  C_14
REMARK    6  A    between atoms: C_14  and  C_15
REMARK    7  A    between atoms: N_27  and  C_28
REMARK    8  A    between atoms: C_28  and  C_29
REMARK    9  A    between atoms: C_29  and  C_30
REMARK                            x       y       z     vdW  Elec       q    Type
REMARK                         _______ _______ _______ _____ _____    ______ ____
ROOT
ATOM      1  N   UNL     1      -1.999  12.372  21.452  0.00  0.00    +0.000 N 
ATOM      2  C   UNL     1      -0.904  11.578  21.833  0.00  0.00    +0.000 A 
ATOM      3  O   UNL     1      -0.452  11.536  22.975  0.00  0.00    +0.000 OA
ATOM      4  C   UNL     1      -0.360  10.801  20.744  0.00  0.00    +0.000 A 
ATOM      5  N   UNL     1       0.697   9.924  20.755  0.00  0.00    +0.000 NA
ATOM      6  C   UNL     1       0.793   9.475  19.517  0.00  0.00    +0.000 A 
ATOM      7  N   UNL     1      -0.172  10.038  18.712  0.00  0.00    +0.000 N 
ATOM      8  C   UNL     1      -0.916  10.873  19.499  0.00  0.00    +0.000 A 
ATOM      9  N   UNL     1      -2.010  11.639  19.154  0.00  0.00    +0.000 N 
ATOM     10  C   UNL     1      -2.611  12.398  20.179  0.00  0.00    +0.000 A 
ATOM     11  O   UNL     1      -3.634  13.056  19.967  0.00  0.00    +0.000 OA
ATOM     12  H   UNL     1      -0.306   9.845  17.731  0.00  0.00    +0.000 HD
ENDROOT
BRANCH   6  13
ATOM     13  C   UNL     1       1.808   8.487  19.083  0.00  0.00    +0.000 A 
ATOM     14  C   UNL     1       2.597   8.443  17.922  0.00  0.00    +0.000 A 
ATOM     15  N   UNL     1       3.394   7.368  17.892  0.00  0.00    +0.000 NA
ATOM     16  N   UNL     1       3.089   6.711  19.035  0.00  0.00    +0.000 N 
ATOM     17  C   UNL     1       2.167   7.369  19.797  0.00  0.00    +0.000 A 
BRANCH  16  18
ATOM     18  C   UNL     1       3.770   5.469  19.376  0.00  0.00    +0.000 C 
BRANCH  18  19
ATOM     19  C   UNL     1       4.775   5.069  18.337  0.00  0.00    +0.000 A 
ATOM     20  C   UNL     1       4.375   4.501  17.125  0.00  0.00    +0.000 A 
ATOM     21  F   UNL     1       3.072   4.314  16.874  0.00  0.00    +0.000 F 
ATOM     22  C   UNL     1       5.298   4.151  16.144  0.00  0.00    +0.000 A 
ATOM     23  C   UNL     1       6.648   4.374  16.378  0.00  0.00    +0.000 A 
ATOM     24  F   UNL     1       7.541   4.060  15.432  0.00  0.00    +0.000 F 
ATOM     25  C   UNL     1       7.083   4.927  17.574  0.00  0.00    +0.000 A 
ATOM     26  C   UNL     1       6.143   5.262  18.544  0.00  0.00    +0.000 A 
ATOM     27  F   UNL     1       6.569   5.807  19.692  0.00  0.00    +0.000 F 
ENDBRANCH  18  19
ENDBRANCH  16  18
ENDBRANCH   6  13
BRANCH   1  28
ATOM     28  C   UNL     1      -2.616  13.177  22.502  0.00  0.00    +0.000 C 
BRANCH  28  30
ATOM     29  C   UNL     1      -4.013  13.056  24.595  0.00  0.00    +0.000 C 
ATOM     30  C   UNL     1      -3.678  12.390  23.271  0.00  0.00    +0.000 C 
ENDBRANCH  28  30
ENDBRANCH   1  28
BRANCH   9  31
ATOM     31  C   UNL     1      -2.613  11.655  17.823  0.00  0.00    +0.000 C 
BRANCH  31  32
ATOM     32  C   UNL     1      -3.184  10.290  17.435  0.00  0.00    +0.000 C 
ATOM     33  C   UNL     1      -3.074  10.040  15.939  0.00  0.00    +0.000 C 
ENDBRANCH  31  32
ENDBRANCH   9  31
TORSDOF 7
ENDMDL
MODEL 6
REMARK VINA RESULT:      -7.9      1.886      2.707
REMARK  Name = 
REMARK  9 active torsions:
REMARK  status: ('A' for Active; 'I' for Inactive)
REMARK    1  A    between atoms: C_1  and  C_2
REMARK    2  A    between atoms: C_2  and  C_3
REMARK    3  A    between atoms: C_3  and  N_4
REMARK    4  A    between atoms: C_9  and  C_10
REMARK    5  A    between atoms: N_13  and  C_14
REMARK    6  A    between atoms: C_14  and  C_15
REMARK    7  A    between atoms: N_27  and  C_28
REMARK    8  A    between atoms: C_28  and  C_29
REMARK    9  A    between atoms: C_29  and  C_30
REMARK                            x       y       z     vdW  Elec       q    Type
REMARK                         _______ _______ _______ _____ _____    ______ ____
ROOT
ATOM      1  N   UNL     1       5.308   5.416  17.363  0.00  0.00    +0.000 N 
ATOM      2  C   UNL     1       4.786   6.585  16.786  0.00  0.00    +0.000 A 
ATOM      3  O   UNL     1       5.220   7.094  15.754  0.00  0.00    +0.000 OA
ATOM      4  C   UNL     1       3.671   7.134  17.522  0.00  0.00    +0.000 A 
ATOM      5  N   UNL     1       2.926   8.254  17.249  0.00  0.00    +0.000 NA
ATOM      6  C   UNL     1       2.031   8.325  18.218  0.00  0.00    +0.000 A 
ATOM      7  N   UNL     1       2.181   7.282  19.104  0.00  0.00    +0.000 N 
ATOM      8  C   UNL     1       3.219   6.515  18.652  0.00  0.00    +0.000 A 
ATOM      9  N   UNL     1       3.730   5.350  19.186  0.00  0.00    +0.000 N 
ATOM     10  C   UNL     1       4.799   4.743  18.496  0.00  0.00    +0.000 A 
ATOM     11  O   UNL     1       5.266   3.664  18.871  0.00  0.00    +0.000 OA
ATOM     12  H   UNL     1       1.610   7.116  19.919  0.00  0.00    +0.000 HD
ENDROOT
BRANCH   6  13
ATOM     13  C   UNL     1       1.006   9.390  18.306  0.00  0.00    +0.000 A 
ATOM     14  C   UNL     1      -0.257   9.492  17.698  0.00  0.00    +0.000 A 
ATOM     15  N   UNL     1      -0.885  10.628  18.022  0.00  0.00    +0.000 NA
ATOM     16  N   UNL     1      -0.002  11.265  18.825  0.00  0.00    +0.000 N 
ATOM     17  C   UNL     1       1.132  10.539  19.051  0.00  0.00    +0.000 A 
BRANCH  16  18
ATOM     18  C   UNL     1      -0.332  12.561  19.404  0.00  0.00    +0.000 C 
BRANCH  18  19
ATOM     19  C   UNL     1      -1.169  12.432  20.642  0.00  0.00    +0.000 A 
ATOM     20  C   UNL     1      -2.550  12.636  20.605  0.00  0.00    +0.000 A 
ATOM     21  F   UNL     1      -3.149  12.945  19.446  0.00  0.00    +0.000 F 
ATOM     22  C   UNL     1      -3.339  12.493  21.743  0.00  0.00    +0.000 A 
ATOM     23  C   UNL     1      -2.735  12.137  22.941  0.00  0.00    +0.000 A 
ATOM     24  F   UNL     1      -3.488  11.976  24.036  0.00  0.00    +0.000 F 
ATOM     25  C   UNL     1      -1.364  11.936  23.018  0.00  0.00    +0.000 A 
ATOM     26  C   UNL     1      -0.595  12.092  21.870  0.00  0.00    +0.000 A 
ATOM     27  F   UNL     1       0.728  11.885  21.947  0.00  0.00    +0.000 F 
ENDBRANCH  18  19
ENDBRANCH  16  18
ENDBRANCH   6  13
BRANCH   1  28
ATOM     28  C   UNL     1       6.429   4.791  16.668  0.00  0.00    +0.000 C 
BRANCH  28  30
ATOM     29  C   UNL     1       6.251   4.203  14.223  0.00  0.00    +0.000 C 
ATOM     30  C   UNL     1       5.956   3.755  15.646  0.00  0.00    +0.000 C 
ENDBRANCH  28  30
ENDBRANCH   1  28
BRANCH   9  31
ATOM     31  C   UNL     1       3.189   4.684  20.369  0.00  0.00    +0.000 C 
BRANCH  31  32
ATOM     32  C   UNL     1       1.890   3.936  20.063  0.00  0.00    +0.000 C 
ATOM     33  C   UNL     1       1.412   3.130  21.260  0.00  0.00    +0.000 C 
ENDBRANCH  31  32
ENDBRANCH   9  31
TORSDOF 7
ENDMDL
MODEL 7
REMARK VINA RESULT:      -7.9      2.555      3.748
REMARK  Name = 
REMARK  9 active torsions:
REMARK  status: ('A' for Active; 'I' for Inactive)
REMARK    1  A    between atoms: C_1  and  C_2
REMARK    2  A    between atoms: C_2  and  C_3
REMARK    3  A    between atoms: C_3  and  N_4
REMARK    4  A    between atoms: C_9  and  C_10
REMARK    5  A    between atoms: N_13  and  C_14
REMARK    6  A    between atoms: C_14  and  C_15
REMARK    7  A    between atoms: N_27  and  C_28
REMARK    8  A    between atoms: C_28  and  C_29
REMARK    9  A    between atoms: C_29  and  C_30
REMARK                            x       y       z     vdW  Elec       q    Type
REMARK                         _______ _______ _______ _____ _____    ______ ____
ROOT
ATOM      1  N   UNL     1       4.154   4.706  17.717  0.00  0.00    +0.000 N 
ATOM      2  C   UNL     1       3.794   6.064  17.669  0.00  0.00    +0.000 A 
ATOM      3  O   UNL     1       4.100   6.823  16.752  0.00  0.00    +0.000 OA
ATOM      4  C   UNL     1       3.014   6.484  18.809  0.00  0.00    +0.000 A 
ATOM      5  N   UNL     1       2.495   7.725  19.088  0.00  0.00    +0.000 NA
ATOM      6  C   UNL     1       1.867   7.592  20.242  0.00  0.00    +0.000 A 
ATOM      7  N   UNL     1       1.967   6.301  20.710  0.00  0.00    +0.000 N 
ATOM      8  C   UNL     1       2.687   5.592  19.790  0.00  0.00    +0.000 A 
ATOM      9  N   UNL     1       3.028   4.256  19.801  0.00  0.00    +0.000 N 
ATOM     10  C   UNL     1       3.763   3.771  18.699  0.00  0.00    +0.000 A 
ATOM     11  O   UNL     1       4.047   2.573  18.603  0.00  0.00    +0.000 OA
ATOM     12  H   UNL     1       1.561   5.953  21.566  0.00  0.00    +0.000 HD
ENDROOT
BRANCH   6  13
ATOM     13  C   UNL     1       1.148   8.699  20.912  0.00  0.00    +0.000 A 
ATOM     14  C   UNL     1       1.118   9.078  22.265  0.00  0.00    +0.000 A 
ATOM     15  N   UNL     1       0.329  10.139  22.477  0.00  0.00    +0.000 NA
ATOM     16  N   UNL     1      -0.167  10.419  21.249  0.00  0.00    +0.000 N 
ATOM     17  C   UNL     1       0.329   9.601  20.275  0.00  0.00    +0.000 A 
BRANCH  16  18
ATOM     18  C   UNL     1      -1.078  11.540  21.060  0.00  0.00    +0.000 C 
BRANCH  18  19
ATOM     19  C   UNL     1      -0.350  12.843  20.910  0.00  0.00    +0.000 A 
ATOM     20  C   UNL     1      -0.137  13.682  22.006  0.00  0.00    +0.000 A 
ATOM     21  F   UNL     1      -0.579  13.321  23.219  0.00  0.00    +0.000 F 
ATOM     22  C   UNL     1       0.561  14.881  21.883  0.00  0.00    +0.000 A 
ATOM     23  C   UNL     1       1.056  15.247  20.639  0.00  0.00    +0.000 A 
ATOM     24  F   UNL     1       1.746  16.387  20.514  0.00  0.00    +0.000 F 
ATOM     25  C   UNL     1       0.854  14.444  19.525  0.00  0.00    +0.000 A 
ATOM     26  C   UNL     1       0.148  13.254  19.671  0.00  0.00    +0.000 A 
ATOM     27  F   UNL     1      -0.033  12.476  18.594  0.00  0.00    +0.000 F 
ENDBRANCH  18  19
ENDBRANCH  16  18
ENDBRANCH   6  13
BRANCH   1  28
ATOM     28  C   UNL     1       4.933   4.200  16.590  0.00  0.00    +0.000 C 
BRANCH  28  30
ATOM     29  C   UNL     1       7.070   4.990  15.514  0.00  0.00    +0.000 C 
ATOM     30  C   UNL     1       6.431   4.444  16.781  0.00  0.00    +0.000 C 
ENDBRANCH  28  30
ENDBRANCH   1  28
BRANCH   9  31
ATOM     31  C   UNL     1       2.618   3.314  20.841  0.00  0.00    +0.000 C 
BRANCH  31  32
ATOM     32  C   UNL     1       1.119   3.015  20.786  0.00  0.00    +0.000 C 
ATOM     33  C   UNL     1       0.691   2.545  19.405  0.00  0.00    +0.000 C 
ENDBRANCH  31  32
ENDBRANCH   9  31
TORSDOF 7
ENDMDL
MODEL 8
REMARK VINA RESULT:      -7.9      1.682      2.484
REMARK  Name = 
REMARK  9 active torsions:
REMARK  status: ('A' for Active; 'I' for Inactive)
REMARK    1  A    between atoms: C_1  and  C_2
REMARK    2  A    between atoms: C_2  and  C_3
REMARK    3  A    between atoms: C_3  and  N_4
REMARK    4  A    between atoms: C_9  and  C_10
REMARK    5  A    between atoms: N_13  and  C_14
REMARK    6  A    between atoms: C_14  and  C_15
REMARK    7  A    between atoms: N_27  and  C_28
REMARK    8  A    between atoms: C_28  and  C_29
REMARK    9  A    between atoms: C_29  and  C_30
REMARK                            x       y       z     vdW  Elec       q    Type
REMARK                         _______ _______ _______ _____ _____    ______ ____
ROOT
ATOM      1  N   UNL     1       4.526   4.898  18.052  0.00  0.00    +0.000 N 
ATOM      2  C   UNL     1       4.132   6.244  17.966  0.00  0.00    +0.000 A 
ATOM      3  O   UNL     1       4.558   7.031  17.123  0.00  0.00    +0.000 OA
ATOM      4  C   UNL     1       3.161   6.616  18.968  0.00  0.00    +0.000 A 
ATOM      5  N   UNL     1       2.561   7.833  19.176  0.00  0.00    +0.000 NA
ATOM      6  C   UNL     1       1.757   7.657  20.208  0.00  0.00    +0.000 A 
ATOM      7  N   UNL     1       1.823   6.360  20.668  0.00  0.00    +0.000 N 
ATOM      8  C   UNL     1       2.709   5.694  19.868  0.00  0.00    +0.000 A 
ATOM      9  N   UNL     1       3.089   4.369  19.915  0.00  0.00    +0.000 N 
ATOM     10  C   UNL     1       4.012   3.930  18.942  0.00  0.00    +0.000 A 
ATOM     11  O   UNL     1       4.349   2.745  18.875  0.00  0.00    +0.000 OA
ATOM     12  H   UNL     1       1.295   5.982  21.439  0.00  0.00    +0.000 HD
ENDROOT
BRANCH   6  13
ATOM     13  C   UNL     1       0.899   8.726  20.768  0.00  0.00    +0.000 A 
ATOM     14  C   UNL     1      -0.081   8.675  21.774  0.00  0.00    +0.000 A 
ATOM     15  N   UNL     1      -0.650   9.867  21.987  0.00  0.00    +0.000 NA
ATOM     16  N   UNL     1      -0.043  10.678  21.091  0.00  0.00    +0.000 N 
ATOM     17  C   UNL     1       0.922  10.040  20.364  0.00  0.00    +0.000 A 
BRANCH  16  18
ATOM     18  C   UNL     1      -0.390  12.091  21.019  0.00  0.00    +0.000 C 
BRANCH  18  19
ATOM     19  C   UNL     1      -1.874  12.313  21.055  0.00  0.00    +0.000 A 
ATOM     20  C   UNL     1      -2.537  12.571  22.256  0.00  0.00    +0.000 A 
ATOM     21  F   UNL     1      -1.844  12.633  23.402  0.00  0.00    +0.000 F 
ATOM     22  C   UNL     1      -3.909  12.805  22.297  0.00  0.00    +0.000 A 
ATOM     23  C   UNL     1      -4.632  12.780  21.112  0.00  0.00    +0.000 A 
ATOM     24  F   UNL     1      -5.948  13.023  21.137  0.00  0.00    +0.000 F 
ATOM     25  C   UNL     1      -4.008  12.516  19.900  0.00  0.00    +0.000 A 
ATOM     26  C   UNL     1      -2.637  12.279  19.885  0.00  0.00    +0.000 A 
ATOM     27  F   UNL     1      -2.038  12.037  18.711  0.00  0.00    +0.000 F 
ENDBRANCH  18  19
ENDBRANCH  16  18
ENDBRANCH   6  13
BRANCH   1  28
ATOM     28  C   UNL     1       5.496   4.440  17.061  0.00  0.00    +0.000 C 
BRANCH  28  30
ATOM     29  C   UNL     1       5.754   4.331  14.557  0.00  0.00    +0.000 C 
ATOM     30  C   UNL     1       4.825   4.080  15.734  0.00  0.00    +0.000 C 
ENDBRANCH  28  30
ENDBRANCH   1  28
BRANCH   9  31
ATOM     31  C   UNL     1       2.547   3.393  20.858  0.00  0.00    +0.000 C 
BRANCH  31  32
ATOM     32  C   UNL     1       1.063   3.118  20.611  0.00  0.00    +0.000 C 
ATOM     33  C   UNL     1       0.829   2.492  19.245  0.00  0.00    +0.000 C 
ENDBRANCH  31  32
ENDBRANCH   9  31
TORSDOF 7
ENDMDL
MODEL 9
REMARK VINA RESULT:      -7.8      1.278      3.326
REMARK  Name = 
REMARK  9 active torsions:
REMARK  status: ('A' for Active; 'I' for Inactive)
REMARK    1  A    between atoms: C_1  and  C_2
REMARK    2  A    between atoms: C_2  and  C_3
REMARK    3  A    between atoms: C_3  and  N_4
REMARK    4  A    between atoms: C_9  and  C_10
REMARK    5  A    between atoms: N_13  and  C_14
REMARK    6  A    between atoms: C_14  and  C_15
REMARK    7  A    between atoms: N_27  and  C_28
REMARK    8  A    between atoms: C_28  and  C_29
REMARK    9  A    between atoms: C_29  and  C_30
REMARK                            x       y       z     vdW  Elec       q    Type
REMARK                         _______ _______ _______ _____ _____    ______ ____
ROOT
ATOM      1  N   UNL     1       3.705   4.144  19.426  0.00  0.00    +0.000 N 
ATOM      2  C   UNL     1       2.753   4.850  20.181  0.00  0.00    +0.000 A 
ATOM      3  O   UNL     1       2.192   4.394  21.176  0.00  0.00    +0.000 OA
ATOM      4  C   UNL     1       2.500   6.179  19.678  0.00  0.00    +0.000 A 
ATOM      5  N   UNL     1       1.644   7.136  20.162  0.00  0.00    +0.000 NA
ATOM      6  C   UNL     1       1.778   8.171  19.353  0.00  0.00    +0.000 A 
ATOM      7  N   UNL     1       2.698   7.905  18.363  0.00  0.00    +0.000 N 
ATOM      8  C   UNL     1       3.167   6.640  18.579  0.00  0.00    +0.000 A 
ATOM      9  N   UNL     1       4.120   5.938  17.869  0.00  0.00    +0.000 N 
ATOM     10  C   UNL     1       4.439   4.643  18.328  0.00  0.00    +0.000 A 
ATOM     11  O   UNL     1       5.329   3.979  17.788  0.00  0.00    +0.000 OA
ATOM     12  H   UNL     1       2.977   8.543  17.634  0.00  0.00    +0.000 HD
ENDROOT
BRANCH   6  13
ATOM     13  C   UNL     1       1.035   9.441  19.521  0.00  0.00    +0.000 A 
ATOM     14  C   UNL     1       0.788  10.207  20.673  0.00  0.00    +0.000 A 
ATOM     15  N   UNL     1       0.057  11.297  20.409  0.00  0.00    +0.000 NA
ATOM     16  N   UNL     1      -0.182  11.209  19.081  0.00  0.00    +0.000 N 
ATOM     17  C   UNL     1       0.419  10.128  18.502  0.00  0.00    +0.000 A 
BRANCH  16  18
ATOM     18  C   UNL     1      -0.955  12.240  18.400  0.00  0.00    +0.000 C 
BRANCH  18  19
ATOM     19  C   UNL     1      -2.400  11.864  18.258  0.00  0.00    +0.000 A 
ATOM     20  C   UNL     1      -3.337  12.211  19.234  0.00  0.00    +0.000 A 
ATOM     21  F   UNL     1      -2.949  12.899  20.316  0.00  0.00    +0.000 F 
ATOM     22  C   UNL     1      -4.685  11.890  19.098  0.00  0.00    +0.000 A 
ATOM     23  C   UNL     1      -5.105  11.209  17.964  0.00  0.00    +0.000 A 
ATOM     24  F   UNL     1      -6.402  10.915  17.815  0.00  0.00    +0.000 F 
ATOM     25  C   UNL     1      -4.201  10.839  16.978  0.00  0.00    +0.000 A 
ATOM     26  C   UNL     1      -2.858  11.164  17.138  0.00  0.00    +0.000 A 
ATOM     27  F   UNL     1      -1.991  10.814  16.177  0.00  0.00    +0.000 F 
ENDBRANCH  18  19
ENDBRANCH  16  18
ENDBRANCH   6  13
BRANCH   1  28
ATOM     28  C   UNL     1       4.026   2.795  19.882  0.00  0.00    +0.000 C 
BRANCH  28  30
ATOM     29  C   UNL     1       1.953   1.827  18.825  0.00  0.00    +0.000 C 
ATOM     30  C   UNL     1       3.466   1.728  18.938  0.00  0.00    +0.000 C 
ENDBRANCH  28  30
ENDBRANCH   1  28
BRANCH   9  31
ATOM     31  C   UNL     1       4.855   6.479  16.727  0.00  0.00    +0.000 C 
BRANCH  31  32
ATOM     32  C   UNL     1       6.002   7.391  17.162  0.00  0.00    +0.000 C 
ATOM     33  C   UNL     1       7.334   6.658  17.157  0.00  0.00    +0.000 C 
ENDBRANCH  31  32
ENDBRANCH   9  31
TORSDOF 7
ENDMDL
