MODEL 1
REMARK VINA RESULT:      -7.9      0.000      0.000
REMARK  Name = 
REMARK  6 active torsions:
REMARK  status: ('A' for Active; 'I' for Inactive)
REMARK    1  A    between atoms: C_2  and  C_3
REMARK    2  A    between atoms: C_4  and  C_5
REMARK    3  A    between atoms: N_11  and  C_12
REMARK    4  A    between atoms: C_12  and  C_13
REMARK    5  A    between atoms: C_13  and  O_14
REMARK    6  A    between atoms: C_13  and  C_15
REMARK                            x       y       z     vdW  Elec       q    Type
REMARK                         _______ _______ _______ _____ _____    ______ ____
ROOT
ATOM      1  O   UNL     1       6.581   7.994  16.958  0.00  0.00    +0.000 OA
ATOM      2  C   UNL     1       7.500   7.539  17.631  0.00  0.00    +0.000 C 
ATOM      3  N   UNL     1       7.729   6.199  17.808  0.00  0.00    +0.000 N 
ATOM      4  H   UNL     1       8.408   5.875  18.486  0.00  0.00    +0.000 HD
ENDROOT
BRANCH   2   5
ATOM      5  C   UNL     1       8.483   8.405  18.327  0.00  0.00    +0.000 C 
ATOM      6  C   UNL     1       8.450   9.732  18.132  0.00  0.00    +0.000 C 
BRANCH   6   7
ATOM      7  C   UNL     1       9.443  10.625  18.728  0.00  0.00    +0.000 A 
ATOM      8  C   UNL     1      10.429  11.200  17.919  0.00  0.00    +0.000 A 
ATOM      9  C   UNL     1      11.394  12.043  18.475  0.00  0.00    +0.000 A 
ATOM     10  C   UNL     1      11.377  12.314  19.843  0.00  0.00    +0.000 A 
ATOM     11  C   UNL     1      10.394  11.749  20.653  0.00  0.00    +0.000 A 
ATOM     12  C   UNL     1       9.427  10.904  20.098  0.00  0.00    +0.000 A 
ENDBRANCH   6   7
ENDBRANCH   2   5
BRANCH   3  13
ATOM     13  C   UNL     1       6.826   5.196  17.255  0.00  0.00    +0.000 C 
BRANCH  13  14
ATOM     14  C   UNL     1       6.059   4.440  18.358  0.00  0.00    +0.000 C 
BRANCH  14  15
ATOM     15  C   UNL     1       4.554   4.482  18.154  0.00  0.00    +0.000 A 
ATOM     16  C   UNL     1       3.887   3.354  17.647  0.00  0.00    +0.000 A 
ATOM     17  C   UNL     1       2.512   3.385  17.401  0.00  0.00    +0.000 A 
ATOM     18  C   UNL     1       1.782   4.540  17.666  0.00  0.00    +0.000 A 
ATOM     19  C   UNL     1       2.424   5.661  18.187  0.00  0.00    +0.000 A 
ATOM     20  C   UNL     1       3.800   5.634  18.429  0.00  0.00    +0.000 A 
ENDBRANCH  14  15
BRANCH  14  21
ATOM     21  O   UNL     1       6.427   4.990  19.630  0.00  0.00    +0.000 OA
ATOM     22  H   UNL     1       5.802   5.702  19.839  0.00  0.00    +0.000 HD
ENDBRANCH  14  21
ENDBRANCH  13  14
ENDBRANCH   3  13
TORSDOF 6
ENDMDL
MODEL 2
REMARK VINA RESULT:      -7.8      0.358      1.534
REMARK  Name = 
REMARK  6 active torsions:
REMARK  status: ('A' for Active; 'I' for Inactive)
REMARK    1  A    between atoms: C_2  and  C_3
REMARK    2  A    between atoms: C_4  and  C_5
REMARK    3  A    between atoms: N_11  and  C_12
REMARK    4  A    between atoms: C_12  and  C_13
REMARK    5  A    between atoms: C_13  and  O_14
REMARK    6  A    between atoms: C_13  and  C_15
REMARK                            x       y       z     vdW  Elec       q    Type
REMARK                         _______ _______ _______ _____ _____    ______ ____
ROOT
ATOM      1  O   UNL     1       6.775   7.831  16.666  0.00  0.00    +0.000 OA
ATOM      2  C   UNL     1       7.499   7.417  17.566  0.00  0.00    +0.000 C 
ATOM      3  N   UNL     1       7.527   6.113  17.988  0.00  0.00    +0.000 N 
ATOM      4  H   UNL     1       8.031   5.851  18.828  0.00  0.00    +0.000 HD
ENDROOT
BRANCH   2   5
ATOM      5  C   UNL     1       8.442   8.297  18.299  0.00  0.00    +0.000 C 
ATOM      6  C   UNL     1       8.416   9.621  18.080  0.00  0.00    +0.000 C 
BRANCH   6   7
ATOM      7  C   UNL     1       9.375  10.526  18.713  0.00  0.00    +0.000 A 
ATOM      8  C   UNL     1       9.280  10.782  20.085  0.00  0.00    +0.000 A 
ATOM      9  C   UNL     1      10.179  11.656  20.704  0.00  0.00    +0.000 A 
ATOM     10  C   UNL     1      11.175  12.276  19.952  0.00  0.00    +0.000 A 
ATOM     11  C   UNL     1      11.278  12.021  18.586  0.00  0.00    +0.000 A 
ATOM     12  C   UNL     1      10.379  11.147  17.965  0.00  0.00    +0.000 A 
ENDBRANCH   6   7
ENDBRANCH   2   5
BRANCH   3  13
ATOM     13  C   UNL     1       6.619   5.117  17.431  0.00  0.00    +0.000 C 
BRANCH  13  14
ATOM     14  C   UNL     1       5.872   4.338  18.532  0.00  0.00    +0.000 C 
BRANCH  14  15
ATOM     15  C   UNL     1       4.373   4.285  18.290  0.00  0.00    +0.000 A 
ATOM     16  C   UNL     1       3.659   5.477  18.079  0.00  0.00    +0.000 A 
ATOM     17  C   UNL     1       2.272   5.461  17.906  0.00  0.00    +0.000 A 
ATOM     18  C   UNL     1       1.580   4.254  17.933  0.00  0.00    +0.000 A 
ATOM     19  C   UNL     1       2.274   3.062  18.122  0.00  0.00    +0.000 A 
ATOM     20  C   UNL     1       3.660   3.075  18.300  0.00  0.00    +0.000 A 
ENDBRANCH  14  15
BRANCH  14  21
ATOM     21  O   UNL     1       6.173   4.935  19.800  0.00  0.00    +0.000 OA
ATOM     22  H   UNL     1       5.624   4.500  20.472  0.00  0.00    +0.000 HD
ENDBRANCH  14  21
ENDBRANCH  13  14
ENDBRANCH   3  13
TORSDOF 6
ENDMDL
MODEL 3
REMARK VINA RESULT:      -7.8      0.921      1.732
REMARK  Name = 
REMARK  6 active torsions:
REMARK  status: ('A' for Active; 'I' for Inactive)
REMARK    1  A    between atoms: C_2  and  C_3
REMARK    2  A    between atoms: C_4  and  C_5
REMARK    3  A    between atoms: N_11  and  C_12
REMARK    4  A    between atoms: C_12  and  C_13
REMARK    5  A    between atoms: C_13  and  O_14
REMARK    6  A    between atoms: C_13  and  C_15
REMARK                            x       y       z     vdW  Elec       q    Type
REMARK                         _______ _______ _______ _____ _____    ______ ____
ROOT
ATOM      1  O   UNL     1       6.042   7.853  17.413  0.00  0.00    +0.000 OA
ATOM      2  C   UNL     1       7.233   7.556  17.412  0.00  0.00    +0.000 C 
ATOM      3  N   UNL     1       7.751   6.472  16.752  0.00  0.00    +0.000 N 
ATOM      4  H   UNL     1       8.712   6.187  16.899  0.00  0.00    +0.000 HD
ENDROOT
BRANCH   2   5
ATOM      5  C   UNL     1       8.255   8.358  18.128  0.00  0.00    +0.000 C 
ATOM      6  C   UNL     1       8.278   9.691  17.973  0.00  0.00    +0.000 C 
BRANCH   6   7
ATOM      7  C   UNL     1       9.311  10.521  18.591  0.00  0.00    +0.000 A 
ATOM      8  C   UNL     1       9.324  10.688  19.980  0.00  0.00    +0.000 A 
ATOM      9  C   UNL     1      10.295  11.489  20.585  0.00  0.00    +0.000 A 
ATOM     10  C   UNL     1      11.256  12.128  19.803  0.00  0.00    +0.000 A 
ATOM     11  C   UNL     1      11.251  11.962  18.419  0.00  0.00    +0.000 A 
ATOM     12  C   UNL     1      10.280  11.160  17.811  0.00  0.00    +0.000 A 
ENDBRANCH   6   7
ENDBRANCH   2   5
BRANCH   3  13
ATOM     13  C   UNL     1       6.888   5.529  16.049  0.00  0.00    +0.000 C 
BRANCH  13  14
ATOM     14  C   UNL     1       6.557   4.296  16.913  0.00  0.00    +0.000 C 
BRANCH  14  15
ATOM     15  C   UNL     1       5.197   4.402  17.581  0.00  0.00    +0.000 A 
ATOM     16  C   UNL     1       5.103   4.880  18.899  0.00  0.00    +0.000 A 
ATOM     17  C   UNL     1       3.869   4.940  19.554  0.00  0.00    +0.000 A 
ATOM     18  C   UNL     1       2.711   4.531  18.898  0.00  0.00    +0.000 A 
ATOM     19  C   UNL     1       2.784   4.072  17.585  0.00  0.00    +0.000 A 
ATOM     20  C   UNL     1       4.016   4.007  16.930  0.00  0.00    +0.000 A 
ENDBRANCH  14  15
BRANCH  14  21
ATOM     21  O   UNL     1       7.600   4.123  17.883  0.00  0.00    +0.000 OA
ATOM     22  H   UNL     1       7.190   3.829  18.711  0.00  0.00    +0.000 HD
ENDBRANCH  14  21
ENDBRANCH  13  14
ENDBRANCH   3  13
TORSDOF 6
ENDMDL
MODEL 4
REMARK VINA RESULT:      -7.7      1.163      1.296
REMARK  Name = 
REMARK  6 active torsions:
REMARK  status: ('A' for Active; 'I' for Inactive)
REMARK    1  A    between atoms: C_2  and  C_3
REMARK    2  A    between atoms: C_4  and  C_5
REMARK    3  A    between atoms: N_11  and  C_12
REMARK    4  A    between atoms: C_12  and  C_13
REMARK    5  A    between atoms: C_13  and  O_14
REMARK    6  A    between atoms: C_13  and  C_15
REMARK                            x       y       z     vdW  Elec       q    Type
REMARK                         _______ _______ _______ _____ _____    ______ ____
ROOT
ATOM      1  O   UNL     1       7.676   6.713  16.324  0.00  0.00    +0.000 OA
ATOM      2  C   UNL     1       7.388   7.103  17.451  0.00  0.00    +0.000 C 
ATOM      3  N   UNL     1       6.249   6.735  18.120  0.00  0.00    +0.000 N 
ATOM      4  H   UNL     1       5.985   7.195  18.984  0.00  0.00    +0.000 HD
ENDROOT
BRANCH   2   5
ATOM      5  C   UNL     1       8.259   8.021  18.224  0.00  0.00    +0.000 C 
ATOM      6  C   UNL     1       8.249   9.334  17.945  0.00  0.00    +0.000 C 
BRANCH   6   7
ATOM      7  C   UNL     1       9.145  10.273  18.620  0.00  0.00    +0.000 A 
ATOM      8  C   UNL     1      10.054  11.023  17.866  0.00  0.00    +0.000 A 
ATOM      9  C   UNL     1      10.927  11.914  18.495  0.00  0.00    +0.000 A 
ATOM     10  C   UNL     1      10.894  12.057  19.881  0.00  0.00    +0.000 A 
ATOM     11  C   UNL     1       9.987  11.317  20.637  0.00  0.00    +0.000 A 
ATOM     12  C   UNL     1       9.113  10.424  20.009  0.00  0.00    +0.000 A 
ENDBRANCH   6   7
ENDBRANCH   2   5
BRANCH   3  13
ATOM     13  C   UNL     1       5.239   5.892  17.491  0.00  0.00    +0.000 C 
BRANCH  13  14
ATOM     14  C   UNL     1       5.210   4.476  18.100  0.00  0.00    +0.000 C 
BRANCH  14  15
ATOM     15  C   UNL     1       3.797   3.991  18.376  0.00  0.00    +0.000 A 
ATOM     16  C   UNL     1       3.574   3.021  19.368  0.00  0.00    +0.000 A 
ATOM     17  C   UNL     1       2.291   2.520  19.606  0.00  0.00    +0.000 A 
ATOM     18  C   UNL     1       1.211   2.988  18.862  0.00  0.00    +0.000 A 
ATOM     19  C   UNL     1       1.411   3.963  17.888  0.00  0.00    +0.000 A 
ATOM     20  C   UNL     1       2.694   4.462  17.645  0.00  0.00    +0.000 A 
ENDBRANCH  14  15
BRANCH  14  21
ATOM     21  O   UNL     1       6.002   4.475  19.296  0.00  0.00    +0.000 OA
ATOM     22  H   UNL     1       6.138   3.552  19.563  0.00  0.00    +0.000 HD
ENDBRANCH  14  21
ENDBRANCH  13  14
ENDBRANCH   3  13
TORSDOF 6
ENDMDL
MODEL 5
REMARK VINA RESULT:      -7.6      1.231      1.507
REMARK  Name = 
REMARK  6 active torsions:
REMARK  status: ('A' for Active; 'I' for Inactive)
REMARK    1  A    between atoms: C_2  and  C_3
REMARK    2  A    between atoms: C_4  and  C_5
REMARK    3  A    between atoms: N_11  and  C_12
REMARK    4  A    between atoms: C_12  and  C_13
REMARK    5  A    between atoms: C_13  and  O_14
REMARK    6  A    between atoms: C_13  and  C_15
REMARK                            x       y       z     vdW  Elec       q    Type
REMARK                         _______ _______ _______ _____ _____    ______ ____
ROOT
ATOM      1  O   UNL     1       7.563   6.833  16.492  0.00  0.00    +0.000 OA
ATOM      2  C   UNL     1       7.549   7.000  17.707  0.00  0.00    +0.000 C 
ATOM      3  N   UNL     1       6.746   6.296  18.568  0.00  0.00    +0.000 N 
ATOM      4  H   UNL     1       6.665   6.569  19.540  0.00  0.00    +0.000 HD
ENDROOT
BRANCH   2   5
ATOM      5  C   UNL     1       8.421   7.989  18.386  0.00  0.00    +0.000 C 
ATOM      6  C   UNL     1       8.301   9.292  18.085  0.00  0.00    +0.000 C 
BRANCH   6   7
ATOM      7  C   UNL     1       9.188  10.301  18.663  0.00  0.00    +0.000 A 
ATOM      8  C   UNL     1       9.988  11.081  17.822  0.00  0.00    +0.000 A 
ATOM      9  C   UNL     1      10.851  12.041  18.358  0.00  0.00    +0.000 A 
ATOM     10  C   UNL     1      10.917  12.223  19.738  0.00  0.00    +0.000 A 
ATOM     11  C   UNL     1      10.118  11.452  20.582  0.00  0.00    +0.000 A 
ATOM     12  C   UNL     1       9.254  10.492  20.047  0.00  0.00    +0.000 A 
ENDBRANCH   6   7
ENDBRANCH   2   5
BRANCH   3  13
ATOM     13  C   UNL     1       5.773   5.328  18.075  0.00  0.00    +0.000 C 
BRANCH  13  14
ATOM     14  C   UNL     1       4.324   5.770  18.362  0.00  0.00    +0.000 C 
BRANCH  14  15
ATOM     15  C   UNL     1       3.357   4.599  18.403  0.00  0.00    +0.000 A 
ATOM     16  C   UNL     1       3.673   3.410  17.724  0.00  0.00    +0.000 A 
ATOM     17  C   UNL     1       2.778   2.336  17.703  0.00  0.00    +0.000 A 
ATOM     18  C   UNL     1       1.559   2.432  18.368  0.00  0.00    +0.000 A 
ATOM     19  C   UNL     1       1.238   3.596  19.061  0.00  0.00    +0.000 A 
ATOM     20  C   UNL     1       2.129   4.673  19.080  0.00  0.00    +0.000 A 
ENDBRANCH  14  15
BRANCH  14  21
ATOM     21  O   UNL     1       3.934   6.731  17.371  0.00  0.00    +0.000 OA
ATOM     22  H   UNL     1       3.234   7.284  17.752  0.00  0.00    +0.000 HD
ENDBRANCH  14  21
ENDBRANCH  13  14
ENDBRANCH   3  13
TORSDOF 6
ENDMDL
MODEL 6
REMARK VINA RESULT:      -7.5      1.369      1.697
REMARK  Name = 
REMARK  6 active torsions:
REMARK  status: ('A' for Active; 'I' for Inactive)
REMARK    1  A    between atoms: C_2  and  C_3
REMARK    2  A    between atoms: C_4  and  C_5
REMARK    3  A    between atoms: N_11  and  C_12
REMARK    4  A    between atoms: C_12  and  C_13
REMARK    5  A    between atoms: C_13  and  O_14
REMARK    6  A    between atoms: C_13  and  C_15
REMARK                            x       y       z     vdW  Elec       q    Type
REMARK                         _______ _______ _______ _____ _____    ______ ____
ROOT
ATOM      1  O   UNL     1       7.700   7.099  16.544  0.00  0.00    +0.000 OA
ATOM      2  C   UNL     1       7.767   7.110  17.769  0.00  0.00    +0.000 C 
ATOM      3  N   UNL     1       7.335   6.084  18.569  0.00  0.00    +0.000 N 
ATOM      4  H   UNL     1       7.278   6.200  19.574  0.00  0.00    +0.000 HD
ENDROOT
BRANCH   2   5
ATOM      5  C   UNL     1       8.340   8.250  18.525  0.00  0.00    +0.000 C 
ATOM      6  C   UNL     1       8.460   9.447  17.929  0.00  0.00    +0.000 C 
BRANCH   6   7
ATOM      7  C   UNL     1       9.090  10.583  18.599  0.00  0.00    +0.000 A 
ATOM      8  C   UNL     1       9.273  11.782  17.901  0.00  0.00    +0.000 A 
ATOM      9  C   UNL     1       9.886  12.873  18.521  0.00  0.00    +0.000 A 
ATOM     10  C   UNL     1      10.320  12.770  19.842  0.00  0.00    +0.000 A 
ATOM     11  C   UNL     1      10.135  11.580  20.544  0.00  0.00    +0.000 A 
ATOM     12  C   UNL     1       9.521  10.486  19.925  0.00  0.00    +0.000 A 
ENDBRANCH   6   7
ENDBRANCH   2   5
BRANCH   3  13
ATOM     13  C   UNL     1       6.681   4.908  18.007  0.00  0.00    +0.000 C 
BRANCH  13  14
ATOM     14  C   UNL     1       5.194   5.170  17.696  0.00  0.00    +0.000 C 
BRANCH  14  15
ATOM     15  C   UNL     1       4.302   4.010  18.105  0.00  0.00    +0.000 A 
ATOM     16  C   UNL     1       3.238   3.621  17.272  0.00  0.00    +0.000 A 
ATOM     17  C   UNL     1       2.372   2.592  17.650  0.00  0.00    +0.000 A 
ATOM     18  C   UNL     1       2.561   1.929  18.860  0.00  0.00    +0.000 A 
ATOM     19  C   UNL     1       3.621   2.290  19.688  0.00  0.00    +0.000 A 
ATOM     20  C   UNL     1       4.486   3.322  19.315  0.00  0.00    +0.000 A 
ENDBRANCH  14  15
BRANCH  14  21
ATOM     21  O   UNL     1       5.062   5.458  16.297  0.00  0.00    +0.000 OA
ATOM     22  H   UNL     1       4.353   4.899  15.943  0.00  0.00    +0.000 HD
ENDBRANCH  14  21
ENDBRANCH  13  14
ENDBRANCH   3  13
TORSDOF 6
ENDMDL
MODEL 7
REMARK VINA RESULT:      -7.5      0.815      1.332
REMARK  Name = 
REMARK  6 active torsions:
REMARK  status: ('A' for Active; 'I' for Inactive)
REMARK    1  A    between atoms: C_2  and  C_3
REMARK    2  A    between atoms: C_4  and  C_5
REMARK    3  A    between atoms: N_11  and  C_12
REMARK    4  A    between atoms: C_12  and  C_13
REMARK    5  A    between atoms: C_13  and  O_14
REMARK    6  A    between atoms: C_13  and  C_15
REMARK                            x       y       z     vdW  Elec       q    Type
REMARK                         _______ _______ _______ _____ _____    ______ ____
ROOT
ATOM      1  O   UNL     1       6.143   7.178  16.553  0.00  0.00    +0.000 OA
ATOM      2  C   UNL     1       7.170   7.306  17.211  0.00  0.00    +0.000 C 
ATOM      3  N   UNL     1       7.859   6.258  17.766  0.00  0.00    +0.000 N 
ATOM      4  H   UNL     1       8.616   6.424  18.419  0.00  0.00    +0.000 HD
ENDROOT
BRANCH   2   5
ATOM      5  C   UNL     1       7.792   8.627  17.470  0.00  0.00    +0.000 C 
ATOM      6  C   UNL     1       8.524   8.807  18.580  0.00  0.00    +0.000 C 
BRANCH   6   7
ATOM      7  C   UNL     1       9.093  10.109  18.927  0.00  0.00    +0.000 A 
ATOM      8  C   UNL     1       9.283  11.068  17.926  0.00  0.00    +0.000 A 
ATOM      9  C   UNL     1       9.839  12.312  18.236  0.00  0.00    +0.000 A 
ATOM     10  C   UNL     1      10.207  12.601  19.549  0.00  0.00    +0.000 A 
ATOM     11  C   UNL     1      10.014  11.652  20.552  0.00  0.00    +0.000 A 
ATOM     12  C   UNL     1       9.459  10.406  20.243  0.00  0.00    +0.000 A 
ENDBRANCH   6   7
ENDBRANCH   2   5
BRANCH   3  13
ATOM     13  C   UNL     1       7.361   4.890  17.674  0.00  0.00    +0.000 C 
BRANCH  13  14
ATOM     14  C   UNL     1       6.451   4.527  18.864  0.00  0.00    +0.000 C 
BRANCH  14  15
ATOM     15  C   UNL     1       4.975   4.614  18.515  0.00  0.00    +0.000 A 
ATOM     16  C   UNL     1       4.152   5.530  19.192  0.00  0.00    +0.000 A 
ATOM     17  C   UNL     1       2.781   5.595  18.926  0.00  0.00    +0.000 A 
ATOM     18  C   UNL     1       2.215   4.752  17.973  0.00  0.00    +0.000 A 
ATOM     19  C   UNL     1       3.020   3.852  17.279  0.00  0.00    +0.000 A 
ATOM     20  C   UNL     1       4.390   3.782  17.547  0.00  0.00    +0.000 A 
ENDBRANCH  14  15
BRANCH  14  21
ATOM     21  O   UNL     1       6.776   5.383  19.968  0.00  0.00    +0.000 OA
ATOM     22  H   UNL     1       7.640   5.109  20.314  0.00  0.00    +0.000 HD
ENDBRANCH  14  21
ENDBRANCH  13  14
ENDBRANCH   3  13
TORSDOF 6
ENDMDL
MODEL 8
REMARK VINA RESULT:      -7.4      1.291      2.021
REMARK  Name = 
REMARK  6 active torsions:
REMARK  status: ('A' for Active; 'I' for Inactive)
REMARK    1  A    between atoms: C_2  and  C_3
REMARK    2  A    between atoms: C_4  and  C_5
REMARK    3  A    between atoms: N_11  and  C_12
REMARK    4  A    between atoms: C_12  and  C_13
REMARK    5  A    between atoms: C_13  and  O_14
REMARK    6  A    between atoms: C_13  and  C_15
REMARK                            x       y       z     vdW  Elec       q    Type
REMARK                         _______ _______ _______ _____ _____    ______ ____
ROOT
ATOM      1  O   UNL     1       7.868   6.504  18.314  0.00  0.00    +0.000 OA
ATOM      2  C   UNL     1       7.543   7.533  17.732  0.00  0.00    +0.000 C 
ATOM      3  N   UNL     1       6.395   7.665  16.993  0.00  0.00    +0.000 N 
ATOM      4  H   UNL     1       6.243   8.483  16.415  0.00  0.00    +0.000 HD
ENDROOT
BRANCH   2   5
ATOM      5  C   UNL     1       8.365   8.766  17.773  0.00  0.00    +0.000 C 
ATOM      6  C   UNL     1       8.748   9.267  18.959  0.00  0.00    +0.000 C 
BRANCH   6   7
ATOM      7  C   UNL     1       9.491  10.522  19.063  0.00  0.00    +0.000 A 
ATOM      8  C   UNL     1       9.838  11.016  20.325  0.00  0.00    +0.000 A 
ATOM      9  C   UNL     1      10.535  12.221  20.443  0.00  0.00    +0.000 A 
ATOM     10  C   UNL     1      10.888  12.936  19.300  0.00  0.00    +0.000 A 
ATOM     11  C   UNL     1      10.550  12.446  18.040  0.00  0.00    +0.000 A 
ATOM     12  C   UNL     1       9.852  11.240  17.919  0.00  0.00    +0.000 A 
ENDBRANCH   6   7
ENDBRANCH   2   5
BRANCH   3  13
ATOM     13  C   UNL     1       5.495   6.537  16.782  0.00  0.00    +0.000 C 
BRANCH  13  14
ATOM     14  C   UNL     1       4.343   6.518  17.807  0.00  0.00    +0.000 C 
BRANCH  14  15
ATOM     15  C   UNL     1       3.595   5.196  17.815  0.00  0.00    +0.000 A 
ATOM     16  C   UNL     1       4.300   3.995  17.625  0.00  0.00    +0.000 A 
ATOM     17  C   UNL     1       3.629   2.770  17.576  0.00  0.00    +0.000 A 
ATOM     18  C   UNL     1       2.246   2.726  17.727  0.00  0.00    +0.000 A 
ATOM     19  C   UNL     1       1.534   3.904  17.935  0.00  0.00    +0.000 A 
ATOM     20  C   UNL     1       2.202   5.131  17.979  0.00  0.00    +0.000 A 
ENDBRANCH  14  15
BRANCH  14  21
ATOM     21  O   UNL     1       3.461   7.612  17.524  0.00  0.00    +0.000 OA
ATOM     22  H   UNL     1       4.003   8.406  17.393  0.00  0.00    +0.000 HD
ENDBRANCH  14  21
ENDBRANCH  13  14
ENDBRANCH   3  13
TORSDOF 6
ENDMDL
MODEL 9
REMARK VINA RESULT:      -7.4      1.257      1.618
REMARK  Name = 
REMARK  6 active torsions:
REMARK  status: ('A' for Active; 'I' for Inactive)
REMARK    1  A    between atoms: C_2  and  C_3
REMARK    2  A    between atoms: C_4  and  C_5
REMARK    3  A    between atoms: N_11  and  C_12
REMARK    4  A    between atoms: C_12  and  C_13
REMARK    5  A    between atoms: C_13  and  O_14
REMARK    6  A    between atoms: C_13  and  C_15
REMARK                            x       y       z     vdW  Elec       q    Type
REMARK                         _______ _______ _______ _____ _____    ______ ____
ROOT
ATOM      1  O   UNL     1       7.663   6.665  16.290  0.00  0.00    +0.000 OA
ATOM      2  C   UNL     1       7.550   7.197  17.389  0.00  0.00    +0.000 C 
ATOM      3  N   UNL     1       7.085   6.554  18.507  0.00  0.00    +0.000 N 
ATOM      4  H   UNL     1       6.873   7.071  19.352  0.00  0.00    +0.000 HD
ENDROOT
BRANCH   2   5
ATOM      5  C   UNL     1       7.921   8.613  17.631  0.00  0.00    +0.000 C 
ATOM      6  C   UNL     1       8.745   8.917  18.646  0.00  0.00    +0.000 C 
BRANCH   6   7
ATOM      7  C   UNL     1       9.080  10.300  18.980  0.00  0.00    +0.000 A 
ATOM      8  C   UNL     1       9.429  10.628  20.295  0.00  0.00    +0.000 A 
ATOM      9  C   UNL     1       9.738  11.948  20.635  0.00  0.00    +0.000 A 
ATOM     10  C   UNL     1       9.698  12.945  19.661  0.00  0.00    +0.000 A 
ATOM     11  C   UNL     1       9.356  12.623  18.348  0.00  0.00    +0.000 A 
ATOM     12  C   UNL     1       9.047  11.303  18.006  0.00  0.00    +0.000 A 
ENDBRANCH   6   7
ENDBRANCH   2   5
BRANCH   3  13
ATOM     13  C   UNL     1       6.608   5.177  18.445  0.00  0.00    +0.000 C 
BRANCH  13  14
ATOM     14  C   UNL     1       5.781   4.909  17.172  0.00  0.00    +0.000 C 
BRANCH  14  15
ATOM     15  C   UNL     1       4.313   4.660  17.476  0.00  0.00    +0.000 A 
ATOM     16  C   UNL     1       3.775   3.373  17.305  0.00  0.00    +0.000 A 
ATOM     17  C   UNL     1       2.417   3.128  17.527  0.00  0.00    +0.000 A 
ATOM     18  C   UNL     1       1.579   4.163  17.932  0.00  0.00    +0.000 A 
ATOM     19  C   UNL     1       2.100   5.441  18.124  0.00  0.00    +0.000 A 
ATOM     20  C   UNL     1       3.456   5.689  17.898  0.00  0.00    +0.000 A 
ENDBRANCH  14  15
BRANCH  14  21
ATOM     21  O   UNL     1       6.363   3.800  16.473  0.00  0.00    +0.000 OA
ATOM     22  H   UNL     1       6.164   3.906  15.529  0.00  0.00    +0.000 HD
ENDBRANCH  14  21
ENDBRANCH  13  14
ENDBRANCH   3  13
TORSDOF 6
ENDMDL
