MODEL 1
REMARK VINA RESULT:      -8.7      0.000      0.000
REMARK  Name = 
REMARK  8 active torsions:
REMARK  status: ('A' for Active; 'I' for Inactive)
REMARK    1  A    between atoms: C_1  and  C_2
REMARK    2  A    between atoms: C_2  and  C_3
REMARK    3  A    between atoms: C_6  and  O_7
REMARK    4  A    between atoms: O_7  and  C_8
REMARK    5  A    between atoms: C_13  and  C_14
REMARK    6  A    between atoms: N_15  and  O_16
REMARK    7  A    between atoms: N_17  and  C_18
REMARK    8  A    between atoms: C_18  and  C_19
REMARK                            x       y       z     vdW  Elec       q    Type
REMARK                         _______ _______ _______ _____ _____    ______ ____
ROOT
ATOM      1  C   UNL     1       3.568   4.450  19.816  0.00  0.00    +0.000 A 
ATOM      2  N   UNL     1       3.493   3.137  20.164  0.00  0.00    +0.000 NA
ATOM      3  C   UNL     1       2.277   2.631  20.459  0.00  0.00    +0.000 A 
ATOM      4  C   UNL     1       1.110   3.368  20.414  0.00  0.00    +0.000 A 
ATOM      5  C   UNL     1       1.195   4.693  20.014  0.00  0.00    +0.000 A 
ATOM      6  C   UNL     1       2.437   5.264  19.683  0.00  0.00    +0.000 A 
ENDROOT
BRANCH   6   7
ATOM      7  C   UNL     1       2.442   6.722  19.289  0.00  0.00    +0.000 C 
ATOM      8  N   UNL     1       2.861   6.928  18.070  0.00  0.00    +0.000 NA
ATOM      9  N   UNL     1       2.044   7.661  20.228  0.00  0.00    +0.000 N 
ATOM     10  H   UNL     1       1.694   7.264  21.098  0.00  0.00    +0.000 HD
BRANCH   8  11
ATOM     11  O   UNL     1       2.900   8.269  17.711  0.00  0.00    +0.000 OA
ATOM     12  H   UNL     1       3.692   8.597  18.171  0.00  0.00    +0.000 HD
ENDBRANCH   8  11
BRANCH   9  13
ATOM     13  C   UNL     1       1.249   8.840  19.872  0.00  0.00    +0.000 C 
BRANCH  13  14
ATOM     14  C   UNL     1       0.639   9.542  21.052  0.00  0.00    +0.000 A 
ATOM     15  C   UNL     1       0.663   8.919  22.308  0.00  0.00    +0.000 A 
ATOM     16  C   UNL     1       0.032   9.547  23.368  0.00  0.00    +0.000 A 
ATOM     17  N   UNL     1      -0.592  10.742  23.265  0.00  0.00    +0.000 NA
ATOM     18  C   UNL     1      -0.581  11.332  22.051  0.00  0.00    +0.000 A 
ATOM     19  C   UNL     1       0.027  10.789  20.932  0.00  0.00    +0.000 A 
ENDBRANCH  13  14
ENDBRANCH   9  13
ENDBRANCH   6   7
BRANCH   1  20
ATOM     20  O   UNL     1       4.862   4.848  19.572  0.00  0.00    +0.000 OA
BRANCH  20  24
ATOM     21  C   UNL     1       6.304   4.390  15.699  0.00  0.00    +0.000 A 
ATOM     22  C   UNL     1       7.212   4.706  16.720  0.00  0.00    +0.000 A 
ATOM     23  C   UNL     1       6.793   4.760  18.049  0.00  0.00    +0.000 A 
ATOM     24  C   UNL     1       5.447   4.563  18.357  0.00  0.00    +0.000 A 
ATOM     25  C   UNL     1       4.559   4.145  17.360  0.00  0.00    +0.000 A 
ATOM     26  C   UNL     1       4.986   4.060  16.033  0.00  0.00    +0.000 A 
BRANCH  21  28
ATOM     27  C   UNL     1       5.732   3.713  13.382  0.00  0.00    +0.000 C 
ATOM     28  C   UNL     1       6.760   4.399  14.264  0.00  0.00    +0.000 C 
ENDBRANCH  21  28
ENDBRANCH  20  24
ENDBRANCH   1  20
TORSDOF 7
ENDMDL
MODEL 2
REMARK VINA RESULT:      -8.6      2.571      7.860
REMARK  Name = 
REMARK  8 active torsions:
REMARK  status: ('A' for Active; 'I' for Inactive)
REMARK    1  A    between atoms: C_1  and  C_2
REMARK    2  A    between atoms: C_2  and  C_3
REMARK    3  A    between atoms: C_6  and  O_7
REMARK    4  A    between atoms: O_7  and  C_8
REMARK    5  A    between atoms: C_13  and  C_14
REMARK    6  A    between atoms: N_15  and  O_16
REMARK    7  A    between atoms: N_17  and  C_18
REMARK    8  A    between atoms: C_18  and  C_19
REMARK                            x       y       z     vdW  Elec       q    Type
REMARK                         _______ _______ _______ _____ _____    ______ ____
ROOT
ATOM      1  C   UNL     1       3.106   4.589  18.986  0.00  0.00    +0.000 A 
ATOM      2  N   UNL     1       1.894   4.004  19.182  0.00  0.00    +0.000 NA
ATOM      3  C   UNL     1       1.629   2.860  18.516  0.00  0.00    +0.000 A 
ATOM      4  C   UNL     1       2.524   2.249  17.659  0.00  0.00    +0.000 A 
ATOM      5  C   UNL     1       3.773   2.833  17.503  0.00  0.00    +0.000 A 
ATOM      6  C   UNL     1       4.102   4.017  18.186  0.00  0.00    +0.000 A 
ENDROOT
BRANCH   6   7
ATOM      7  C   UNL     1       5.472   4.599  17.933  0.00  0.00    +0.000 C 
ATOM      8  N   UNL     1       6.334   4.323  18.873  0.00  0.00    +0.000 NA
ATOM      9  N   UNL     1       5.665   5.361  16.791  0.00  0.00    +0.000 N 
ATOM     10  H   UNL     1       4.863   5.389  16.163  0.00  0.00    +0.000 HD
BRANCH   8  11
ATOM     11  O   UNL     1       7.588   4.884  18.664  0.00  0.00    +0.000 OA
ATOM     12  H   UNL     1       7.816   5.245  19.538  0.00  0.00    +0.000 HD
ENDBRANCH   8  11
BRANCH   9  13
ATOM     13  C   UNL     1       6.900   5.298  16.003  0.00  0.00    +0.000 C 
BRANCH  13  14
ATOM     14  C   UNL     1       6.705   4.796  14.601  0.00  0.00    +0.000 A 
ATOM     15  C   UNL     1       5.562   4.043  14.295  0.00  0.00    +0.000 A 
ATOM     16  C   UNL     1       5.435   3.528  13.018  0.00  0.00    +0.000 A 
ATOM     17  N   UNL     1       6.344   3.725  12.038  0.00  0.00    +0.000 NA
ATOM     18  C   UNL     1       7.424   4.473  12.350  0.00  0.00    +0.000 A 
ATOM     19  C   UNL     1       7.640   5.037  13.595  0.00  0.00    +0.000 A 
ENDBRANCH  13  14
ENDBRANCH   9  13
ENDBRANCH   6   7
BRANCH   1  20
ATOM     20  O   UNL     1       3.237   5.760  19.696  0.00  0.00    +0.000 OA
BRANCH  20  24
ATOM     21  C   UNL     1       1.281   9.362  18.994  0.00  0.00    +0.000 A 
ATOM     22  C   UNL     1       1.862   8.691  17.909  0.00  0.00    +0.000 A 
ATOM     23  C   UNL     1       2.432   7.429  18.077  0.00  0.00    +0.000 A 
ATOM     24  C   UNL     1       2.481   6.858  19.349  0.00  0.00    +0.000 A 
ATOM     25  C   UNL     1       1.811   7.472  20.413  0.00  0.00    +0.000 A 
ATOM     26  C   UNL     1       1.214   8.723  20.237  0.00  0.00    +0.000 A 
BRANCH  21  28
ATOM     27  C   UNL     1      -0.713  10.682  18.338  0.00  0.00    +0.000 C 
ATOM     28  C   UNL     1       0.729  10.750  18.807  0.00  0.00    +0.000 C 
ENDBRANCH  21  28
ENDBRANCH  20  24
ENDBRANCH   1  20
TORSDOF 7
ENDMDL
MODEL 3
REMARK VINA RESULT:      -8.5      2.419      8.104
REMARK  Name = 
REMARK  8 active torsions:
REMARK  status: ('A' for Active; 'I' for Inactive)
REMARK    1  A    between atoms: C_1  and  C_2
REMARK    2  A    between atoms: C_2  and  C_3
REMARK    3  A    between atoms: C_6  and  O_7
REMARK    4  A    between atoms: O_7  and  C_8
REMARK    5  A    between atoms: C_13  and  C_14
REMARK    6  A    between atoms: N_15  and  O_16
REMARK    7  A    between atoms: N_17  and  C_18
REMARK    8  A    between atoms: C_18  and  C_19
REMARK                            x       y       z     vdW  Elec       q    Type
REMARK                         _______ _______ _______ _____ _____    ______ ____
ROOT
ATOM      1  C   UNL     1       2.890   5.019  17.853  0.00  0.00    +0.000 A 
ATOM      2  N   UNL     1       1.627   4.542  18.018  0.00  0.00    +0.000 NA
ATOM      3  C   UNL     1       1.476   3.220  18.249  0.00  0.00    +0.000 A 
ATOM      4  C   UNL     1       2.531   2.334  18.340  0.00  0.00    +0.000 A 
ATOM      5  C   UNL     1       3.816   2.842  18.215  0.00  0.00    +0.000 A 
ATOM      6  C   UNL     1       4.027   4.213  17.988  0.00  0.00    +0.000 A 
ENDROOT
BRANCH   6   7
ATOM      7  C   UNL     1       5.457   4.674  17.833  0.00  0.00    +0.000 C 
ATOM      8  N   UNL     1       6.233   4.288  18.808  0.00  0.00    +0.000 NA
ATOM      9  N   UNL     1       5.785   5.449  16.732  0.00  0.00    +0.000 N 
ATOM     10  H   UNL     1       5.028   5.573  16.062  0.00  0.00    +0.000 HD
BRANCH   8  11
ATOM     11  O   UNL     1       7.543   4.736  18.691  0.00  0.00    +0.000 OA
ATOM     12  H   UNL     1       7.779   4.491  17.780  0.00  0.00    +0.000 HD
ENDBRANCH   8  11
BRANCH   9  13
ATOM     13  C   UNL     1       7.054   5.298  16.013  0.00  0.00    +0.000 C 
BRANCH  13  14
ATOM     14  C   UNL     1       6.899   4.835  14.592  0.00  0.00    +0.000 A 
ATOM     15  C   UNL     1       5.892   3.909  14.280  0.00  0.00    +0.000 A 
ATOM     16  C   UNL     1       5.810   3.439  12.981  0.00  0.00    +0.000 A 
ATOM     17  N   UNL     1       6.636   3.836  11.988  0.00  0.00    +0.000 NA
ATOM     18  C   UNL     1       7.582   4.746  12.309  0.00  0.00    +0.000 A 
ATOM     19  C   UNL     1       7.741   5.280  13.576  0.00  0.00    +0.000 A 
ENDBRANCH  13  14
ENDBRANCH   9  13
ENDBRANCH   6   7
BRANCH   1  20
ATOM     20  O   UNL     1       2.904   6.370  17.594  0.00  0.00    +0.000 OA
BRANCH  20  24
ATOM     21  C   UNL     1       1.037   9.020  20.198  0.00  0.00    +0.000 A 
ATOM     22  C   UNL     1       1.568   7.830  20.717  0.00  0.00    +0.000 A 
ATOM     23  C   UNL     1       2.298   6.965  19.903  0.00  0.00    +0.000 A 
ATOM     24  C   UNL     1       2.446   7.253  18.547  0.00  0.00    +0.000 A 
ATOM     25  C   UNL     1       2.011   8.486  18.046  0.00  0.00    +0.000 A 
ATOM     26  C   UNL     1       1.306   9.367  18.870  0.00  0.00    +0.000 A 
BRANCH  21  28
ATOM     27  C   UNL     1       0.216   9.403  22.506  0.00  0.00    +0.000 C 
ATOM     28  C   UNL     1       0.198   9.909  21.076  0.00  0.00    +0.000 C 
ENDBRANCH  21  28
ENDBRANCH  20  24
ENDBRANCH   1  20
TORSDOF 7
ENDMDL
MODEL 4
REMARK VINA RESULT:      -8.2      2.556      7.868
REMARK  Name = 
REMARK  8 active torsions:
REMARK  status: ('A' for Active; 'I' for Inactive)
REMARK    1  A    between atoms: C_1  and  C_2
REMARK    2  A    between atoms: C_2  and  C_3
REMARK    3  A    between atoms: C_6  and  O_7
REMARK    4  A    between atoms: O_7  and  C_8
REMARK    5  A    between atoms: C_13  and  C_14
REMARK    6  A    between atoms: N_15  and  O_16
REMARK    7  A    between atoms: N_17  and  C_18
REMARK    8  A    between atoms: C_18  and  C_19
REMARK                            x       y       z     vdW  Elec       q    Type
REMARK                         _______ _______ _______ _____ _____    ______ ____
ROOT
ATOM      1  C   UNL     1       2.995   4.784  18.999  0.00  0.00    +0.000 A 
ATOM      2  N   UNL     1       1.738   4.275  19.096  0.00  0.00    +0.000 NA
ATOM      3  C   UNL     1       1.406   3.253  18.280  0.00  0.00    +0.000 A 
ATOM      4  C   UNL     1       2.275   2.690  17.366  0.00  0.00    +0.000 A 
ATOM      5  C   UNL     1       3.568   3.189  17.309  0.00  0.00    +0.000 A 
ATOM      6  C   UNL     1       3.967   4.244  18.148  0.00  0.00    +0.000 A 
ENDROOT
BRANCH   6   7
ATOM      7  C   UNL     1       5.384   4.746  17.997  0.00  0.00    +0.000 C 
ATOM      8  N   UNL     1       6.162   4.407  18.988  0.00  0.00    +0.000 NA
ATOM      9  N   UNL     1       5.699   5.508  16.883  0.00  0.00    +0.000 N 
ATOM     10  H   UNL     1       4.945   5.593  16.203  0.00  0.00    +0.000 HD
BRANCH   8  11
ATOM     11  O   UNL     1       7.458   4.893  18.874  0.00  0.00    +0.000 OA
ATOM     12  H   UNL     1       7.746   4.550  18.011  0.00  0.00    +0.000 HD
ENDBRANCH   8  11
BRANCH   9  13
ATOM     13  C   UNL     1       6.979   5.381  16.180  0.00  0.00    +0.000 C 
BRANCH  13  14
ATOM     14  C   UNL     1       6.860   4.820  14.791  0.00  0.00    +0.000 A 
ATOM     15  C   UNL     1       7.711   5.298  13.784  0.00  0.00    +0.000 A 
ATOM     16  C   UNL     1       7.539   4.824  12.496  0.00  0.00    +0.000 A 
ATOM     17  N   UNL     1       6.605   3.909  12.154  0.00  0.00    +0.000 NA
ATOM     18  C   UNL     1       5.813   3.447  13.146  0.00  0.00    +0.000 A 
ATOM     19  C   UNL     1       5.910   3.853  14.466  0.00  0.00    +0.000 A 
ENDBRANCH  13  14
ENDBRANCH   9  13
ENDBRANCH   6   7
BRANCH   1  20
ATOM     20  O   UNL     1       3.195   5.839  19.859  0.00  0.00    +0.000 OA
BRANCH  20  24
ATOM     21  C   UNL     1       1.011   9.202  18.760  0.00  0.00    +0.000 A 
ATOM     22  C   UNL     1       0.986   8.795  20.102  0.00  0.00    +0.000 A 
ATOM     23  C   UNL     1       1.789   7.741  20.537  0.00  0.00    +0.000 A 
ATOM     24  C   UNL     1       2.574   7.045  19.618  0.00  0.00    +0.000 A 
ATOM     25  C   UNL     1       2.684   7.512  18.304  0.00  0.00    +0.000 A 
ATOM     26  C   UNL     1       1.903   8.588  17.875  0.00  0.00    +0.000 A 
BRANCH  21  28
ATOM     27  C   UNL     1       0.606  11.649  18.760  0.00  0.00    +0.000 C 
ATOM     28  C   UNL     1       0.091  10.299  18.295  0.00  0.00    +0.000 C 
ENDBRANCH  21  28
ENDBRANCH  20  24
ENDBRANCH   1  20
TORSDOF 7
ENDMDL
MODEL 5
REMARK VINA RESULT:      -8.0      0.981      1.569
REMARK  Name = 
REMARK  8 active torsions:
REMARK  status: ('A' for Active; 'I' for Inactive)
REMARK    1  A    between atoms: C_1  and  C_2
REMARK    2  A    between atoms: C_2  and  C_3
REMARK    3  A    between atoms: C_6  and  O_7
REMARK    4  A    between atoms: O_7  and  C_8
REMARK    5  A    between atoms: C_13  and  C_14
REMARK    6  A    between atoms: N_15  and  O_16
REMARK    7  A    between atoms: N_17  and  C_18
REMARK    8  A    between atoms: C_18  and  C_19
REMARK                            x       y       z     vdW  Elec       q    Type
REMARK                         _______ _______ _______ _____ _____    ______ ____
ROOT
ATOM      1  C   UNL     1       4.035   5.356  19.243  0.00  0.00    +0.000 A 
ATOM      2  N   UNL     1       4.277   4.055  19.556  0.00  0.00    +0.000 NA
ATOM      3  C   UNL     1       3.249   3.315  20.024  0.00  0.00    +0.000 A 
ATOM      4  C   UNL     1       1.968   3.805  20.188  0.00  0.00    +0.000 A 
ATOM      5  C   UNL     1       1.725   5.121  19.823  0.00  0.00    +0.000 A 
ATOM      6  C   UNL     1       2.760   5.927  19.317  0.00  0.00    +0.000 A 
ENDROOT
BRANCH   6   7
ATOM      7  C   UNL     1       2.413   7.357  18.974  0.00  0.00    +0.000 C 
ATOM      8  N   UNL     1       2.702   7.679  17.743  0.00  0.00    +0.000 NA
ATOM      9  N   UNL     1       1.871   8.160  19.965  0.00  0.00    +0.000 N 
ATOM     10  H   UNL     1       1.671   7.676  20.839  0.00  0.00    +0.000 HD
BRANCH   8  11
ATOM     11  O   UNL     1       2.418   9.002  17.429  0.00  0.00    +0.000 OA
ATOM     12  H   UNL     1       3.116   9.494  17.895  0.00  0.00    +0.000 HD
ENDBRANCH   8  11
BRANCH   9  13
ATOM     13  C   UNL     1       0.811   9.137  19.693  0.00  0.00    +0.000 C 
BRANCH  13  14
ATOM     14  C   UNL     1       0.253   9.790  20.925  0.00  0.00    +0.000 A 
ATOM     15  C   UNL     1       0.003  11.170  20.915  0.00  0.00    +0.000 A 
ATOM     16  C   UNL     1      -0.442  11.768  22.081  0.00  0.00    +0.000 A 
ATOM     17  N   UNL     1      -0.669  11.091  23.229  0.00  0.00    +0.000 NA
ATOM     18  C   UNL     1      -0.443   9.760  23.207  0.00  0.00    +0.000 A 
ATOM     19  C   UNL     1      -0.003   9.069  22.090  0.00  0.00    +0.000 A 
ENDBRANCH  13  14
ENDBRANCH   9  13
ENDBRANCH   6   7
BRANCH   1  20
ATOM     20  O   UNL     1       5.169   6.004  18.810  0.00  0.00    +0.000 OA
BRANCH  20  24
ATOM     21  C   UNL     1       6.460   4.855  15.028  0.00  0.00    +0.000 A 
ATOM     22  C   UNL     1       5.363   5.723  15.128  0.00  0.00    +0.000 A 
ATOM     23  C   UNL     1       4.964   6.222  16.368  0.00  0.00    +0.000 A 
ATOM     24  C   UNL     1       5.621   5.803  17.524  0.00  0.00    +0.000 A 
ATOM     25  C   UNL     1       6.779   5.023  17.423  0.00  0.00    +0.000 A 
ATOM     26  C   UNL     1       7.197   4.548  16.177  0.00  0.00    +0.000 A 
BRANCH  21  28
ATOM     27  C   UNL     1       5.644   3.571  13.070  0.00  0.00    +0.000 C 
ATOM     28  C   UNL     1       6.836   4.277  13.690  0.00  0.00    +0.000 C 
ENDBRANCH  21  28
ENDBRANCH  20  24
ENDBRANCH   1  20
TORSDOF 7
ENDMDL
MODEL 6
REMARK VINA RESULT:      -8.0      2.414      7.951
REMARK  Name = 
REMARK  8 active torsions:
REMARK  status: ('A' for Active; 'I' for Inactive)
REMARK    1  A    between atoms: C_1  and  C_2
REMARK    2  A    between atoms: C_2  and  C_3
REMARK    3  A    between atoms: C_6  and  O_7
REMARK    4  A    between atoms: O_7  and  C_8
REMARK    5  A    between atoms: C_13  and  C_14
REMARK    6  A    between atoms: N_15  and  O_16
REMARK    7  A    between atoms: N_17  and  C_18
REMARK    8  A    between atoms: C_18  and  C_19
REMARK                            x       y       z     vdW  Elec       q    Type
REMARK                         _______ _______ _______ _____ _____    ______ ____
ROOT
ATOM      1  C   UNL     1       2.952   4.793  18.347  0.00  0.00    +0.000 A 
ATOM      2  N   UNL     1       1.750   4.226  18.634  0.00  0.00    +0.000 NA
ATOM      3  C   UNL     1       1.747   2.979  19.151  0.00  0.00    +0.000 A 
ATOM      4  C   UNL     1       2.895   2.257  19.414  0.00  0.00    +0.000 A 
ATOM      5  C   UNL     1       4.116   2.866  19.159  0.00  0.00    +0.000 A 
ATOM      6  C   UNL     1       4.171   4.169  18.634  0.00  0.00    +0.000 A 
ENDROOT
BRANCH   6   7
ATOM      7  C   UNL     1       5.542   4.741  18.358  0.00  0.00    +0.000 C 
ATOM      8  N   UNL     1       6.332   4.717  19.396  0.00  0.00    +0.000 NA
ATOM      9  N   UNL     1       5.806   5.240  17.092  0.00  0.00    +0.000 N 
ATOM     10  H   UNL     1       5.057   5.094  16.416  0.00  0.00    +0.000 HD
BRANCH   8  11
ATOM     11  O   UNL     1       7.583   5.272  19.159  0.00  0.00    +0.000 OA
ATOM     12  H   UNL     1       7.427   6.225  19.278  0.00  0.00    +0.000 HD
ENDBRANCH   8  11
BRANCH   9  13
ATOM     13  C   UNL     1       7.102   5.060  16.430  0.00  0.00    +0.000 C 
BRANCH  13  14
ATOM     14  C   UNL     1       7.000   4.708  14.973  0.00  0.00    +0.000 A 
ATOM     15  C   UNL     1       7.849   5.344  14.054  0.00  0.00    +0.000 A 
ATOM     16  C   UNL     1       7.692   5.062  12.709  0.00  0.00    +0.000 A 
ATOM     17  N   UNL     1       6.776   4.192  12.229  0.00  0.00    +0.000 NA
ATOM     18  C   UNL     1       5.987   3.576  13.135  0.00  0.00    +0.000 A 
ATOM     19  C   UNL     1       6.069   3.785  14.501  0.00  0.00    +0.000 A 
ENDBRANCH  13  14
ENDBRANCH   9  13
ENDBRANCH   6   7
BRANCH   1  20
ATOM     20  O   UNL     1       2.815   6.048  17.799  0.00  0.00    +0.000 OA
BRANCH  20  24
ATOM     21  C   UNL     1       1.120   9.198  19.918  0.00  0.00    +0.000 A 
ATOM     22  C   UNL     1       1.559   8.071  20.628  0.00  0.00    +0.000 A 
ATOM     23  C   UNL     1       2.232   7.039  19.974  0.00  0.00    +0.000 A 
ATOM     24  C   UNL     1       2.414   7.100  18.592  0.00  0.00    +0.000 A 
ATOM     25  C   UNL     1       2.074   8.266  17.897  0.00  0.00    +0.000 A 
ATOM     26  C   UNL     1       1.427   9.313  18.558  0.00  0.00    +0.000 A 
BRANCH  21  28
ATOM     27  C   UNL     1      -0.221  11.263  19.626  0.00  0.00    +0.000 C 
ATOM     28  C   UNL     1       0.339  10.271  20.628  0.00  0.00    +0.000 C 
ENDBRANCH  21  28
ENDBRANCH  20  24
ENDBRANCH   1  20
TORSDOF 7
ENDMDL
MODEL 7
REMARK VINA RESULT:      -8.0      1.404      2.373
REMARK  Name = 
REMARK  8 active torsions:
REMARK  status: ('A' for Active; 'I' for Inactive)
REMARK    1  A    between atoms: C_1  and  C_2
REMARK    2  A    between atoms: C_2  and  C_3
REMARK    3  A    between atoms: C_6  and  O_7
REMARK    4  A    between atoms: O_7  and  C_8
REMARK    5  A    between atoms: C_13  and  C_14
REMARK    6  A    between atoms: N_15  and  O_16
REMARK    7  A    between atoms: N_17  and  C_18
REMARK    8  A    between atoms: C_18  and  C_19
REMARK                            x       y       z     vdW  Elec       q    Type
REMARK                         _______ _______ _______ _____ _____    ______ ____
ROOT
ATOM      1  C   UNL     1       2.860   4.154  18.830  0.00  0.00    +0.000 A 
ATOM      2  N   UNL     1       2.719   2.855  19.206  0.00  0.00    +0.000 NA
ATOM      3  C   UNL     1       1.931   2.586  20.269  0.00  0.00    +0.000 A 
ATOM      4  C   UNL     1       1.254   3.555  20.983  0.00  0.00    +0.000 A 
ATOM      5  C   UNL     1       1.370   4.872  20.561  0.00  0.00    +0.000 A 
ATOM      6  C   UNL     1       2.168   5.201  19.450  0.00  0.00    +0.000 A 
ENDROOT
BRANCH   6   7
ATOM      7  C   UNL     1       2.263   6.662  19.080  0.00  0.00    +0.000 C 
ATOM      8  N   UNL     1       2.547   6.860  17.822  0.00  0.00    +0.000 NA
ATOM      9  N   UNL     1       2.076   7.609  20.075  0.00  0.00    +0.000 N 
ATOM     10  H   UNL     1       1.798   7.223  20.977  0.00  0.00    +0.000 HD
BRANCH   8  11
ATOM     11  O   UNL     1       2.671   8.201  17.481  0.00  0.00    +0.000 OA
ATOM     12  H   UNL     1       1.832   8.585  17.790  0.00  0.00    +0.000 HD
ENDBRANCH   8  11
BRANCH   9  13
ATOM     13  C   UNL     1       1.359   8.866  19.839  0.00  0.00    +0.000 C 
BRANCH  13  14
ATOM     14  C   UNL     1       0.665   9.410  21.055  0.00  0.00    +0.000 A 
ATOM     15  C   UNL     1      -0.219  10.491  20.913  0.00  0.00    +0.000 A 
ATOM     16  C   UNL     1      -0.793  11.026  22.053  0.00  0.00    +0.000 A 
ATOM     17  N   UNL     1      -0.565  10.553  23.298  0.00  0.00    +0.000 NA
ATOM     18  C   UNL     1       0.270   9.497  23.406  0.00  0.00    +0.000 A 
ATOM     19  C   UNL     1       0.889   8.888  22.328  0.00  0.00    +0.000 A 
ENDBRANCH  13  14
ENDBRANCH   9  13
ENDBRANCH   6   7
BRANCH   1  20
ATOM     20  O   UNL     1       3.710   4.294  17.758  0.00  0.00    +0.000 OA
BRANCH  20  24
ATOM     21  C   UNL     1       7.200   6.496  18.264  0.00  0.00    +0.000 A 
ATOM     22  C   UNL     1       6.812   5.611  19.280  0.00  0.00    +0.000 A 
ATOM     23  C   UNL     1       5.711   4.773  19.107  0.00  0.00    +0.000 A 
ATOM     24  C   UNL     1       4.952   4.861  17.940  0.00  0.00    +0.000 A 
ATOM     25  C   UNL     1       5.394   5.663  16.882  0.00  0.00    +0.000 A 
ATOM     26  C   UNL     1       6.515   6.481  17.044  0.00  0.00    +0.000 A 
BRANCH  21  28
ATOM     27  C   UNL     1       8.095   8.761  17.794  0.00  0.00    +0.000 C 
ATOM     28  C   UNL     1       8.351   7.439  18.493  0.00  0.00    +0.000 C 
ENDBRANCH  21  28
ENDBRANCH  20  24
ENDBRANCH   1  20
TORSDOF 7
ENDMDL
MODEL 8
REMARK VINA RESULT:      -8.0      2.408      8.270
REMARK  Name = 
REMARK  8 active torsions:
REMARK  status: ('A' for Active; 'I' for Inactive)
REMARK    1  A    between atoms: C_1  and  C_2
REMARK    2  A    between atoms: C_2  and  C_3
REMARK    3  A    between atoms: C_6  and  O_7
REMARK    4  A    between atoms: O_7  and  C_8
REMARK    5  A    between atoms: C_13  and  C_14
REMARK    6  A    between atoms: N_15  and  O_16
REMARK    7  A    between atoms: N_17  and  C_18
REMARK    8  A    between atoms: C_18  and  C_19
REMARK                            x       y       z     vdW  Elec       q    Type
REMARK                         _______ _______ _______ _____ _____    ______ ____
ROOT
ATOM      1  C   UNL     1       3.220   5.494  18.070  0.00  0.00    +0.000 A 
ATOM      2  N   UNL     1       1.909   5.177  18.243  0.00  0.00    +0.000 NA
ATOM      3  C   UNL     1       1.545   3.886  18.088  0.00  0.00    +0.000 A 
ATOM      4  C   UNL     1       2.431   2.874  17.777  0.00  0.00    +0.000 A 
ATOM      5  C   UNL     1       3.772   3.203  17.647  0.00  0.00    +0.000 A 
ATOM      6  C   UNL     1       4.204   4.531  17.814  0.00  0.00    +0.000 A 
ENDROOT
BRANCH   6   7
ATOM      7  C   UNL     1       5.677   4.805  17.623  0.00  0.00    +0.000 C 
ATOM      8  N   UNL     1       6.433   4.198  18.497  0.00  0.00    +0.000 NA
ATOM      9  N   UNL     1       6.063   5.659  16.602  0.00  0.00    +0.000 N 
ATOM     10  H   UNL     1       5.302   5.968  16.000  0.00  0.00    +0.000 HD
BRANCH   8  11
ATOM     11  O   UNL     1       7.788   4.472  18.350  0.00  0.00    +0.000 OA
ATOM     12  H   UNL     1       8.200   3.596  18.442  0.00  0.00    +0.000 HD
ENDBRANCH   8  11
BRANCH   9  13
ATOM     13  C   UNL     1       7.262   5.424  15.792  0.00  0.00    +0.000 C 
BRANCH  13  14
ATOM     14  C   UNL     1       6.983   4.791  14.459  0.00  0.00    +0.000 A 
ATOM     15  C   UNL     1       7.778   5.138  13.356  0.00  0.00    +0.000 A 
ATOM     16  C   UNL     1       7.462   4.601  12.121  0.00  0.00    +0.000 A 
ATOM     17  N   UNL     1       6.437   3.743  11.918  0.00  0.00    +0.000 NA
ATOM     18  C   UNL     1       5.702   3.406  12.999  0.00  0.00    +0.000 A 
ATOM     19  C   UNL     1       5.941   3.884  14.277  0.00  0.00    +0.000 A 
ENDBRANCH  13  14
ENDBRANCH   9  13
ENDBRANCH   6   7
BRANCH   1  20
ATOM     20  O   UNL     1       3.453   6.841  18.225  0.00  0.00    +0.000 OA
BRANCH  20  24
ATOM     21  C   UNL     1       0.660   9.639  19.511  0.00  0.00    +0.000 A 
ATOM     22  C   UNL     1       0.950   9.562  18.141  0.00  0.00    +0.000 A 
ATOM     23  C   UNL     1       1.796   8.567  17.651  0.00  0.00    +0.000 A 
ATOM     24  C   UNL     1       2.408   7.683  18.539  0.00  0.00    +0.000 A 
ATOM     25  C   UNL     1       2.042   7.687  19.889  0.00  0.00    +0.000 A 
ATOM     26  C   UNL     1       1.170   8.665  20.375  0.00  0.00    +0.000 A 
BRANCH  21  28
ATOM     27  C   UNL     1       0.471  11.441  21.205  0.00  0.00    +0.000 C 
ATOM     28  C   UNL     1      -0.204  10.758  20.029  0.00  0.00    +0.000 C 
ENDBRANCH  21  28
ENDBRANCH  20  24
ENDBRANCH   1  20
TORSDOF 7
ENDMDL
MODEL 9
REMARK VINA RESULT:      -7.9      1.031      1.338
REMARK  Name = 
REMARK  8 active torsions:
REMARK  status: ('A' for Active; 'I' for Inactive)
REMARK    1  A    between atoms: C_1  and  C_2
REMARK    2  A    between atoms: C_2  and  C_3
REMARK    3  A    between atoms: C_6  and  O_7
REMARK    4  A    between atoms: O_7  and  C_8
REMARK    5  A    between atoms: C_13  and  C_14
REMARK    6  A    between atoms: N_15  and  O_16
REMARK    7  A    between atoms: N_17  and  C_18
REMARK    8  A    between atoms: C_18  and  C_19
REMARK                            x       y       z     vdW  Elec       q    Type
REMARK                         _______ _______ _______ _____ _____    ______ ____
ROOT
ATOM      1  C   UNL     1       4.127   5.263  19.159  0.00  0.00    +0.000 A 
ATOM      2  N   UNL     1       4.413   3.970  19.470  0.00  0.00    +0.000 NA
ATOM      3  C   UNL     1       3.423   3.211  19.987  0.00  0.00    +0.000 A 
ATOM      4  C   UNL     1       2.139   3.671  20.203  0.00  0.00    +0.000 A 
ATOM      5  C   UNL     1       1.849   4.978  19.839  0.00  0.00    +0.000 A 
ATOM      6  C   UNL     1       2.842   5.805  19.283  0.00  0.00    +0.000 A 
ENDROOT
BRANCH   6   7
ATOM      7  C   UNL     1       2.447   7.223  18.945  0.00  0.00    +0.000 C 
ATOM      8  N   UNL     1       2.650   7.533  17.694  0.00  0.00    +0.000 NA
ATOM      9  N   UNL     1       1.955   8.031  19.959  0.00  0.00    +0.000 N 
ATOM     10  H   UNL     1       1.821   7.555  20.850  0.00  0.00    +0.000 HD
BRANCH   8  11
ATOM     11  O   UNL     1       2.321   8.846  17.382  0.00  0.00    +0.000 OA
ATOM     12  H   UNL     1       2.911   9.363  17.957  0.00  0.00    +0.000 HD
ENDBRANCH   8  11
BRANCH   9  13
ATOM     13  C   UNL     1       0.862   8.984  19.744  0.00  0.00    +0.000 C 
BRANCH  13  14
ATOM     14  C   UNL     1       0.382   9.655  20.999  0.00  0.00    +0.000 A 
ATOM     15  C   UNL     1       0.510   8.986  22.226  0.00  0.00    +0.000 A 
ATOM     16  C   UNL     1      -0.003   9.588  23.361  0.00  0.00    +0.000 A 
ATOM     17  N   UNL     1      -0.606  10.798  23.359  0.00  0.00    +0.000 NA
ATOM     18  C   UNL     1      -0.696  11.432  22.170  0.00  0.00    +0.000 A 
ATOM     19  C   UNL     1      -0.209  10.917  20.980  0.00  0.00    +0.000 A 
ENDBRANCH  13  14
ENDBRANCH   9  13
ENDBRANCH   6   7
BRANCH   1  20
ATOM     20  O   UNL     1       5.225   5.934  18.672  0.00  0.00    +0.000 OA
BRANCH  20  24
ATOM     21  C   UNL     1       6.371   4.700  14.871  0.00  0.00    +0.000 A 
ATOM     22  C   UNL     1       5.394   5.698  14.986  0.00  0.00    +0.000 A 
ATOM     23  C   UNL     1       5.057   6.221  16.234  0.00  0.00    +0.000 A 
ATOM     24  C   UNL     1       5.652   5.700  17.384  0.00  0.00    +0.000 A 
ATOM     25  C   UNL     1       6.701   4.782  17.268  0.00  0.00    +0.000 A 
ATOM     26  C   UNL     1       7.059   4.281  16.014  0.00  0.00    +0.000 A 
BRANCH  21  28
ATOM     27  C   UNL     1       7.632   4.997  12.756  0.00  0.00    +0.000 C 
ATOM     28  C   UNL     1       6.675   4.103  13.523  0.00  0.00    +0.000 C 
ENDBRANCH  21  28
ENDBRANCH  20  24
ENDBRANCH   1  20
TORSDOF 7
ENDMDL
