MODEL 1
REMARK VINA RESULT:      -8.1      0.000      0.000
REMARK  Name = 
REMARK  6 active torsions:
REMARK  status: ('A' for Active; 'I' for Inactive)
REMARK    1  A    between atoms: C_1  and  C_2
REMARK    2  A    between atoms: C_2  and  C_3
REMARK    3  A    between atoms: C_2  and  C_4
REMARK    4  A    between atoms: C_7  and  S_8
REMARK    5  A    between atoms: S_8  and  N_11
REMARK    6  A    between atoms: C_15  and  C_16
REMARK                            x       y       z     vdW  Elec       q    Type
REMARK                         _______ _______ _______ _____ _____    ______ ____
ROOT
ATOM      1  N   UNL     1       3.057   2.794  19.772  0.00  0.00    +0.000 N 
ATOM      2  N   UNL     1       2.998   2.072  20.916  0.00  0.00    +0.000 NA
ATOM      3  N   UNL     1       4.253   1.859  21.266  0.00  0.00    +0.000 NA
ATOM      4  N   UNL     1       5.112   2.454  20.384  0.00  0.00    +0.000 NA
ATOM      5  C   UNL     1       4.380   3.063  19.459  0.00  0.00    +0.000 A 
ENDROOT
BRANCH   5   6
ATOM      6  C   UNL     1       4.930   4.013  18.483  0.00  0.00    +0.000 A 
ATOM      7  C   UNL     1       5.549   5.236  18.822  0.00  0.00    +0.000 A 
ATOM      8  C   UNL     1       6.309   5.955  17.891  0.00  0.00    +0.000 A 
ATOM      9  C   UNL     1       6.400   5.442  16.622  0.00  0.00    +0.000 A 
ATOM     10  C   UNL     1       5.685   4.331  16.244  0.00  0.00    +0.000 A 
ATOM     11  C   UNL     1       4.913   3.621  17.134  0.00  0.00    +0.000 A 
ATOM     12  O   UNL     1       5.932   3.976  14.953  0.00  0.00    +0.000 OA
ATOM     13  C   UNL     1       7.111   4.771  14.717  0.00  0.00    +0.000 C 
ATOM     14  O   UNL     1       7.206   5.891  15.623  0.00  0.00    +0.000 OA
ENDBRANCH   5   6
BRANCH   1  15
ATOM     15  S   UNL     1       1.705   3.402  18.956  0.00  0.00    +0.000 S 
ATOM     16  O   UNL     1       0.549   2.990  19.735  0.00  0.00    +0.000 OA
ATOM     17  O   UNL     1       1.879   3.036  17.563  0.00  0.00    +0.000 OA
BRANCH  15  21
ATOM     18  C   UNL     1       1.972   7.948  19.308  0.00  0.00    +0.000 A 
ATOM     19  C   UNL     1       2.131   7.305  18.067  0.00  0.00    +0.000 A 
ATOM     20  C   UNL     1       2.057   5.919  17.966  0.00  0.00    +0.000 A 
ATOM     21  C   UNL     1       1.817   5.160  19.114  0.00  0.00    +0.000 A 
ATOM     22  C   UNL     1       1.699   5.769  20.363  0.00  0.00    +0.000 A 
ATOM     23  C   UNL     1       1.761   7.160  20.448  0.00  0.00    +0.000 A 
BRANCH  18  25
ATOM     24  C   UNL     1       1.901   9.988  17.897  0.00  0.00    +0.000 C 
ATOM     25  C   UNL     1       1.942   9.465  19.336  0.00  0.00    +0.000 C 
ATOM     26  C   UNL     1       0.800  10.058  20.162  0.00  0.00    +0.000 C 
ENDBRANCH  18  25
ENDBRANCH  15  21
ENDBRANCH   1  15
TORSDOF 4
ENDMDL
MODEL 2
REMARK VINA RESULT:      -8.1      3.158      6.600
REMARK  Name = 
REMARK  6 active torsions:
REMARK  status: ('A' for Active; 'I' for Inactive)
REMARK    1  A    between atoms: C_1  and  C_2
REMARK    2  A    between atoms: C_2  and  C_3
REMARK    3  A    between atoms: C_2  and  C_4
REMARK    4  A    between atoms: C_7  and  S_8
REMARK    5  A    between atoms: S_8  and  N_11
REMARK    6  A    between atoms: C_15  and  C_16
REMARK                            x       y       z     vdW  Elec       q    Type
REMARK                         _______ _______ _______ _____ _____    ______ ____
ROOT
ATOM      1  N   UNL     1       6.644   6.124  18.560  0.00  0.00    +0.000 N 
ATOM      2  N   UNL     1       7.886   6.158  19.099  0.00  0.00    +0.000 NA
ATOM      3  N   UNL     1       7.865   5.289  20.093  0.00  0.00    +0.000 NA
ATOM      4  N   UNL     1       6.644   4.679  20.180  0.00  0.00    +0.000 NA
ATOM      5  C   UNL     1       5.878   5.171  19.214  0.00  0.00    +0.000 A 
ENDROOT
BRANCH   5   6
ATOM      6  C   UNL     1       4.584   4.593  18.829  0.00  0.00    +0.000 A 
ATOM      7  C   UNL     1       4.416   3.604  17.836  0.00  0.00    +0.000 A 
ATOM      8  C   UNL     1       3.222   2.884  17.714  0.00  0.00    +0.000 A 
ATOM      9  C   UNL     1       2.204   3.203  18.577  0.00  0.00    +0.000 A 
ATOM     10  C   UNL     1       2.307   4.259  19.450  0.00  0.00    +0.000 A 
ATOM     11  C   UNL     1       3.461   4.996  19.572  0.00  0.00    +0.000 A 
ATOM     12  O   UNL     1       1.198   4.391  20.228  0.00  0.00    +0.000 OA
ATOM     13  C   UNL     1       0.582   3.114  19.972  0.00  0.00    +0.000 C 
ATOM     14  O   UNL     1       1.034   2.527  18.732  0.00  0.00    +0.000 OA
ENDBRANCH   5   6
BRANCH   1  15
ATOM     15  S   UNL     1       6.174   7.000  17.191  0.00  0.00    +0.000 S 
ATOM     16  O   UNL     1       7.275   7.901  16.894  0.00  0.00    +0.000 OA
ATOM     17  O   UNL     1       4.829   7.472  17.459  0.00  0.00    +0.000 OA
BRANCH  15  21
ATOM     18  C   UNL     1       6.007   3.986  13.762  0.00  0.00    +0.000 A 
ATOM     19  C   UNL     1       4.934   4.861  14.013  0.00  0.00    +0.000 A 
ATOM     20  C   UNL     1       4.986   5.772  15.064  0.00  0.00    +0.000 A 
ATOM     21  C   UNL     1       6.122   5.818  15.875  0.00  0.00    +0.000 A 
ATOM     22  C   UNL     1       7.181   4.932  15.676  0.00  0.00    +0.000 A 
ATOM     23  C   UNL     1       7.122   4.033  14.610  0.00  0.00    +0.000 A 
BRANCH  18  25
ATOM     24  C   UNL     1       4.625   3.363  11.799  0.00  0.00    +0.000 C 
ATOM     25  C   UNL     1       5.943   3.101  12.531  0.00  0.00    +0.000 C 
ATOM     26  C   UNL     1       7.132   3.254  11.583  0.00  0.00    +0.000 C 
ENDBRANCH  18  25
ENDBRANCH  15  21
ENDBRANCH   1  15
TORSDOF 4
ENDMDL
MODEL 3
REMARK VINA RESULT:      -7.7      2.989      4.876
REMARK  Name = 
REMARK  6 active torsions:
REMARK  status: ('A' for Active; 'I' for Inactive)
REMARK    1  A    between atoms: C_1  and  C_2
REMARK    2  A    between atoms: C_2  and  C_3
REMARK    3  A    between atoms: C_2  and  C_4
REMARK    4  A    between atoms: C_7  and  S_8
REMARK    5  A    between atoms: S_8  and  N_11
REMARK    6  A    between atoms: C_15  and  C_16
REMARK                            x       y       z     vdW  Elec       q    Type
REMARK                         _______ _______ _______ _____ _____    ______ ____
ROOT
ATOM      1  N   UNL     1       6.445   4.797  16.518  0.00  0.00    +0.000 N 
ATOM      2  N   UNL     1       7.162   5.305  15.487  0.00  0.00    +0.000 NA
ATOM      3  N   UNL     1       6.811   4.597  14.429  0.00  0.00    +0.000 NA
ATOM      4  N   UNL     1       5.864   3.668  14.757  0.00  0.00    +0.000 NA
ATOM      5  C   UNL     1       5.606   3.796  16.053  0.00  0.00    +0.000 A 
ENDROOT
BRANCH   5   6
ATOM      6  C   UNL     1       4.474   3.145  16.724  0.00  0.00    +0.000 A 
ATOM      7  C   UNL     1       4.575   1.969  17.500  0.00  0.00    +0.000 A 
ATOM      8  C   UNL     1       3.539   1.561  18.348  0.00  0.00    +0.000 A 
ATOM      9  C   UNL     1       2.403   2.330  18.372  0.00  0.00    +0.000 A 
ATOM     10  C   UNL     1       2.239   3.393  17.517  0.00  0.00    +0.000 A 
ATOM     11  C   UNL     1       3.232   3.800  16.657  0.00  0.00    +0.000 A 
ATOM     12  O   UNL     1       1.054   4.034  17.716  0.00  0.00    +0.000 OA
ATOM     13  C   UNL     1       0.695   3.463  18.989  0.00  0.00    +0.000 C 
ATOM     14  O   UNL     1       1.357   2.203  19.231  0.00  0.00    +0.000 OA
ENDBRANCH   5   6
BRANCH   1  15
ATOM     15  S   UNL     1       6.467   5.416  18.092  0.00  0.00    +0.000 S 
ATOM     16  O   UNL     1       7.493   6.445  18.104  0.00  0.00    +0.000 OA
ATOM     17  O   UNL     1       6.505   4.266  18.976  0.00  0.00    +0.000 OA
BRANCH  15  21
ATOM     18  C   UNL     1       2.472   7.558  18.657  0.00  0.00    +0.000 A 
ATOM     19  C   UNL     1       2.898   6.565  19.558  0.00  0.00    +0.000 A 
ATOM     20  C   UNL     1       4.112   5.909  19.377  0.00  0.00    +0.000 A 
ATOM     21  C   UNL     1       4.918   6.248  18.288  0.00  0.00    +0.000 A 
ATOM     22  C   UNL     1       4.500   7.197  17.355  0.00  0.00    +0.000 A 
ATOM     23  C   UNL     1       3.287   7.857  17.556  0.00  0.00    +0.000 A 
BRANCH  18  25
ATOM     24  C   UNL     1       1.172   8.645  20.468  0.00  0.00    +0.000 C 
ATOM     25  C   UNL     1       1.199   8.321  18.972  0.00  0.00    +0.000 C 
ATOM     26  C   UNL     1       1.000   9.587  18.138  0.00  0.00    +0.000 C 
ENDBRANCH  18  25
ENDBRANCH  15  21
ENDBRANCH   1  15
TORSDOF 4
ENDMDL
MODEL 4
REMARK VINA RESULT:      -7.6      2.597      6.207
REMARK  Name = 
REMARK  6 active torsions:
REMARK  status: ('A' for Active; 'I' for Inactive)
REMARK    1  A    between atoms: C_1  and  C_2
REMARK    2  A    between atoms: C_2  and  C_3
REMARK    3  A    between atoms: C_2  and  C_4
REMARK    4  A    between atoms: C_7  and  S_8
REMARK    5  A    between atoms: S_8  and  N_11
REMARK    6  A    between atoms: C_15  and  C_16
REMARK                            x       y       z     vdW  Elec       q    Type
REMARK                         _______ _______ _______ _____ _____    ______ ____
ROOT
ATOM      1  N   UNL     1       3.241   3.757  19.104  0.00  0.00    +0.000 N 
ATOM      2  N   UNL     1       2.748   2.512  18.898  0.00  0.00    +0.000 NA
ATOM      3  N   UNL     1       1.438   2.658  18.821  0.00  0.00    +0.000 NA
ATOM      4  N   UNL     1       1.086   3.973  18.946  0.00  0.00    +0.000 NA
ATOM      5  C   UNL     1       2.202   4.675  19.098  0.00  0.00    +0.000 A 
ENDROOT
BRANCH   5   6
ATOM      6  C   UNL     1       2.258   6.141  19.018  0.00  0.00    +0.000 A 
ATOM      7  C   UNL     1       2.520   6.866  17.836  0.00  0.00    +0.000 A 
ATOM      8  C   UNL     1       2.273   8.241  17.750  0.00  0.00    +0.000 A 
ATOM      9  C   UNL     1       1.799   8.867  18.875  0.00  0.00    +0.000 A 
ATOM     10  C   UNL     1       1.677   8.200  20.070  0.00  0.00    +0.000 A 
ATOM     11  C   UNL     1       1.936   6.854  20.185  0.00  0.00    +0.000 A 
ATOM     12  O   UNL     1       1.171   8.995  21.052  0.00  0.00    +0.000 OA
ATOM     13  C   UNL     1       0.688  10.084  20.242  0.00  0.00    +0.000 C 
ATOM     14  O   UNL     1       1.349  10.148  18.959  0.00  0.00    +0.000 OA
ENDBRANCH   5   6
BRANCH   1  15
ATOM     15  S   UNL     1       4.889   4.128  19.189  0.00  0.00    +0.000 S 
ATOM     16  O   UNL     1       5.538   2.948  19.735  0.00  0.00    +0.000 OA
ATOM     17  O   UNL     1       4.975   5.430  19.823  0.00  0.00    +0.000 OA
BRANCH  15  21
ATOM     18  C   UNL     1       6.212   4.493  14.832  0.00  0.00    +0.000 A 
ATOM     19  C   UNL     1       4.916   4.058  15.164  0.00  0.00    +0.000 A 
ATOM     20  C   UNL     1       4.520   3.941  16.493  0.00  0.00    +0.000 A 
ATOM     21  C   UNL     1       5.423   4.264  17.508  0.00  0.00    +0.000 A 
ATOM     22  C   UNL     1       6.728   4.655  17.208  0.00  0.00    +0.000 A 
ATOM     23  C   UNL     1       7.107   4.783  15.871  0.00  0.00    +0.000 A 
BRANCH  18  25
ATOM     24  C   UNL     1       7.987   5.221  13.260  0.00  0.00    +0.000 C 
ATOM     25  C   UNL     1       6.545   4.717  13.369  0.00  0.00    +0.000 C 
ATOM     26  C   UNL     1       6.328   3.494  12.478  0.00  0.00    +0.000 C 
ENDBRANCH  18  25
ENDBRANCH  15  21
ENDBRANCH   1  15
TORSDOF 4
ENDMDL
MODEL 5
REMARK VINA RESULT:      -7.5      2.619      6.251
REMARK  Name = 
REMARK  6 active torsions:
REMARK  status: ('A' for Active; 'I' for Inactive)
REMARK    1  A    between atoms: C_1  and  C_2
REMARK    2  A    between atoms: C_2  and  C_3
REMARK    3  A    between atoms: C_2  and  C_4
REMARK    4  A    between atoms: C_7  and  S_8
REMARK    5  A    between atoms: S_8  and  N_11
REMARK    6  A    between atoms: C_15  and  C_16
REMARK                            x       y       z     vdW  Elec       q    Type
REMARK                         _______ _______ _______ _____ _____    ______ ____
ROOT
ATOM      1  N   UNL     1       3.193   3.811  19.192  0.00  0.00    +0.000 N 
ATOM      2  N   UNL     1       2.693   2.567  18.999  0.00  0.00    +0.000 NA
ATOM      3  N   UNL     1       1.382   2.719  18.940  0.00  0.00    +0.000 NA
ATOM      4  N   UNL     1       1.038   4.036  19.063  0.00  0.00    +0.000 NA
ATOM      5  C   UNL     1       2.159   4.734  19.196  0.00  0.00    +0.000 A 
ENDROOT
BRANCH   5   6
ATOM      6  C   UNL     1       2.220   6.199  19.109  0.00  0.00    +0.000 A 
ATOM      7  C   UNL     1       2.473   6.917  17.920  0.00  0.00    +0.000 A 
ATOM      8  C   UNL     1       2.230   8.293  17.831  0.00  0.00    +0.000 A 
ATOM      9  C   UNL     1       1.770   8.927  18.958  0.00  0.00    +0.000 A 
ATOM     10  C   UNL     1       1.658   8.265  20.157  0.00  0.00    +0.000 A 
ATOM     11  C   UNL     1       1.912   6.919  20.276  0.00  0.00    +0.000 A 
ATOM     12  O   UNL     1       1.164   9.067  21.140  0.00  0.00    +0.000 OA
ATOM     13  C   UNL     1       0.678  10.154  20.329  0.00  0.00    +0.000 C 
ATOM     14  O   UNL     1       1.326  10.209  19.040  0.00  0.00    +0.000 OA
ENDBRANCH   5   6
BRANCH   1  15
ATOM     15  S   UNL     1       4.844   4.176  19.253  0.00  0.00    +0.000 S 
ATOM     16  O   UNL     1       5.483   3.038  19.893  0.00  0.00    +0.000 OA
ATOM     17  O   UNL     1       4.938   5.524  19.781  0.00  0.00    +0.000 OA
BRANCH  15  21
ATOM     18  C   UNL     1       6.294   4.157  14.921  0.00  0.00    +0.000 A 
ATOM     19  C   UNL     1       7.152   4.527  15.972  0.00  0.00    +0.000 A 
ATOM     20  C   UNL     1       6.704   4.539  17.290  0.00  0.00    +0.000 A 
ATOM     21  C   UNL     1       5.384   4.174  17.568  0.00  0.00    +0.000 A 
ATOM     22  C   UNL     1       4.500   3.845  16.541  0.00  0.00    +0.000 A 
ATOM     23  C   UNL     1       4.967   3.823  15.226  0.00  0.00    +0.000 A 
BRANCH  18  25
ATOM     24  C   UNL     1       5.741   3.727  12.541  0.00  0.00    +0.000 C 
ATOM     25  C   UNL     1       6.872   4.045  13.523  0.00  0.00    +0.000 C 
ATOM     26  C   UNL     1       7.658   5.275  13.066  0.00  0.00    +0.000 C 
ENDBRANCH  18  25
ENDBRANCH  15  21
ENDBRANCH   1  15
TORSDOF 4
ENDMDL
MODEL 6
REMARK VINA RESULT:      -7.4      3.899      6.267
REMARK  Name = 
REMARK  6 active torsions:
REMARK  status: ('A' for Active; 'I' for Inactive)
REMARK    1  A    between atoms: C_1  and  C_2
REMARK    2  A    between atoms: C_2  and  C_3
REMARK    3  A    between atoms: C_2  and  C_4
REMARK    4  A    between atoms: C_7  and  S_8
REMARK    5  A    between atoms: S_8  and  N_11
REMARK    6  A    between atoms: C_15  and  C_16
REMARK                            x       y       z     vdW  Elec       q    Type
REMARK                         _______ _______ _______ _____ _____    ______ ____
ROOT
ATOM      1  N   UNL     1       6.682   4.640  16.292  0.00  0.00    +0.000 N 
ATOM      2  N   UNL     1       7.415   4.759  15.160  0.00  0.00    +0.000 NA
ATOM      3  N   UNL     1       6.548   4.681  14.167  0.00  0.00    +0.000 NA
ATOM      4  N   UNL     1       5.274   4.544  14.642  0.00  0.00    +0.000 NA
ATOM      5  C   UNL     1       5.337   4.542  15.968  0.00  0.00    +0.000 A 
ENDROOT
BRANCH   5   6
ATOM      6  C   UNL     1       4.160   4.659  16.838  0.00  0.00    +0.000 A 
ATOM      7  C   UNL     1       3.395   3.566  17.298  0.00  0.00    +0.000 A 
ATOM      8  C   UNL     1       2.478   3.702  18.346  0.00  0.00    +0.000 A 
ATOM      9  C   UNL     1       2.323   4.954  18.888  0.00  0.00    +0.000 A 
ATOM     10  C   UNL     1       2.955   6.050  18.354  0.00  0.00    +0.000 A 
ATOM     11  C   UNL     1       3.843   5.945  17.309  0.00  0.00    +0.000 A 
ATOM     12  O   UNL     1       2.684   7.188  19.050  0.00  0.00    +0.000 OA
ATOM     13  C   UNL     1       2.115   6.602  20.237  0.00  0.00    +0.000 C 
ATOM     14  O   UNL     1       1.612   5.270  20.003  0.00  0.00    +0.000 OA
ENDBRANCH   5   6
BRANCH   1  15
ATOM     15  S   UNL     1       7.315   4.760  17.857  0.00  0.00    +0.000 S 
ATOM     16  O   UNL     1       8.575   4.038  17.835  0.00  0.00    +0.000 OA
ATOM     17  O   UNL     1       6.231   4.414  18.756  0.00  0.00    +0.000 OA
BRANCH  15  21
ATOM     18  C   UNL     1       8.410   9.159  18.423  0.00  0.00    +0.000 A 
ATOM     19  C   UNL     1       8.807   8.185  19.357  0.00  0.00    +0.000 A 
ATOM     20  C   UNL     1       8.464   6.848  19.185  0.00  0.00    +0.000 A 
ATOM     21  C   UNL     1       7.719   6.470  18.065  0.00  0.00    +0.000 A 
ATOM     22  C   UNL     1       7.275   7.421  17.147  0.00  0.00    +0.000 A 
ATOM     23  C   UNL     1       7.637   8.757  17.324  0.00  0.00    +0.000 A 
BRANCH  18  25
ATOM     24  C   UNL     1       9.338  10.776  20.058  0.00  0.00    +0.000 C 
ATOM     25  C   UNL     1       8.915  10.579  18.600  0.00  0.00    +0.000 C 
ATOM     26  C   UNL     1      10.046  10.969  17.648  0.00  0.00    +0.000 C 
ENDBRANCH  18  25
ENDBRANCH  15  21
ENDBRANCH   1  15
TORSDOF 4
ENDMDL
MODEL 7
REMARK VINA RESULT:      -7.4      0.355      1.010
REMARK  Name = 
REMARK  6 active torsions:
REMARK  status: ('A' for Active; 'I' for Inactive)
REMARK    1  A    between atoms: C_1  and  C_2
REMARK    2  A    between atoms: C_2  and  C_3
REMARK    3  A    between atoms: C_2  and  C_4
REMARK    4  A    between atoms: C_7  and  S_8
REMARK    5  A    between atoms: S_8  and  N_11
REMARK    6  A    between atoms: C_15  and  C_16
REMARK                            x       y       z     vdW  Elec       q    Type
REMARK                         _______ _______ _______ _____ _____    ______ ____
ROOT
ATOM      1  N   UNL     1       3.132   2.800  19.668  0.00  0.00    +0.000 N 
ATOM      2  N   UNL     1       3.075   2.090  20.820  0.00  0.00    +0.000 NA
ATOM      3  N   UNL     1       4.330   1.915  21.190  0.00  0.00    +0.000 NA
ATOM      4  N   UNL     1       5.186   2.522  20.314  0.00  0.00    +0.000 NA
ATOM      5  C   UNL     1       4.453   3.101  19.371  0.00  0.00    +0.000 A 
ENDROOT
BRANCH   5   6
ATOM      6  C   UNL     1       4.992   4.054  18.393  0.00  0.00    +0.000 A 
ATOM      7  C   UNL     1       5.575   5.296  18.726  0.00  0.00    +0.000 A 
ATOM      8  C   UNL     1       6.329   6.024  17.798  0.00  0.00    +0.000 A 
ATOM      9  C   UNL     1       6.450   5.500  16.536  0.00  0.00    +0.000 A 
ATOM     10  C   UNL     1       5.769   4.367  16.161  0.00  0.00    +0.000 A 
ATOM     11  C   UNL     1       5.004   3.647  17.048  0.00  0.00    +0.000 A 
ATOM     12  O   UNL     1       6.043   4.005  14.877  0.00  0.00    +0.000 OA
ATOM     13  C   UNL     1       7.204   4.828  14.649  0.00  0.00    +0.000 C 
ATOM     14  O   UNL     1       7.259   5.959  15.544  0.00  0.00    +0.000 OA
ENDBRANCH   5   6
BRANCH   1  15
ATOM     15  S   UNL     1       1.777   3.362  18.825  0.00  0.00    +0.000 S 
ATOM     16  O   UNL     1       0.621   2.822  19.520  0.00  0.00    +0.000 OA
ATOM     17  O   UNL     1       2.038   3.099  17.423  0.00  0.00    +0.000 OA
BRANCH  15  21
ATOM     18  C   UNL     1       1.735   7.868  19.576  0.00  0.00    +0.000 A 
ATOM     19  C   UNL     1       1.442   6.957  20.607  0.00  0.00    +0.000 A 
ATOM     20  C   UNL     1       1.448   5.585  20.372  0.00  0.00    +0.000 A 
ATOM     21  C   UNL     1       1.754   5.111  19.094  0.00  0.00    +0.000 A 
ATOM     22  C   UNL     1       2.004   5.993  18.043  0.00  0.00    +0.000 A 
ATOM     23  C   UNL     1       2.009   7.365  18.296  0.00  0.00    +0.000 A 
BRANCH  18  25
ATOM     24  C   UNL     1       1.413  10.167  18.701  0.00  0.00    +0.000 C 
ATOM     25  C   UNL     1       1.832   9.342  19.921  0.00  0.00    +0.000 C 
ATOM     26  C   UNL     1       1.031   9.754  21.156  0.00  0.00    +0.000 C 
ENDBRANCH  18  25
ENDBRANCH  15  21
ENDBRANCH   1  15
TORSDOF 4
ENDMDL
MODEL 8
REMARK VINA RESULT:      -7.3      0.844      1.509
REMARK  Name = 
REMARK  6 active torsions:
REMARK  status: ('A' for Active; 'I' for Inactive)
REMARK    1  A    between atoms: C_1  and  C_2
REMARK    2  A    between atoms: C_2  and  C_3
REMARK    3  A    between atoms: C_2  and  C_4
REMARK    4  A    between atoms: C_7  and  S_8
REMARK    5  A    between atoms: S_8  and  N_11
REMARK    6  A    between atoms: C_15  and  C_16
REMARK                            x       y       z     vdW  Elec       q    Type
REMARK                         _______ _______ _______ _____ _____    ______ ____
ROOT
ATOM      1  N   UNL     1       3.037   2.639  19.916  0.00  0.00    +0.000 N 
ATOM      2  N   UNL     1       2.955   2.050  21.133  0.00  0.00    +0.000 NA
ATOM      3  N   UNL     1       4.202   1.797  21.488  0.00  0.00    +0.000 NA
ATOM      4  N   UNL     1       5.078   2.240  20.537  0.00  0.00    +0.000 NA
ATOM      5  C   UNL     1       4.368   2.790  19.560  0.00  0.00    +0.000 A 
ENDROOT
BRANCH   5   6
ATOM      6  C   UNL     1       4.956   3.594  18.481  0.00  0.00    +0.000 A 
ATOM      7  C   UNL     1       4.688   3.405  17.108  0.00  0.00    +0.000 A 
ATOM      8  C   UNL     1       5.035   4.368  16.154  0.00  0.00    +0.000 A 
ATOM      9  C   UNL     1       5.682   5.493  16.601  0.00  0.00    +0.000 A 
ATOM     10  C   UNL     1       6.075   5.621  17.911  0.00  0.00    +0.000 A 
ATOM     11  C   UNL     1       5.766   4.677  18.863  0.00  0.00    +0.000 A 
ATOM     12  O   UNL     1       6.680   6.816  18.151  0.00  0.00    +0.000 OA
ATOM     13  C   UNL     1       6.300   7.513  16.948  0.00  0.00    +0.000 C 
ATOM     14  O   UNL     1       5.962   6.608  15.875  0.00  0.00    +0.000 OA
ENDBRANCH   5   6
BRANCH   1  15
ATOM     15  S   UNL     1       1.709   3.239  19.056  0.00  0.00    +0.000 S 
ATOM     16  O   UNL     1       0.532   2.852  19.815  0.00  0.00    +0.000 OA
ATOM     17  O   UNL     1       1.913   2.844  17.675  0.00  0.00    +0.000 OA
BRANCH  15  21
ATOM     18  C   UNL     1       2.004   7.790  19.318  0.00  0.00    +0.000 A 
ATOM     19  C   UNL     1       2.232   7.116  18.105  0.00  0.00    +0.000 A 
ATOM     20  C   UNL     1       2.149   5.729  18.031  0.00  0.00    +0.000 A 
ATOM     21  C   UNL     1       1.831   5.000  19.180  0.00  0.00    +0.000 A 
ATOM     22  C   UNL     1       1.643   5.639  20.405  0.00  0.00    +0.000 A 
ATOM     23  C   UNL     1       1.715   7.031  20.461  0.00  0.00    +0.000 A 
BRANCH  18  25
ATOM     24  C   UNL     1       1.799   9.794  17.871  0.00  0.00    +0.000 C 
ATOM     25  C   UNL     1       1.989   9.307  19.309  0.00  0.00    +0.000 C 
ATOM     26  C   UNL     1       0.947   9.933  20.237  0.00  0.00    +0.000 C 
ENDBRANCH  18  25
ENDBRANCH  15  21
ENDBRANCH   1  15
TORSDOF 4
ENDMDL
MODEL 9
REMARK VINA RESULT:      -7.2      3.165      6.893
REMARK  Name = 
REMARK  6 active torsions:
REMARK  status: ('A' for Active; 'I' for Inactive)
REMARK    1  A    between atoms: C_1  and  C_2
REMARK    2  A    between atoms: C_2  and  C_3
REMARK    3  A    between atoms: C_2  and  C_4
REMARK    4  A    between atoms: C_7  and  S_8
REMARK    5  A    between atoms: S_8  and  N_11
REMARK    6  A    between atoms: C_15  and  C_16
REMARK                            x       y       z     vdW  Elec       q    Type
REMARK                         _______ _______ _______ _____ _____    ______ ____
ROOT
ATOM      1  N   UNL     1       4.132   6.834  17.780  0.00  0.00    +0.000 N 
ATOM      2  N   UNL     1       4.282   8.148  17.484  0.00  0.00    +0.000 NA
ATOM      3  N   UNL     1       3.060   8.646  17.456  0.00  0.00    +0.000 NA
ATOM      4  N   UNL     1       2.135   7.685  17.756  0.00  0.00    +0.000 NA
ATOM      5  C   UNL     1       2.790   6.554  17.985  0.00  0.00    +0.000 A 
ENDROOT
BRANCH   5   6
ATOM      6  C   UNL     1       2.169   5.360  18.574  0.00  0.00    +0.000 A 
ATOM      7  C   UNL     1       1.672   4.269  17.828  0.00  0.00    +0.000 A 
ATOM      8  C   UNL     1       1.365   3.046  18.435  0.00  0.00    +0.000 A 
ATOM      9  C   UNL     1       1.531   2.958  19.795  0.00  0.00    +0.000 A 
ATOM     10  C   UNL     1       1.876   4.055  20.547  0.00  0.00    +0.000 A 
ATOM     11  C   UNL     1       2.161   5.273  19.976  0.00  0.00    +0.000 A 
ATOM     12  O   UNL     1       2.010   3.750  21.867  0.00  0.00    +0.000 OA
ATOM     13  C   UNL     1       2.048   2.312  21.769  0.00  0.00    +0.000 C 
ATOM     14  O   UNL     1       1.444   1.830  20.549  0.00  0.00    +0.000 OA
ENDBRANCH   5   6
BRANCH   1  15
ATOM     15  S   UNL     1       5.415   5.757  18.018  0.00  0.00    +0.000 S 
ATOM     16  O   UNL     1       4.885   4.678  18.834  0.00  0.00    +0.000 OA
ATOM     17  O   UNL     1       6.546   6.566  18.432  0.00  0.00    +0.000 OA
BRANCH  15  21
ATOM     18  C   UNL     1       6.211   3.978  13.887  0.00  0.00    +0.000 A 
ATOM     19  C   UNL     1       4.993   3.752  14.553  0.00  0.00    +0.000 A 
ATOM     20  C   UNL     1       4.757   4.289  15.815  0.00  0.00    +0.000 A 
ATOM     21  C   UNL     1       5.746   5.067  16.424  0.00  0.00    +0.000 A 
ATOM     22  C   UNL     1       6.979   5.270  15.805  0.00  0.00    +0.000 A 
ATOM     23  C   UNL     1       7.197   4.737  14.534  0.00  0.00    +0.000 A 
BRANCH  18  25
ATOM     24  C   UNL     1       4.971   3.273  11.858  0.00  0.00    +0.000 C 
ATOM     25  C   UNL     1       6.362   3.469  12.466  0.00  0.00    +0.000 C 
ATOM     26  C   UNL     1       7.229   4.353  11.569  0.00  0.00    +0.000 C 
ENDBRANCH  18  25
ENDBRANCH  15  21
ENDBRANCH   1  15
TORSDOF 4
ENDMDL
