MODEL 1
REMARK VINA RESULT:      -7.7      0.000      0.000
REMARK  Name = 
REMARK  7 active torsions:
REMARK  status: ('A' for Active; 'I' for Inactive)
REMARK    1  A    between atoms: C_1  and  O_2
REMARK    2  A    between atoms: O_2  and  C_3
REMARK    3  A    between atoms: C_8  and  C_9
REMARK    4  A    between atoms: C_10  and  C_11
REMARK    5  A    between atoms: N_19  and  C_20
REMARK    6  A    between atoms: C_20  and  C_21
REMARK    7  A    between atoms: C_20  and  C_22
REMARK                            x       y       z     vdW  Elec       q    Type
REMARK                         _______ _______ _______ _____ _____    ______ ____
ROOT
ATOM      1  C   UNL     1       5.437   4.090  16.187  0.00  0.00    +0.000 A 
ATOM      2  N   UNL     1       5.136   3.449  15.074  0.00  0.00    +0.000 NA
ATOM      3  C   UNL     1       5.984   3.926  14.115  0.00  0.00    +0.000 A 
ATOM      4  C   UNL     1       6.068   3.577  12.759  0.00  0.00    +0.000 A 
ATOM      5  C   UNL     1       7.039   4.189  11.960  0.00  0.00    +0.000 A 
ATOM      6  C   UNL     1       7.912   5.130  12.505  0.00  0.00    +0.000 A 
ATOM      7  C   UNL     1       7.829   5.503  13.855  0.00  0.00    +0.000 A 
ATOM      8  C   UNL     1       6.838   4.889  14.637  0.00  0.00    +0.000 A 
ATOM      9  N   UNL     1       6.426   5.037  15.956  0.00  0.00    +0.000 N 
ENDROOT
BRANCH   9  10
ATOM     10  C   UNL     1       6.875   6.122  16.835  0.00  0.00    +0.000 C 
ATOM     11  C   UNL     1       5.791   7.169  17.123  0.00  0.00    +0.000 C 
ATOM     12  C   UNL     1       7.548   5.640  18.122  0.00  0.00    +0.000 C 
ENDBRANCH   9  10
BRANCH   1  14
ATOM     13  C   UNL     1       3.872   3.057  17.691  0.00  0.00    +0.000 C 
ATOM     14  C   UNL     1       4.843   3.953  17.466  0.00  0.00    +0.000 C 
BRANCH  13  20
ATOM     15  C   UNL     1       3.575   2.655  20.225  0.00  0.00    +0.000 A 
ATOM     16  C   UNL     1       2.709   2.654  21.329  0.00  0.00    +0.000 A 
ATOM     17  C   UNL     1       1.362   2.979  21.177  0.00  0.00    +0.000 A 
ATOM     18  C   UNL     1       0.859   3.279  19.918  0.00  0.00    +0.000 A 
ATOM     19  C   UNL     1       1.708   3.263  18.810  0.00  0.00    +0.000 A 
ATOM     20  C   UNL     1       3.077   2.967  18.941  0.00  0.00    +0.000 A 
BRANCH  15  22
ATOM     21  C   UNL     1       5.174   1.137  21.111  0.00  0.00    +0.000 C 
ATOM     22  O   UNL     1       4.900   2.310  20.350  0.00  0.00    +0.000 OA
ENDBRANCH  15  22
ENDBRANCH  13  20
ENDBRANCH   1  14
TORSDOF 4
ENDMDL
MODEL 2
REMARK VINA RESULT:      -7.6      1.425      1.929
REMARK  Name = 
REMARK  7 active torsions:
REMARK  status: ('A' for Active; 'I' for Inactive)
REMARK    1  A    between atoms: C_1  and  O_2
REMARK    2  A    between atoms: O_2  and  C_3
REMARK    3  A    between atoms: C_8  and  C_9
REMARK    4  A    between atoms: C_10  and  C_11
REMARK    5  A    between atoms: N_19  and  C_20
REMARK    6  A    between atoms: C_20  and  C_21
REMARK    7  A    between atoms: C_20  and  C_22
REMARK                            x       y       z     vdW  Elec       q    Type
REMARK                         _______ _______ _______ _____ _____    ______ ____
ROOT
ATOM      1  C   UNL     1       5.491   3.988  16.049  0.00  0.00    +0.000 A 
ATOM      2  N   UNL     1       5.212   3.390  14.906  0.00  0.00    +0.000 NA
ATOM      3  C   UNL     1       6.061   3.920  13.977  0.00  0.00    +0.000 A 
ATOM      4  C   UNL     1       6.164   3.629  12.609  0.00  0.00    +0.000 A 
ATOM      5  C   UNL     1       7.133   4.289  11.847  0.00  0.00    +0.000 A 
ATOM      6  C   UNL     1       7.986   5.220  12.440  0.00  0.00    +0.000 A 
ATOM      7  C   UNL     1       7.884   5.534  13.804  0.00  0.00    +0.000 A 
ATOM      8  C   UNL     1       6.895   4.873  14.549  0.00  0.00    +0.000 A 
ATOM      9  N   UNL     1       6.468   4.958  15.868  0.00  0.00    +0.000 N 
ENDROOT
BRANCH   9  10
ATOM     10  C   UNL     1       6.891   6.013  16.797  0.00  0.00    +0.000 C 
ATOM     11  C   UNL     1       5.791   7.035  17.110  0.00  0.00    +0.000 C 
ATOM     12  C   UNL     1       7.551   5.486  18.073  0.00  0.00    +0.000 C 
ENDBRANCH   9  10
BRANCH   1  14
ATOM     13  C   UNL     1       3.556   3.835  17.467  0.00  0.00    +0.000 C 
ATOM     14  C   UNL     1       4.887   3.788  17.314  0.00  0.00    +0.000 C 
BRANCH  13  20
ATOM     15  C   UNL     1       2.698   4.909  19.653  0.00  0.00    +0.000 A 
ATOM     16  C   UNL     1       1.964   4.753  20.839  0.00  0.00    +0.000 A 
ATOM     17  C   UNL     1       1.365   3.533  21.150  0.00  0.00    +0.000 A 
ATOM     18  C   UNL     1       1.518   2.449  20.296  0.00  0.00    +0.000 A 
ATOM     19  C   UNL     1       2.264   2.587  19.125  0.00  0.00    +0.000 A 
ATOM     20  C   UNL     1       2.853   3.815  18.773  0.00  0.00    +0.000 A 
BRANCH  15  22
ATOM     21  C   UNL     1       2.461   7.189  19.028  0.00  0.00    +0.000 C 
ATOM     22  O   UNL     1       3.318   6.095  19.343  0.00  0.00    +0.000 OA
ENDBRANCH  15  22
ENDBRANCH  13  20
ENDBRANCH   1  14
TORSDOF 4
ENDMDL
MODEL 3
REMARK VINA RESULT:      -7.6      5.070      6.517
REMARK  Name = 
REMARK  7 active torsions:
REMARK  status: ('A' for Active; 'I' for Inactive)
REMARK    1  A    between atoms: C_1  and  O_2
REMARK    2  A    between atoms: O_2  and  C_3
REMARK    3  A    between atoms: C_8  and  C_9
REMARK    4  A    between atoms: C_10  and  C_11
REMARK    5  A    between atoms: N_19  and  C_20
REMARK    6  A    between atoms: C_20  and  C_21
REMARK    7  A    between atoms: C_20  and  C_22
REMARK                            x       y       z     vdW  Elec       q    Type
REMARK                         _______ _______ _______ _____ _____    ______ ____
ROOT
ATOM      1  C   UNL     1       2.839   6.774  18.669  0.00  0.00    +0.000 A 
ATOM      2  N   UNL     1       3.680   7.393  17.862  0.00  0.00    +0.000 NA
ATOM      3  C   UNL     1       4.278   6.420  17.112  0.00  0.00    +0.000 A 
ATOM      4  C   UNL     1       5.255   6.551  16.114  0.00  0.00    +0.000 A 
ATOM      5  C   UNL     1       5.712   5.405  15.458  0.00  0.00    +0.000 A 
ATOM      6  C   UNL     1       5.200   4.150  15.788  0.00  0.00    +0.000 A 
ATOM      7  C   UNL     1       4.235   4.000  16.796  0.00  0.00    +0.000 A 
ATOM      8  C   UNL     1       3.801   5.161  17.454  0.00  0.00    +0.000 A 
ATOM      9  N   UNL     1       2.927   5.398  18.509  0.00  0.00    +0.000 N 
ENDROOT
BRANCH   9  10
ATOM     10  C   UNL     1       2.369   4.341  19.360  0.00  0.00    +0.000 C 
ATOM     11  C   UNL     1       1.297   3.492  18.663  0.00  0.00    +0.000 C 
ATOM     12  C   UNL     1       3.427   3.467  20.036  0.00  0.00    +0.000 C 
ENDBRANCH   9  10
BRANCH   1  14
ATOM     13  C   UNL     1       1.575   8.617  19.558  0.00  0.00    +0.000 C 
ATOM     14  C   UNL     1       1.980   7.341  19.643  0.00  0.00    +0.000 C 
BRANCH  13  20
ATOM     15  C   UNL     1      -0.043  10.434  20.422  0.00  0.00    +0.000 A 
ATOM     16  C   UNL     1      -0.723  10.989  21.517  0.00  0.00    +0.000 A 
ATOM     17  C   UNL     1      -0.564  10.458  22.796  0.00  0.00    +0.000 A 
ATOM     18  C   UNL     1       0.296   9.387  23.001  0.00  0.00    +0.000 A 
ATOM     19  C   UNL     1       0.992   8.841  21.921  0.00  0.00    +0.000 A 
ATOM     20  C   UNL     1       0.828   9.339  20.617  0.00  0.00    +0.000 A 
BRANCH  15  22
ATOM     21  C   UNL     1      -1.439  10.815  18.537  0.00  0.00    +0.000 C 
ATOM     22  O   UNL     1      -0.165  10.961  19.159  0.00  0.00    +0.000 OA
ENDBRANCH  15  22
ENDBRANCH  13  20
ENDBRANCH   1  14
TORSDOF 4
ENDMDL
MODEL 4
REMARK VINA RESULT:      -7.4      5.463      7.273
REMARK  Name = 
REMARK  7 active torsions:
REMARK  status: ('A' for Active; 'I' for Inactive)
REMARK    1  A    between atoms: C_1  and  O_2
REMARK    2  A    between atoms: O_2  and  C_3
REMARK    3  A    between atoms: C_8  and  C_9
REMARK    4  A    between atoms: C_10  and  C_11
REMARK    5  A    between atoms: N_19  and  C_20
REMARK    6  A    between atoms: C_20  and  C_21
REMARK    7  A    between atoms: C_20  and  C_22
REMARK                            x       y       z     vdW  Elec       q    Type
REMARK                         _______ _______ _______ _____ _____    ______ ____
ROOT
ATOM      1  C   UNL     1       2.308   6.737  19.541  0.00  0.00    +0.000 A 
ATOM      2  N   UNL     1       3.214   7.149  18.673  0.00  0.00    +0.000 NA
ATOM      3  C   UNL     1       3.681   6.030  18.045  0.00  0.00    +0.000 A 
ATOM      4  C   UNL     1       4.659   5.923  17.045  0.00  0.00    +0.000 A 
ATOM      5  C   UNL     1       4.965   4.660  16.529  0.00  0.00    +0.000 A 
ATOM      6  C   UNL     1       4.305   3.525  16.998  0.00  0.00    +0.000 A 
ATOM      7  C   UNL     1       3.337   3.613  18.010  0.00  0.00    +0.000 A 
ATOM      8  C   UNL     1       3.054   4.887  18.527  0.00  0.00    +0.000 A 
ATOM      9  N   UNL     1       2.225   5.351  19.541  0.00  0.00    +0.000 N 
ENDROOT
BRANCH   9  10
ATOM     10  C   UNL     1       1.546   4.476  20.504  0.00  0.00    +0.000 C 
ATOM     11  C   UNL     1       0.688   3.387  19.848  0.00  0.00    +0.000 C 
ATOM     12  C   UNL     1       2.474   3.894  21.573  0.00  0.00    +0.000 C 
ENDBRANCH   9  10
BRANCH   1  14
ATOM     13  C   UNL     1       1.133   8.753  20.117  0.00  0.00    +0.000 C 
ATOM     14  C   UNL     1       1.534   7.514  20.436  0.00  0.00    +0.000 C 
BRANCH  13  20
ATOM     15  C   UNL     1       0.268  11.077  20.837  0.00  0.00    +0.000 A 
ATOM     16  C   UNL     1      -0.412  11.841  21.797  0.00  0.00    +0.000 A 
ATOM     17  C   UNL     1      -0.906  11.248  22.959  0.00  0.00    +0.000 A 
ATOM     18  C   UNL     1      -0.699   9.894  23.187  0.00  0.00    +0.000 A 
ATOM     19  C   UNL     1      -0.005   9.130  22.248  0.00  0.00    +0.000 A 
ATOM     20  C   UNL     1       0.477   9.698  21.055  0.00  0.00    +0.000 A 
BRANCH  15  22
ATOM     21  C   UNL     1      -0.119  12.423  18.917  0.00  0.00    +0.000 C 
ATOM     22  O   UNL     1       0.786  11.650  19.700  0.00  0.00    +0.000 OA
ENDBRANCH  15  22
ENDBRANCH  13  20
ENDBRANCH   1  14
TORSDOF 4
ENDMDL
MODEL 5
REMARK VINA RESULT:      -7.4      5.225      6.806
REMARK  Name = 
REMARK  7 active torsions:
REMARK  status: ('A' for Active; 'I' for Inactive)
REMARK    1  A    between atoms: C_1  and  O_2
REMARK    2  A    between atoms: O_2  and  C_3
REMARK    3  A    between atoms: C_8  and  C_9
REMARK    4  A    between atoms: C_10  and  C_11
REMARK    5  A    between atoms: N_19  and  C_20
REMARK    6  A    between atoms: C_20  and  C_21
REMARK    7  A    between atoms: C_20  and  C_22
REMARK                            x       y       z     vdW  Elec       q    Type
REMARK                         _______ _______ _______ _____ _____    ______ ____
ROOT
ATOM      1  C   UNL     1       3.052   7.139  17.990  0.00  0.00    +0.000 A 
ATOM      2  N   UNL     1       4.114   7.509  17.300  0.00  0.00    +0.000 NA
ATOM      3  C   UNL     1       4.704   6.359  16.858  0.00  0.00    +0.000 A 
ATOM      4  C   UNL     1       5.867   6.203  16.089  0.00  0.00    +0.000 A 
ATOM      5  C   UNL     1       6.277   4.915  15.733  0.00  0.00    +0.000 A 
ATOM      6  C   UNL     1       5.538   3.802  16.133  0.00  0.00    +0.000 A 
ATOM      7  C   UNL     1       4.382   3.939  16.917  0.00  0.00    +0.000 A 
ATOM      8  C   UNL     1       3.995   5.240  17.278  0.00  0.00    +0.000 A 
ATOM      9  N   UNL     1       2.974   5.755  18.067  0.00  0.00    +0.000 N 
ENDROOT
BRANCH   9  10
ATOM     10  C   UNL     1       2.115   4.934  18.928  0.00  0.00    +0.000 C 
ATOM     11  C   UNL     1       1.345   3.844  18.171  0.00  0.00    +0.000 C 
ATOM     12  C   UNL     1       2.830   4.368  20.157  0.00  0.00    +0.000 C 
ENDBRANCH   9  10
BRANCH   1  14
ATOM     13  C   UNL     1       1.405   8.891  17.992  0.00  0.00    +0.000 C 
ATOM     14  C   UNL     1       2.108   7.961  18.654  0.00  0.00    +0.000 C 
BRANCH  13  20
ATOM     15  C   UNL     1      -0.778  10.249  18.233  0.00  0.00    +0.000 A 
ATOM     16  C   UNL     1      -1.504  11.201  18.965  0.00  0.00    +0.000 A 
ATOM     17  C   UNL     1      -0.954  11.798  20.098  0.00  0.00    +0.000 A 
ATOM     18  C   UNL     1       0.337  11.475  20.494  0.00  0.00    +0.000 A 
ATOM     19  C   UNL     1       1.076  10.546  19.761  0.00  0.00    +0.000 A 
ATOM     20  C   UNL     1       0.533   9.907  18.631  0.00  0.00    +0.000 A 
BRANCH  15  22
ATOM     21  C   UNL     1      -2.630  10.028  16.762  0.00  0.00    +0.000 C 
ATOM     22  O   UNL     1      -1.293   9.670  17.098  0.00  0.00    +0.000 OA
ENDBRANCH  15  22
ENDBRANCH  13  20
ENDBRANCH   1  14
TORSDOF 4
ENDMDL
MODEL 6
REMARK VINA RESULT:      -7.2      4.992      6.815
REMARK  Name = 
REMARK  7 active torsions:
REMARK  status: ('A' for Active; 'I' for Inactive)
REMARK    1  A    between atoms: C_1  and  O_2
REMARK    2  A    between atoms: O_2  and  C_3
REMARK    3  A    between atoms: C_8  and  C_9
REMARK    4  A    between atoms: C_10  and  C_11
REMARK    5  A    between atoms: N_19  and  C_20
REMARK    6  A    between atoms: C_20  and  C_21
REMARK    7  A    between atoms: C_20  and  C_22
REMARK                            x       y       z     vdW  Elec       q    Type
REMARK                         _______ _______ _______ _____ _____    ______ ____
ROOT
ATOM      1  C   UNL     1       3.191   7.135  17.837  0.00  0.00    +0.000 A 
ATOM      2  N   UNL     1       4.270   7.449  17.145  0.00  0.00    +0.000 NA
ATOM      3  C   UNL     1       4.827   6.268  16.746  0.00  0.00    +0.000 A 
ATOM      4  C   UNL     1       5.992   6.052  15.993  0.00  0.00    +0.000 A 
ATOM      5  C   UNL     1       6.364   4.741  15.682  0.00  0.00    +0.000 A 
ATOM      6  C   UNL     1       5.588   3.665  16.111  0.00  0.00    +0.000 A 
ATOM      7  C   UNL     1       4.431   3.863  16.879  0.00  0.00    +0.000 A 
ATOM      8  C   UNL     1       4.081   5.186  17.195  0.00  0.00    +0.000 A 
ATOM      9  N   UNL     1       3.070   5.757  17.957  0.00  0.00    +0.000 N 
ENDROOT
BRANCH   9  10
ATOM     10  C   UNL     1       2.179   4.991  18.837  0.00  0.00    +0.000 C 
ATOM     11  C   UNL     1       1.383   3.901  18.108  0.00  0.00    +0.000 C 
ATOM     12  C   UNL     1       2.866   4.444  20.090  0.00  0.00    +0.000 C 
ENDBRANCH   9  10
BRANCH   1  14
ATOM     13  C   UNL     1       2.051   9.245  18.002  0.00  0.00    +0.000 C 
ATOM     14  C   UNL     1       2.267   8.006  18.465  0.00  0.00    +0.000 C 
BRANCH  13  20
ATOM     15  C   UNL     1       1.468  11.672  18.664  0.00  0.00    +0.000 A 
ATOM     16  C   UNL     1       0.588  12.537  19.332  0.00  0.00    +0.000 A 
ATOM     17  C   UNL     1      -0.523  12.037  20.011  0.00  0.00    +0.000 A 
ATOM     18  C   UNL     1      -0.750  10.668  20.054  0.00  0.00    +0.000 A 
ATOM     19  C   UNL     1       0.131   9.798  19.411  0.00  0.00    +0.000 A 
ATOM     20  C   UNL     1       1.242  10.278  18.695  0.00  0.00    +0.000 A 
BRANCH  15  22
ATOM     21  C   UNL     1       2.970  13.480  18.319  0.00  0.00    +0.000 C 
ATOM     22  O   UNL     1       2.583  12.144  18.013  0.00  0.00    +0.000 OA
ENDBRANCH  15  22
ENDBRANCH  13  20
ENDBRANCH   1  14
TORSDOF 4
ENDMDL
MODEL 7
REMARK VINA RESULT:      -7.2      2.336      7.190
REMARK  Name = 
REMARK  7 active torsions:
REMARK  status: ('A' for Active; 'I' for Inactive)
REMARK    1  A    between atoms: C_1  and  O_2
REMARK    2  A    between atoms: O_2  and  C_3
REMARK    3  A    between atoms: C_8  and  C_9
REMARK    4  A    between atoms: C_10  and  C_11
REMARK    5  A    between atoms: N_19  and  C_20
REMARK    6  A    between atoms: C_20  and  C_21
REMARK    7  A    between atoms: C_20  and  C_22
REMARK                            x       y       z     vdW  Elec       q    Type
REMARK                         _______ _______ _______ _____ _____    ______ ____
ROOT
ATOM      1  C   UNL     1       4.293   3.642  17.379  0.00  0.00    +0.000 A 
ATOM      2  N   UNL     1       3.515   2.595  17.577  0.00  0.00    +0.000 NA
ATOM      3  C   UNL     1       2.735   2.896  18.657  0.00  0.00    +0.000 A 
ATOM      4  C   UNL     1       1.750   2.114  19.278  0.00  0.00    +0.000 A 
ATOM      5  C   UNL     1       1.055   2.641  20.371  0.00  0.00    +0.000 A 
ATOM      6  C   UNL     1       1.336   3.927  20.834  0.00  0.00    +0.000 A 
ATOM      7  C   UNL     1       2.331   4.714  20.235  0.00  0.00    +0.000 A 
ATOM      8  C   UNL     1       3.028   4.162  19.149  0.00  0.00    +0.000 A 
ATOM      9  N   UNL     1       4.084   4.602  18.360  0.00  0.00    +0.000 N 
ENDROOT
BRANCH   9  10
ATOM     10  C   UNL     1       4.892   5.788  18.666  0.00  0.00    +0.000 C 
ATOM     11  C   UNL     1       6.333   5.461  19.078  0.00  0.00    +0.000 C 
ATOM     12  C   UNL     1       4.848   6.865  17.580  0.00  0.00    +0.000 C 
ENDBRANCH   9  10
BRANCH   1  14
ATOM     13  C   UNL     1       4.962   4.273  15.157  0.00  0.00    +0.000 C 
ATOM     14  C   UNL     1       5.281   3.824  16.379  0.00  0.00    +0.000 C 
BRANCH  13  20
ATOM     15  C   UNL     1       5.664   3.779  12.722  0.00  0.00    +0.000 A 
ATOM     16  C   UNL     1       6.622   3.946  11.710  0.00  0.00    +0.000 A 
ATOM     17  C   UNL     1       7.794   4.664  11.950  0.00  0.00    +0.000 A 
ATOM     18  C   UNL     1       8.034   5.196  13.209  0.00  0.00    +0.000 A 
ATOM     19  C   UNL     1       7.097   5.018  14.229  0.00  0.00    +0.000 A 
ATOM     20  C   UNL     1       5.895   4.324  14.004  0.00  0.00    +0.000 A 
BRANCH  15  22
ATOM     21  C   UNL     1       3.982   3.090  11.192  0.00  0.00    +0.000 C 
ATOM     22  O   UNL     1       4.517   3.052  12.512  0.00  0.00    +0.000 OA
ENDBRANCH  15  22
ENDBRANCH  13  20
ENDBRANCH   1  14
TORSDOF 4
ENDMDL
MODEL 8
REMARK VINA RESULT:      -7.2      5.504      8.538
REMARK  Name = 
REMARK  7 active torsions:
REMARK  status: ('A' for Active; 'I' for Inactive)
REMARK    1  A    between atoms: C_1  and  O_2
REMARK    2  A    between atoms: O_2  and  C_3
REMARK    3  A    between atoms: C_8  and  C_9
REMARK    4  A    between atoms: C_10  and  C_11
REMARK    5  A    between atoms: N_19  and  C_20
REMARK    6  A    between atoms: C_20  and  C_21
REMARK    7  A    between atoms: C_20  and  C_22
REMARK                            x       y       z     vdW  Elec       q    Type
REMARK                         _______ _______ _______ _____ _____    ______ ____
ROOT
ATOM      1  C   UNL     1       1.515   8.533  19.812  0.00  0.00    +0.000 A 
ATOM      2  N   UNL     1       1.495   8.213  21.092  0.00  0.00    +0.000 NA
ATOM      3  C   UNL     1       0.658   9.105  21.699  0.00  0.00    +0.000 A 
ATOM      4  C   UNL     1       0.303   9.202  23.053  0.00  0.00    +0.000 A 
ATOM      5  C   UNL     1      -0.599  10.195  23.447  0.00  0.00    +0.000 A 
ATOM      6  C   UNL     1      -1.140  11.073  22.508  0.00  0.00    +0.000 A 
ATOM      7  C   UNL     1      -0.782  11.000  21.153  0.00  0.00    +0.000 A 
ATOM      8  C   UNL     1       0.136  10.007  20.779  0.00  0.00    +0.000 A 
ATOM      9  N   UNL     1       0.754   9.671  19.580  0.00  0.00    +0.000 N 
ENDROOT
BRANCH   9  10
ATOM     10  C   UNL     1       0.702  10.505  18.374  0.00  0.00    +0.000 C 
ATOM     11  C   UNL     1      -0.712  10.672  17.802  0.00  0.00    +0.000 C 
ATOM     12  C   UNL     1       1.413  11.852  18.520  0.00  0.00    +0.000 C 
ENDBRANCH   9  10
BRANCH   1  14
ATOM     13  C   UNL     1       2.674   6.648  18.873  0.00  0.00    +0.000 C 
ATOM     14  C   UNL     1       2.234   7.910  18.763  0.00  0.00    +0.000 C 
BRANCH  13  20
ATOM     15  C   UNL     1       3.723   4.589  17.721  0.00  0.00    +0.000 A 
ATOM     16  C   UNL     1       4.589   4.100  16.730  0.00  0.00    +0.000 A 
ATOM     17  C   UNL     1       5.297   4.977  15.909  0.00  0.00    +0.000 A 
ATOM     18  C   UNL     1       5.172   6.348  16.088  0.00  0.00    +0.000 A 
ATOM     19  C   UNL     1       4.329   6.844  17.084  0.00  0.00    +0.000 A 
ATOM     20  C   UNL     1       3.581   5.982  17.906  0.00  0.00    +0.000 A 
BRANCH  15  22
ATOM     21  C   UNL     1       2.005   2.965  17.958  0.00  0.00    +0.000 C 
ATOM     22  O   UNL     1       3.038   3.741  18.558  0.00  0.00    +0.000 OA
ENDBRANCH  15  22
ENDBRANCH  13  20
ENDBRANCH   1  14
TORSDOF 4
ENDMDL
MODEL 9
REMARK VINA RESULT:      -7.1      1.188      1.295
REMARK  Name = 
REMARK  7 active torsions:
REMARK  status: ('A' for Active; 'I' for Inactive)
REMARK    1  A    between atoms: C_1  and  O_2
REMARK    2  A    between atoms: O_2  and  C_3
REMARK    3  A    between atoms: C_8  and  C_9
REMARK    4  A    between atoms: C_10  and  C_11
REMARK    5  A    between atoms: N_19  and  C_20
REMARK    6  A    between atoms: C_20  and  C_21
REMARK    7  A    between atoms: C_20  and  C_22
REMARK                            x       y       z     vdW  Elec       q    Type
REMARK                         _______ _______ _______ _____ _____    ______ ____
ROOT
ATOM      1  C   UNL     1       5.460   4.044  15.897  0.00  0.00    +0.000 A 
ATOM      2  N   UNL     1       5.230   3.446  14.744  0.00  0.00    +0.000 NA
ATOM      3  C   UNL     1       6.115   3.979  13.851  0.00  0.00    +0.000 A 
ATOM      4  C   UNL     1       6.276   3.690  12.488  0.00  0.00    +0.000 A 
ATOM      5  C   UNL     1       7.274   4.353  11.767  0.00  0.00    +0.000 A 
ATOM      6  C   UNL     1       8.098   5.286  12.396  0.00  0.00    +0.000 A 
ATOM      7  C   UNL     1       7.939   5.600  13.754  0.00  0.00    +0.000 A 
ATOM      8  C   UNL     1       6.922   4.935  14.457  0.00  0.00    +0.000 A 
ATOM      9  N   UNL     1       6.440   5.018  15.758  0.00  0.00    +0.000 N 
ENDROOT
BRANCH   9  10
ATOM     10  C   UNL     1       6.821   6.073  16.703  0.00  0.00    +0.000 C 
ATOM     11  C   UNL     1       5.673   7.030  17.054  0.00  0.00    +0.000 C 
ATOM     12  C   UNL     1       7.526   5.555  17.959  0.00  0.00    +0.000 C 
ENDBRANCH   9  10
BRANCH   1  14
ATOM     13  C   UNL     1       3.491   4.074  17.278  0.00  0.00    +0.000 C 
ATOM     14  C   UNL     1       4.804   3.842  17.136  0.00  0.00    +0.000 C 
BRANCH  13  20
ATOM     15  C   UNL     1       2.324   2.912  19.266  0.00  0.00    +0.000 A 
ATOM     16  C   UNL     1       1.687   3.050  20.509  0.00  0.00    +0.000 A 
ATOM     17  C   UNL     1       1.502   4.310  21.078  0.00  0.00    +0.000 A 
ATOM     18  C   UNL     1       1.923   5.445  20.399  0.00  0.00    +0.000 A 
ATOM     19  C   UNL     1       2.539   5.320  19.152  0.00  0.00    +0.000 A 
ATOM     20  C   UNL     1       2.764   4.060  18.571  0.00  0.00    +0.000 A 
BRANCH  15  22
ATOM     21  C   UNL     1       3.730   1.027  18.929  0.00  0.00    +0.000 C 
ATOM     22  O   UNL     1       2.490   1.682  18.677  0.00  0.00    +0.000 OA
ENDBRANCH  15  22
ENDBRANCH  13  20
ENDBRANCH   1  14
TORSDOF 4
ENDMDL
