MODEL 1
REMARK VINA RESULT:      -6.9      0.000      0.000
REMARK  Name = 
REMARK  8 active torsions:
REMARK  status: ('A' for Active; 'I' for Inactive)
REMARK    1  A    between atoms: C_1  and  O_2
REMARK    2  A    between atoms: O_2  and  C_3
REMARK    3  A    between atoms: C_3  and  C_5
REMARK    4  A    between atoms: C_6  and  N_7
REMARK    5  A    between atoms: C_11  and  C_12
REMARK    6  A    between atoms: N_13  and  C_14
REMARK    7  A    between atoms: C_14  and  C_15
REMARK    8  A    between atoms: C_23  and  C_24
REMARK                            x       y       z     vdW  Elec       q    Type
REMARK                         _______ _______ _______ _____ _____    ______ ____
ROOT
ATOM      1  C   UNL     1       0.128  10.708  19.910  0.00  0.00    +0.000 C 
ATOM      2  C   UNL     1       0.546   9.907  18.912  0.00  0.00    +0.000 C 
ATOM      3  O   UNL     1      -0.233   9.710  17.776  0.00  0.00    +0.000 OA
ATOM      4  C   UNL     1      -1.506  10.238  17.719  0.00  0.00    +0.000 A 
ATOM      5  C   UNL     1      -2.220   9.963  16.510  0.00  0.00    +0.000 A 
ATOM      6  C   UNL     1      -3.412  10.536  16.267  0.00  0.00    +0.000 A 
ATOM      7  C   UNL     1      -4.031  10.351  14.909  0.00  0.00    +0.000 C 
ATOM      8  N   UNL     1      -4.022  11.331  17.254  0.00  0.00    +0.000 N 
ATOM      9  C   UNL     1      -3.404  11.551  18.499  0.00  0.00    +0.000 A 
ATOM     10  O   UNL     1      -3.931  12.173  19.421  0.00  0.00    +0.000 OA
ATOM     11  C   UNL     1      -2.016  11.036  18.661  0.00  0.00    +0.000 A 
ATOM     12  C   UNL     1      -1.193  11.460  19.849  0.00  0.00    +0.000 C 
ENDROOT
BRANCH  12  13
ATOM     13  C   UNL     1      -0.953  12.977  19.844  0.00  0.00    +0.000 A 
ATOM     14  C   UNL     1      -1.380  13.751  20.935  0.00  0.00    +0.000 A 
ATOM     15  C   UNL     1      -1.163  15.130  20.959  0.00  0.00    +0.000 A 
ATOM     16  C   UNL     1      -0.524  15.749  19.889  0.00  0.00    +0.000 A 
ATOM     17 CL   UNL     1      -0.257  17.449  19.921  0.00  0.00    +0.000 Cl
ATOM     18  C   UNL     1      -0.097  15.001  18.794  0.00  0.00    +0.000 A 
ATOM     19  C   UNL     1      -0.307  13.620  18.771  0.00  0.00    +0.000 A 
ENDBRANCH  12  13
BRANCH   2  20
ATOM     20  N   UNL     1       1.735   9.220  18.867  0.00  0.00    +0.000 N 
ATOM     21  H   UNL     1       1.947   8.720  19.739  0.00  0.00    +0.000 HD
ATOM     22  H   UNL     1       2.502   9.794  18.546  0.00  0.00    +0.000 HD
ENDBRANCH   2  20
BRANCH   1  23
ATOM     23  C   UNL     1       0.985  10.896  21.109  0.00  0.00    +0.000 C 
ATOM     24  O   UNL     1       1.568  11.932  21.390  0.00  0.00    +0.000 OA
BRANCH  23  26
ATOM     25  C   UNL     1       0.078   9.675  22.887  0.00  0.00    +0.000 C 
ATOM     26  O   UNL     1       1.026   9.744  21.824  0.00  0.00    +0.000 OA
ENDBRANCH  23  26
ENDBRANCH   1  23
BRANCH   8  27
ATOM     27  C   UNL     1      -5.261  12.094  16.993  0.00  0.00    +0.000 C 
BRANCH  27  28
ATOM     28  C   UNL     1      -6.537  11.728  17.780  0.00  0.00    +0.000 C 
ATOM     29  C   UNL     1      -7.040  12.711  18.821  0.00  0.00    +0.000 C 
ATOM     30  C   UNL     1      -7.683  11.849  19.882  0.00  0.00    +0.000 C 
ATOM     31  C   UNL     1      -7.215  10.439  19.597  0.00  0.00    +0.000 C 
ATOM     32  O   UNL     1      -6.410  10.453  18.419  0.00  0.00    +0.000 OA
ENDBRANCH  27  28
ENDBRANCH   8  27
TORSDOF 6
ENDMDL
MODEL 2
REMARK VINA RESULT:      -6.6      2.893      4.770
REMARK  Name = 
REMARK  8 active torsions:
REMARK  status: ('A' for Active; 'I' for Inactive)
REMARK    1  A    between atoms: C_1  and  O_2
REMARK    2  A    between atoms: O_2  and  C_3
REMARK    3  A    between atoms: C_3  and  C_5
REMARK    4  A    between atoms: C_6  and  N_7
REMARK    5  A    between atoms: C_11  and  C_12
REMARK    6  A    between atoms: N_13  and  C_14
REMARK    7  A    between atoms: C_14  and  C_15
REMARK    8  A    between atoms: C_23  and  C_24
REMARK                            x       y       z     vdW  Elec       q    Type
REMARK                         _______ _______ _______ _____ _____    ______ ____
ROOT
ATOM      1  C   UNL     1       0.600  10.458  19.992  0.00  0.00    +0.000 C 
ATOM      2  C   UNL     1       0.665   9.780  21.153  0.00  0.00    +0.000 C 
ATOM      3  O   UNL     1      -0.210  10.061  22.198  0.00  0.00    +0.000 OA
ATOM      4  C   UNL     1      -1.074  11.131  22.097  0.00  0.00    +0.000 A 
ATOM      5  C   UNL     1      -1.918  11.335  23.234  0.00  0.00    +0.000 A 
ATOM      6  C   UNL     1      -2.902  12.251  23.209  0.00  0.00    +0.000 A 
ATOM      7  C   UNL     1      -3.867  12.297  24.361  0.00  0.00    +0.000 C 
ATOM      8  N   UNL     1      -3.041  13.099  22.096  0.00  0.00    +0.000 N 
ATOM      9  C   UNL     1      -2.172  13.005  20.992  0.00  0.00    +0.000 A 
ATOM     10  O   UNL     1      -2.204  13.773  20.032  0.00  0.00    +0.000 OA
ATOM     11  C   UNL     1      -1.206  11.871  20.992  0.00  0.00    +0.000 A 
ATOM     12  C   UNL     1      -0.438  11.542  19.740  0.00  0.00    +0.000 C 
ENDROOT
BRANCH  12  13
ATOM     13  C   UNL     1      -1.381  11.134  18.600  0.00  0.00    +0.000 A 
ATOM     14  C   UNL     1      -1.473  11.939  17.453  0.00  0.00    +0.000 A 
ATOM     15  C   UNL     1      -2.315  11.583  16.398  0.00  0.00    +0.000 A 
ATOM     16  C   UNL     1      -3.080  10.424  16.483  0.00  0.00    +0.000 A 
ATOM     17 CL   UNL     1      -4.118   9.988  15.182  0.00  0.00    +0.000 Cl
ATOM     18  C   UNL     1      -3.010   9.614  17.614  0.00  0.00    +0.000 A 
ATOM     19  C   UNL     1      -2.162   9.965  18.669  0.00  0.00    +0.000 A 
ENDBRANCH  12  13
BRANCH   2  20
ATOM     20  N   UNL     1       1.543   8.766  21.453  0.00  0.00    +0.000 N 
ATOM     21  H   UNL     1       2.490   9.100  21.665  0.00  0.00    +0.000 HD
ATOM     22  H   UNL     1       1.530   8.028  20.763  0.00  0.00    +0.000 HD
ENDBRANCH   2  20
BRANCH   1  23
ATOM     23  C   UNL     1       1.550  10.131  18.897  0.00  0.00    +0.000 C 
ATOM     24  O   UNL     1       2.240  10.951  18.309  0.00  0.00    +0.000 OA
BRANCH  23  26
ATOM     25  C   UNL     1       2.579   8.326  17.821  0.00  0.00    +0.000 C 
ATOM     26  O   UNL     1       1.521   8.798  18.651  0.00  0.00    +0.000 OA
ENDBRANCH  23  26
ENDBRANCH   1  23
BRANCH   8  27
ATOM     27  C   UNL     1      -4.182  14.028  21.954  0.00  0.00    +0.000 C 
BRANCH  27  28
ATOM     28  C   UNL     1      -5.424  13.562  21.163  0.00  0.00    +0.000 C 
ATOM     29  C   UNL     1      -6.713  14.344  21.333  0.00  0.00    +0.000 C 
ATOM     30  C   UNL     1      -7.808  13.317  21.164  0.00  0.00    +0.000 C 
ATOM     31  C   UNL     1      -7.122  11.972  21.267  0.00  0.00    +0.000 C 
ATOM     32  O   UNL     1      -5.720  12.185  21.418  0.00  0.00    +0.000 OA
ENDBRANCH  27  28
ENDBRANCH   8  27
TORSDOF 6
ENDMDL
MODEL 3
REMARK VINA RESULT:      -6.5      2.858      4.811
REMARK  Name = 
REMARK  8 active torsions:
REMARK  status: ('A' for Active; 'I' for Inactive)
REMARK    1  A    between atoms: C_1  and  O_2
REMARK    2  A    between atoms: O_2  and  C_3
REMARK    3  A    between atoms: C_3  and  C_5
REMARK    4  A    between atoms: C_6  and  N_7
REMARK    5  A    between atoms: C_11  and  C_12
REMARK    6  A    between atoms: N_13  and  C_14
REMARK    7  A    between atoms: C_14  and  C_15
REMARK    8  A    between atoms: C_23  and  C_24
REMARK                            x       y       z     vdW  Elec       q    Type
REMARK                         _______ _______ _______ _____ _____    ______ ____
ROOT
ATOM      1  C   UNL     1       0.620  10.400  19.944  0.00  0.00    +0.000 C 
ATOM      2  C   UNL     1       0.668   9.721  21.106  0.00  0.00    +0.000 C 
ATOM      3  O   UNL     1      -0.196  10.029  22.153  0.00  0.00    +0.000 OA
ATOM      4  C   UNL     1      -1.027  11.125  22.054  0.00  0.00    +0.000 A 
ATOM      5  C   UNL     1      -1.861  11.355  23.193  0.00  0.00    +0.000 A 
ATOM      6  C   UNL     1      -2.816  12.302  23.170  0.00  0.00    +0.000 A 
ATOM      7  C   UNL     1      -3.776  12.378  24.325  0.00  0.00    +0.000 C 
ATOM      8  N   UNL     1      -2.931  13.153  22.057  0.00  0.00    +0.000 N 
ATOM      9  C   UNL     1      -2.069  13.032  20.951  0.00  0.00    +0.000 A 
ATOM     10  O   UNL     1      -2.080  13.800  19.991  0.00  0.00    +0.000 OA
ATOM     11  C   UNL     1      -1.139  11.868  20.949  0.00  0.00    +0.000 A 
ATOM     12  C   UNL     1      -0.384  11.515  19.695  0.00  0.00    +0.000 C 
ENDROOT
BRANCH  12  13
ATOM     13  C   UNL     1      -1.344  11.136  18.558  0.00  0.00    +0.000 A 
ATOM     14  C   UNL     1      -1.422  11.950  17.416  0.00  0.00    +0.000 A 
ATOM     15  C   UNL     1      -2.279  11.620  16.364  0.00  0.00    +0.000 A 
ATOM     16  C   UNL     1      -3.070  10.478  16.447  0.00  0.00    +0.000 A 
ATOM     17 CL   UNL     1      -4.125  10.074  15.148  0.00  0.00    +0.000 Cl
ATOM     18  C   UNL     1      -3.013   9.661  17.573  0.00  0.00    +0.000 A 
ATOM     19  C   UNL     1      -2.151   9.985  18.624  0.00  0.00    +0.000 A 
ENDBRANCH  12  13
BRANCH   2  20
ATOM     20  N   UNL     1       1.514   8.680  21.403  0.00  0.00    +0.000 N 
ATOM     21  H   UNL     1       1.267   7.807  20.924  0.00  0.00    +0.000 HD
ATOM     22  H   UNL     1       1.644   8.560  22.399  0.00  0.00    +0.000 HD
ENDBRANCH   2  20
BRANCH   1  23
ATOM     23  C   UNL     1       1.556  10.043  18.847  0.00  0.00    +0.000 C 
ATOM     24  O   UNL     1       2.263  10.843  18.251  0.00  0.00    +0.000 OA
BRANCH  23  26
ATOM     25  C   UNL     1       2.606   8.183  17.891  0.00  0.00    +0.000 C 
ATOM     26  O   UNL     1       1.493   8.710  18.609  0.00  0.00    +0.000 OA
ENDBRANCH  23  26
ENDBRANCH   1  23
BRANCH   8  27
ATOM     27  C   UNL     1      -4.044  14.117  21.918  0.00  0.00    +0.000 C 
BRANCH  27  28
ATOM     28  C   UNL     1      -5.313  13.680  21.155  0.00  0.00    +0.000 C 
ATOM     29  C   UNL     1      -5.327  12.300  20.524  0.00  0.00    +0.000 C 
ATOM     30  C   UNL     1      -6.194  12.450  19.296  0.00  0.00    +0.000 C 
ATOM     31  C   UNL     1      -6.335  13.940  19.079  0.00  0.00    +0.000 C 
ATOM     32  O   UNL     1      -5.660  14.622  20.135  0.00  0.00    +0.000 OA
ENDBRANCH  27  28
ENDBRANCH   8  27
TORSDOF 6
ENDMDL
MODEL 4
REMARK VINA RESULT:      -6.5      3.913      7.782
REMARK  Name = 
REMARK  8 active torsions:
REMARK  status: ('A' for Active; 'I' for Inactive)
REMARK    1  A    between atoms: C_1  and  O_2
REMARK    2  A    between atoms: O_2  and  C_3
REMARK    3  A    between atoms: C_3  and  C_5
REMARK    4  A    between atoms: C_6  and  N_7
REMARK    5  A    between atoms: C_11  and  C_12
REMARK    6  A    between atoms: N_13  and  C_14
REMARK    7  A    between atoms: C_14  and  C_15
REMARK    8  A    between atoms: C_23  and  C_24
REMARK                            x       y       z     vdW  Elec       q    Type
REMARK                         _______ _______ _______ _____ _____    ______ ____
ROOT
ATOM      1  C   UNL     1      -0.784  12.722  22.537  0.00  0.00    +0.000 C 
ATOM      2  C   UNL     1      -1.207  13.903  23.027  0.00  0.00    +0.000 C 
ATOM      3  O   UNL     1      -0.734  15.105  22.510  0.00  0.00    +0.000 OA
ATOM      4  C   UNL     1       0.277  15.096  21.572  0.00  0.00    +0.000 A 
ATOM      5  C   UNL     1       0.693  16.388  21.120  0.00  0.00    +0.000 A 
ATOM      6  C   UNL     1       1.567  16.516  20.106  0.00  0.00    +0.000 A 
ATOM      7  C   UNL     1       1.831  17.892  19.559  0.00  0.00    +0.000 C 
ATOM      8  N   UNL     1       2.166  15.373  19.549  0.00  0.00    +0.000 N 
ATOM      9  C   UNL     1       1.863  14.083  20.025  0.00  0.00    +0.000 A 
ATOM     10  O   UNL     1       2.418  13.061  19.624  0.00  0.00    +0.000 OA
ATOM     11  C   UNL     1       0.771  13.978  21.032  0.00  0.00    +0.000 A 
ATOM     12  C   UNL     1       0.207  12.628  21.386  0.00  0.00    +0.000 C 
ENDROOT
BRANCH  12  13
ATOM     13  C   UNL     1      -0.444  11.961  20.166  0.00  0.00    +0.000 A 
ATOM     14  C   UNL     1       0.080  10.753  19.675  0.00  0.00    +0.000 A 
ATOM     15  C   UNL     1      -0.501  10.121  18.574  0.00  0.00    +0.000 A 
ATOM     16  C   UNL     1      -1.605  10.694  17.949  0.00  0.00    +0.000 A 
ATOM     17 CL   UNL     1      -2.319   9.913  16.592  0.00  0.00    +0.000 Cl
ATOM     18  C   UNL     1      -2.136  11.894  18.416  0.00  0.00    +0.000 A 
ATOM     19  C   UNL     1      -1.560  12.525  19.522  0.00  0.00    +0.000 A 
ENDBRANCH  12  13
BRANCH   2  20
ATOM     20  N   UNL     1      -2.122  14.082  24.036  0.00  0.00    +0.000 N 
ATOM     21  H   UNL     1      -2.668  13.237  24.242  0.00  0.00    +0.000 HD
ATOM     22  H   UNL     1      -2.700  14.899  23.895  0.00  0.00    +0.000 HD
ENDBRANCH   2  20
BRANCH   1  23
ATOM     23  C   UNL     1      -1.310  11.458  23.113  0.00  0.00    +0.000 C 
ATOM     24  O   UNL     1      -2.493  11.228  23.318  0.00  0.00    +0.000 OA
BRANCH  23  26
ATOM     25  C   UNL     1      -0.469   9.284  22.909  0.00  0.00    +0.000 C 
ATOM     26  O   UNL     1      -0.281  10.616  23.380  0.00  0.00    +0.000 OA
ENDBRANCH  23  26
ENDBRANCH   1  23
BRANCH   8  27
ATOM     27  C   UNL     1       3.025  15.443  18.347  0.00  0.00    +0.000 C 
BRANCH  27  28
ATOM     28  C   UNL     1       4.540  15.676  18.531  0.00  0.00    +0.000 C 
ATOM     29  C   UNL     1       5.198  15.136  19.787  0.00  0.00    +0.000 C 
ATOM     30  C   UNL     1       6.314  16.111  20.083  0.00  0.00    +0.000 C 
ATOM     31  C   UNL     1       6.028  17.326  19.228  0.00  0.00    +0.000 C 
ATOM     32  O   UNL     1       4.870  17.066  18.436  0.00  0.00    +0.000 OA
ENDBRANCH  27  28
ENDBRANCH   8  27
TORSDOF 6
ENDMDL
MODEL 5
REMARK VINA RESULT:      -6.4      3.437      6.793
REMARK  Name = 
REMARK  8 active torsions:
REMARK  status: ('A' for Active; 'I' for Inactive)
REMARK    1  A    between atoms: C_1  and  O_2
REMARK    2  A    between atoms: O_2  and  C_3
REMARK    3  A    between atoms: C_3  and  C_5
REMARK    4  A    between atoms: C_6  and  N_7
REMARK    5  A    between atoms: C_11  and  C_12
REMARK    6  A    between atoms: N_13  and  C_14
REMARK    7  A    between atoms: C_14  and  C_15
REMARK    8  A    between atoms: C_23  and  C_24
REMARK                            x       y       z     vdW  Elec       q    Type
REMARK                         _______ _______ _______ _____ _____    ______ ____
ROOT
ATOM      1  C   UNL     1      -0.043  10.207  21.409  0.00  0.00    +0.000 C 
ATOM      2  C   UNL     1      -0.391  10.627  22.641  0.00  0.00    +0.000 C 
ATOM      3  O   UNL     1      -0.506  11.984  22.930  0.00  0.00    +0.000 OA
ATOM      4  C   UNL     1      -0.136  12.918  21.985  0.00  0.00    +0.000 A 
ATOM      5  C   UNL     1      -0.283  14.281  22.395  0.00  0.00    +0.000 A 
ATOM      6  C   UNL     1      -0.095  15.288  21.524  0.00  0.00    +0.000 A 
ATOM      7  C   UNL     1      -0.436  16.686  21.962  0.00  0.00    +0.000 C 
ATOM      8  N   UNL     1       0.357  15.012  20.222  0.00  0.00    +0.000 N 
ATOM      9  C   UNL     1       0.612  13.693  19.800  0.00  0.00    +0.000 A 
ATOM     10  O   UNL     1       1.082  13.408  18.700  0.00  0.00    +0.000 OA
ATOM     11  C   UNL     1       0.233  12.603  20.741  0.00  0.00    +0.000 A 
ATOM     12  C   UNL     1       0.219  11.175  20.265  0.00  0.00    +0.000 C 
ENDROOT
BRANCH  12  13
ATOM     13  C   UNL     1      -0.809  10.974  19.141  0.00  0.00    +0.000 A 
ATOM     14  C   UNL     1      -2.040  11.648  19.199  0.00  0.00    +0.000 A 
ATOM     15  C   UNL     1      -2.986  11.491  18.184  0.00  0.00    +0.000 A 
ATOM     16  C   UNL     1      -2.713  10.653  17.107  0.00  0.00    +0.000 A 
ATOM     17 CL   UNL     1      -3.881  10.461  15.857  0.00  0.00    +0.000 Cl
ATOM     18  C   UNL     1      -1.502   9.970  17.033  0.00  0.00    +0.000 A 
ATOM     19  C   UNL     1      -0.551  10.131  18.044  0.00  0.00    +0.000 A 
ENDBRANCH  12  13
BRANCH   2  20
ATOM     20  N   UNL     1      -0.679   9.827  23.719  0.00  0.00    +0.000 N 
ATOM     21  H   UNL     1      -1.674   9.834  23.975  0.00  0.00    +0.000 HD
ATOM     22  H   UNL     1      -0.069  10.004  24.506  0.00  0.00    +0.000 HD
ENDBRANCH   2  20
BRANCH   1  23
ATOM     23  C   UNL     1       0.069   8.752  21.135  0.00  0.00    +0.000 C 
ATOM     24  O   UNL     1      -0.786   7.924  21.416  0.00  0.00    +0.000 OA
BRANCH  23  26
ATOM     25  C   UNL     1       1.637   7.115  20.551  0.00  0.00    +0.000 C 
ATOM     26  O   UNL     1       1.260   8.491  20.542  0.00  0.00    +0.000 OA
ENDBRANCH  23  26
ENDBRANCH   1  23
BRANCH   8  27
ATOM     27  C   UNL     1       0.450  16.061  19.184  0.00  0.00    +0.000 C 
BRANCH  27  28
ATOM     28  C   UNL     1       1.798  16.786  18.979  0.00  0.00    +0.000 C 
ATOM     29  C   UNL     1       2.639  16.402  17.777  0.00  0.00    +0.000 C 
ATOM     30  C   UNL     1       4.067  16.596  18.232  0.00  0.00    +0.000 C 
ATOM     31  C   UNL     1       3.999  16.724  19.737  0.00  0.00    +0.000 C 
ATOM     32  O   UNL     1       2.630  16.678  20.139  0.00  0.00    +0.000 OA
ENDBRANCH  27  28
ENDBRANCH   8  27
TORSDOF 6
ENDMDL
MODEL 6
REMARK VINA RESULT:      -6.4      0.614      1.035
REMARK  Name = 
REMARK  8 active torsions:
REMARK  status: ('A' for Active; 'I' for Inactive)
REMARK    1  A    between atoms: C_1  and  O_2
REMARK    2  A    between atoms: O_2  and  C_3
REMARK    3  A    between atoms: C_3  and  C_5
REMARK    4  A    between atoms: C_6  and  N_7
REMARK    5  A    between atoms: C_11  and  C_12
REMARK    6  A    between atoms: N_13  and  C_14
REMARK    7  A    between atoms: C_14  and  C_15
REMARK    8  A    between atoms: C_23  and  C_24
REMARK                            x       y       z     vdW  Elec       q    Type
REMARK                         _______ _______ _______ _____ _____    ______ ____
ROOT
ATOM      1  C   UNL     1       0.126  11.009  19.873  0.00  0.00    +0.000 C 
ATOM      2  C   UNL     1       0.558  10.182  18.902  0.00  0.00    +0.000 C 
ATOM      3  O   UNL     1      -0.234   9.905  17.792  0.00  0.00    +0.000 OA
ATOM      4  C   UNL     1      -1.529  10.378  17.739  0.00  0.00    +0.000 A 
ATOM      5  C   UNL     1      -2.254  10.022  16.559  0.00  0.00    +0.000 A 
ATOM      6  C   UNL     1      -3.473  10.535  16.316  0.00  0.00    +0.000 A 
ATOM      7  C   UNL     1      -4.109  10.267  14.980  0.00  0.00    +0.000 C 
ATOM      8  N   UNL     1      -4.096  11.347  17.281  0.00  0.00    +0.000 N 
ATOM      9  C   UNL     1      -3.464  11.647  18.502  0.00  0.00    +0.000 A 
ATOM     10  O   UNL     1      -3.998  12.286  19.407  0.00  0.00    +0.000 OA
ATOM     11  C   UNL     1      -2.053  11.195  18.657  0.00  0.00    +0.000 A 
ATOM     12  C   UNL     1      -1.226  11.704  19.808  0.00  0.00    +0.000 C 
ENDROOT
BRANCH  12  13
ATOM     13  C   UNL     1      -1.048  13.227  19.733  0.00  0.00    +0.000 A 
ATOM     14  C   UNL     1      -1.545  14.036  20.769  0.00  0.00    +0.000 A 
ATOM     15  C   UNL     1      -1.387  15.422  20.729  0.00  0.00    +0.000 A 
ATOM     16  C   UNL     1      -0.736  16.014  19.650  0.00  0.00    +0.000 A 
ATOM     17 CL   UNL     1      -0.541  17.723  19.603  0.00  0.00    +0.000 Cl
ATOM     18  C   UNL     1      -0.241  15.232  18.609  0.00  0.00    +0.000 A 
ATOM     19  C   UNL     1      -0.393  13.843  18.651  0.00  0.00    +0.000 A 
ENDBRANCH  12  13
BRANCH   2  20
ATOM     20  N   UNL     1       1.773   9.542  18.862  0.00  0.00    +0.000 N 
ATOM     21  H   UNL     1       1.697   8.523  18.961  0.00  0.00    +0.000 HD
ATOM     22  H   UNL     1       2.446   9.951  19.496  0.00  0.00    +0.000 HD
ENDBRANCH   2  20
BRANCH   1  23
ATOM     23  C   UNL     1       0.997  11.283  21.045  0.00  0.00    +0.000 C 
ATOM     24  O   UNL     1       0.767  10.906  22.185  0.00  0.00    +0.000 OA
BRANCH  23  26
ATOM     25  C   UNL     1       2.102  13.342  21.183  0.00  0.00    +0.000 C 
ATOM     26  O   UNL     1       2.068  12.018  20.654  0.00  0.00    +0.000 OA
ENDBRANCH  23  26
ENDBRANCH   1  23
BRANCH   8  27
ATOM     27  C   UNL     1      -5.370  12.047  17.013  0.00  0.00    +0.000 C 
BRANCH  27  28
ATOM     28  C   UNL     1      -6.617  11.660  17.836  0.00  0.00    +0.000 C 
ATOM     29  C   UNL     1      -7.121  12.644  18.874  0.00  0.00    +0.000 C 
ATOM     30  C   UNL     1      -7.716  11.781  19.963  0.00  0.00    +0.000 C 
ATOM     31  C   UNL     1      -7.215  10.381  19.687  0.00  0.00    +0.000 C 
ATOM     32  O   UNL     1      -6.440  10.399  18.490  0.00  0.00    +0.000 OA
ENDBRANCH  27  28
ENDBRANCH   8  27
TORSDOF 6
ENDMDL
MODEL 7
REMARK VINA RESULT:      -6.4      3.382      5.539
REMARK  Name = 
REMARK  8 active torsions:
REMARK  status: ('A' for Active; 'I' for Inactive)
REMARK    1  A    between atoms: C_1  and  O_2
REMARK    2  A    between atoms: O_2  and  C_3
REMARK    3  A    between atoms: C_3  and  C_5
REMARK    4  A    between atoms: C_6  and  N_7
REMARK    5  A    between atoms: C_11  and  C_12
REMARK    6  A    between atoms: N_13  and  C_14
REMARK    7  A    between atoms: C_14  and  C_15
REMARK    8  A    between atoms: C_23  and  C_24
REMARK                            x       y       z     vdW  Elec       q    Type
REMARK                         _______ _______ _______ _____ _____    ______ ____
ROOT
ATOM      1  C   UNL     1      -2.476  14.355  23.282  0.00  0.00    +0.000 C 
ATOM      2  C   UNL     1      -3.602  14.413  24.018  0.00  0.00    +0.000 C 
ATOM      3  O   UNL     1      -4.784  13.832  23.567  0.00  0.00    +0.000 OA
ATOM      4  C   UNL     1      -4.843  13.299  22.297  0.00  0.00    +0.000 A 
ATOM      5  C   UNL     1      -6.110  12.741  21.935  0.00  0.00    +0.000 A 
ATOM      6  C   UNL     1      -6.262  12.064  20.783  0.00  0.00    +0.000 A 
ATOM      7  C   UNL     1      -7.563  11.349  20.540  0.00  0.00    +0.000 C 
ATOM      8  N   UNL     1      -5.199  11.993  19.866  0.00  0.00    +0.000 N 
ATOM      9  C   UNL     1      -3.962  12.611  20.132  0.00  0.00    +0.000 A 
ATOM     10  O   UNL     1      -3.030  12.644  19.330  0.00  0.00    +0.000 OA
ATOM     11  C   UNL     1      -3.785  13.205  21.487  0.00  0.00    +0.000 A 
ATOM     12  C   UNL     1      -2.417  13.639  21.941  0.00  0.00    +0.000 C 
ENDROOT
BRANCH  12  13
ATOM     13  C   UNL     1      -1.450  12.448  22.006  0.00  0.00    +0.000 A 
ATOM     14  C   UNL     1      -1.671  11.425  22.944  0.00  0.00    +0.000 A 
ATOM     15  C   UNL     1      -0.813  10.327  23.015  0.00  0.00    +0.000 A 
ATOM     16  C   UNL     1       0.278  10.244  22.155  0.00  0.00    +0.000 A 
ATOM     17 CL   UNL     1       1.335   8.888  22.245  0.00  0.00    +0.000 Cl
ATOM     18  C   UNL     1       0.520  11.249  21.222  0.00  0.00    +0.000 A 
ATOM     19  C   UNL     1      -0.342  12.347  21.144  0.00  0.00    +0.000 A 
ENDBRANCH  12  13
BRANCH   2  20
ATOM     20  N   UNL     1      -3.737  15.005  25.250  0.00  0.00    +0.000 N 
ATOM     21  H   UNL     1      -3.076  15.776  25.403  0.00  0.00    +0.000 HD
ATOM     22  H   UNL     1      -3.739  14.332  26.004  0.00  0.00    +0.000 HD
ENDBRANCH   2  20
BRANCH   1  23
ATOM     23  C   UNL     1      -1.232  14.986  23.793  0.00  0.00    +0.000 C 
ATOM     24  O   UNL     1      -0.839  14.910  24.948  0.00  0.00    +0.000 OA
BRANCH  23  26
ATOM     25  C   UNL     1       0.046  16.854  23.198  0.00  0.00    +0.000 C 
ATOM     26  O   UNL     1      -0.618  15.660  22.790  0.00  0.00    +0.000 OA
ENDBRANCH  23  26
ENDBRANCH   1  23
BRANCH   8  27
ATOM     27  C   UNL     1      -5.263  11.152  18.652  0.00  0.00    +0.000 C 
BRANCH  27  28
ATOM     28  C   UNL     1      -4.053  11.137  17.694  0.00  0.00    +0.000 C 
ATOM     29  C   UNL     1      -4.293  11.478  16.235  0.00  0.00    +0.000 C 
ATOM     30  C   UNL     1      -3.273  10.659  15.479  0.00  0.00    +0.000 C 
ATOM     31  C   UNL     1      -2.755   9.641  16.470  0.00  0.00    +0.000 C 
ATOM     32  O   UNL     1      -3.370   9.880  17.735  0.00  0.00    +0.000 OA
ENDBRANCH  27  28
ENDBRANCH   8  27
TORSDOF 6
ENDMDL
MODEL 8
REMARK VINA RESULT:      -6.3      3.195      4.918
REMARK  Name = 
REMARK  8 active torsions:
REMARK  status: ('A' for Active; 'I' for Inactive)
REMARK    1  A    between atoms: C_1  and  O_2
REMARK    2  A    between atoms: O_2  and  C_3
REMARK    3  A    between atoms: C_3  and  C_5
REMARK    4  A    between atoms: C_6  and  N_7
REMARK    5  A    between atoms: C_11  and  C_12
REMARK    6  A    between atoms: N_13  and  C_14
REMARK    7  A    between atoms: C_14  and  C_15
REMARK    8  A    between atoms: C_23  and  C_24
REMARK                            x       y       z     vdW  Elec       q    Type
REMARK                         _______ _______ _______ _____ _____    ______ ____
ROOT
ATOM      1  C   UNL     1      -0.783  11.554  21.776  0.00  0.00    +0.000 C 
ATOM      2  C   UNL     1      -1.214  10.935  22.892  0.00  0.00    +0.000 C 
ATOM      3  O   UNL     1      -2.408  11.308  23.502  0.00  0.00    +0.000 OA
ATOM      4  C   UNL     1      -3.100  12.407  23.039  0.00  0.00    +0.000 A 
ATOM      5  C   UNL     1      -4.305  12.705  23.749  0.00  0.00    +0.000 A 
ATOM      6  C   UNL     1      -5.146  13.660  23.313  0.00  0.00    +0.000 A 
ATOM      7  C   UNL     1      -6.478  13.807  23.995  0.00  0.00    +0.000 C 
ATOM      8  N   UNL     1      -4.791  14.454  22.208  0.00  0.00    +0.000 N 
ATOM      9  C   UNL     1      -3.569  14.265  21.535  0.00  0.00    +0.000 A 
ATOM     10  O   UNL     1      -3.179  14.984  20.615  0.00  0.00    +0.000 OA
ATOM     11  C   UNL     1      -2.748  13.093  21.948  0.00  0.00    +0.000 A 
ATOM     12  C   UNL     1      -1.575  12.667  21.106  0.00  0.00    +0.000 C 
ENDROOT
BRANCH  12  13
ATOM     13  C   UNL     1      -2.024  12.241  19.701  0.00  0.00    +0.000 A 
ATOM     14  C   UNL     1      -1.139  12.376  18.619  0.00  0.00    +0.000 A 
ATOM     15  C   UNL     1      -1.521  11.986  17.334  0.00  0.00    +0.000 A 
ATOM     16  C   UNL     1      -2.792  11.463  17.118  0.00  0.00    +0.000 A 
ATOM     17 CL   UNL     1      -3.260  10.981  15.533  0.00  0.00    +0.000 Cl
ATOM     18  C   UNL     1      -3.688  11.325  18.176  0.00  0.00    +0.000 A 
ATOM     19  C   UNL     1      -3.306  11.710  19.464  0.00  0.00    +0.000 A 
ENDBRANCH  12  13
BRANCH   2  20
ATOM     20  N   UNL     1      -0.584   9.902  23.542  0.00  0.00    +0.000 N 
ATOM     21  H   UNL     1      -0.171  10.180  24.440  0.00  0.00    +0.000 HD
ATOM     22  H   UNL     1       0.066   9.409  22.945  0.00  0.00    +0.000 HD
ENDBRANCH   2  20
BRANCH   1  23
ATOM     23  C   UNL     1       0.497  11.131  21.151  0.00  0.00    +0.000 C 
ATOM     24  O   UNL     1       1.483  11.844  21.037  0.00  0.00    +0.000 OA
BRANCH  23  26
ATOM     25  C   UNL     1       1.044   9.583  19.483  0.00  0.00    +0.000 C 
ATOM     26  O   UNL     1       0.392   9.848  20.722  0.00  0.00    +0.000 OA
ENDBRANCH  23  26
ENDBRANCH   1  23
BRANCH   8  27
ATOM     27  C   UNL     1      -5.730  15.422  21.603  0.00  0.00    +0.000 C 
BRANCH  27  28
ATOM     28  C   UNL     1      -6.678  14.936  20.485  0.00  0.00    +0.000 C 
ATOM     29  C   UNL     1      -6.846  13.441  20.291  0.00  0.00    +0.000 C 
ATOM     30  C   UNL     1      -7.094  13.273  18.811  0.00  0.00    +0.000 C 
ATOM     31  C   UNL     1      -6.706  14.593  18.182  0.00  0.00    +0.000 C 
ATOM     32  O   UNL     1      -6.321  15.496  19.217  0.00  0.00    +0.000 OA
ENDBRANCH  27  28
ENDBRANCH   8  27
TORSDOF 6
ENDMDL
MODEL 9
REMARK VINA RESULT:      -6.3      3.579      5.727
REMARK  Name = 
REMARK  8 active torsions:
REMARK  status: ('A' for Active; 'I' for Inactive)
REMARK    1  A    between atoms: C_1  and  O_2
REMARK    2  A    between atoms: O_2  and  C_3
REMARK    3  A    between atoms: C_3  and  C_5
REMARK    4  A    between atoms: C_6  and  N_7
REMARK    5  A    between atoms: C_11  and  C_12
REMARK    6  A    between atoms: N_13  and  C_14
REMARK    7  A    between atoms: C_14  and  C_15
REMARK    8  A    between atoms: C_23  and  C_24
REMARK                            x       y       z     vdW  Elec       q    Type
REMARK                         _______ _______ _______ _____ _____    ______ ____
ROOT
ATOM      1  C   UNL     1      -1.244  14.603  22.658  0.00  0.00    +0.000 C 
ATOM      2  C   UNL     1      -1.790  15.101  23.784  0.00  0.00    +0.000 C 
ATOM      3  O   UNL     1      -3.111  14.825  24.123  0.00  0.00    +0.000 OA
ATOM      4  C   UNL     1      -3.916  14.138  23.238  0.00  0.00    +0.000 A 
ATOM      5  C   UNL     1      -5.257  13.921  23.685  0.00  0.00    +0.000 A 
ATOM      6  C   UNL     1      -6.102  13.144  22.985  0.00  0.00    +0.000 A 
ATOM      7  C   UNL     1      -7.436  12.809  23.591  0.00  0.00    +0.000 C 
ATOM      8  N   UNL     1      -5.705  12.623  21.741  0.00  0.00    +0.000 N 
ATOM      9  C   UNL     1      -4.428  12.889  21.210  0.00  0.00    +0.000 A 
ATOM     10  O   UNL     1      -4.064  12.521  20.095  0.00  0.00    +0.000 OA
ATOM     11  C   UNL     1      -3.472  13.613  22.093  0.00  0.00    +0.000 A 
ATOM     12  C   UNL     1      -2.018  13.697  21.712  0.00  0.00    +0.000 C 
ENDROOT
BRANCH  12  13
ATOM     13  C   UNL     1      -1.377  12.303  21.654  0.00  0.00    +0.000 A 
ATOM     14  C   UNL     1      -0.866  11.824  20.436  0.00  0.00    +0.000 A 
ATOM     15  C   UNL     1      -0.270  10.564  20.360  0.00  0.00    +0.000 A 
ATOM     16  C   UNL     1      -0.185   9.768  21.499  0.00  0.00    +0.000 A 
ATOM     17 CL   UNL     1       0.551   8.216  21.403  0.00  0.00    +0.000 Cl
ATOM     18  C   UNL     1      -0.691  10.220  22.715  0.00  0.00    +0.000 A 
ATOM     19  C   UNL     1      -1.283  11.484  22.794  0.00  0.00    +0.000 A 
ENDBRANCH  12  13
BRANCH   2  20
ATOM     20  N   UNL     1      -1.158  15.895  24.709  0.00  0.00    +0.000 N 
ATOM     21  H   UNL     1      -0.693  16.710  24.294  0.00  0.00    +0.000 HD
ATOM     22  H   UNL     1      -0.553  15.367  25.323  0.00  0.00    +0.000 HD
ENDBRANCH   2  20
BRANCH   1  23
ATOM     23  C   UNL     1       0.169  14.918  22.326  0.00  0.00    +0.000 C 
ATOM     24  O   UNL     1       1.074  14.097  22.291  0.00  0.00    +0.000 OA
BRANCH  23  26
ATOM     25  C   UNL     1      -0.045  16.640  20.755  0.00  0.00    +0.000 C 
ATOM     26  O   UNL     1       0.294  16.247  22.083  0.00  0.00    +0.000 OA
ENDBRANCH  23  26
ENDBRANCH   1  23
BRANCH   8  27
ATOM     27  C   UNL     1      -6.536  11.655  20.994  0.00  0.00    +0.000 C 
BRANCH  27  28
ATOM     28  C   UNL     1      -7.430  12.174  19.847  0.00  0.00    +0.000 C 
ATOM     29  C   UNL     1      -7.002  11.885  18.421  0.00  0.00    +0.000 C 
ATOM     30  C   UNL     1      -7.499  13.069  17.625  0.00  0.00    +0.000 C 
ATOM     31  C   UNL     1      -7.853  14.125  18.648  0.00  0.00    +0.000 C 
ATOM     32  O   UNL     1      -7.648  13.585  19.952  0.00  0.00    +0.000 OA
ENDBRANCH  27  28
ENDBRANCH   8  27
TORSDOF 6
ENDMDL
