MODEL 1
REMARK VINA RESULT:      -9.1      0.000      0.000
REMARK  Name = 
REMARK  7 active torsions:
REMARK  status: ('A' for Active; 'I' for Inactive)
REMARK    1  A    between atoms: C_1  and  C_2
REMARK    2  A    between atoms: C_6  and  C_7
REMARK    3  A    between atoms: C_7  and  S_8
REMARK    4  A    between atoms: S_8  and  C_9
REMARK    5  A    between atoms: C_14  and  C_15
REMARK    6  A    between atoms: N_17  and  C_18
REMARK    7  A    between atoms: C_22  and  C_23
REMARK                            x       y       z     vdW  Elec       q    Type
REMARK                         _______ _______ _______ _____ _____    ______ ____
ROOT
ATOM      1  C   UNL     1       2.119   6.205  20.099  0.00  0.00    +0.000 C 
ATOM      2  O   UNL     1       1.263   5.646  20.772  0.00  0.00    +0.000 OA
ATOM      3  N   UNL     1       2.172   7.569  19.802  0.00  0.00    +0.000 N 
ATOM      4  H   UNL     1       2.899   7.868  19.157  0.00  0.00    +0.000 HD
ENDROOT
BRANCH   3   5
ATOM      5  C   UNL     1       1.309   8.548  20.301  0.00  0.00    +0.000 A 
ATOM      6  S   UNL     1       0.976   8.576  21.976  0.00  0.00    +0.000 S 
ATOM      7  C   UNL     1       0.018   9.955  21.861  0.00  0.00    +0.000 A 
ATOM      8  C   UNL     1      -0.070  10.430  20.569  0.00  0.00    +0.000 A 
ATOM      9  C   UNL     1       0.691   9.607  19.633  0.00  0.00    +0.000 A 
ATOM     10  C   UNL     1      -0.912  11.641  20.259  0.00  0.00    +0.000 C 
ATOM     11  C   UNL     1      -1.186  12.484  21.517  0.00  0.00    +0.000 C 
ATOM     12  C   UNL     1      -1.651  11.617  22.693  0.00  0.00    +0.000 C 
ATOM     13  C   UNL     1      -0.600  10.571  23.079  0.00  0.00    +0.000 C 
BRANCH   9  14
ATOM     14  C   UNL     1       0.778   9.886  18.197  0.00  0.00    +0.000 C 
ATOM     15  N   UNL     1      -0.405  10.046  17.524  0.00  0.00    +0.000 N 
ATOM     16  O   UNL     1       1.834  10.036  17.591  0.00  0.00    +0.000 OA
ATOM     17  H   UNL     1      -1.217  10.354  18.036  0.00  0.00    +0.000 HD
ATOM     18  H   UNL     1      -0.282  10.442  16.597  0.00  0.00    +0.000 HD
ENDBRANCH   9  14
ENDBRANCH   3   5
BRANCH   1  24
ATOM     19  C   UNL     1       4.883   5.339  17.891  0.00  0.00    +0.000 A 
ATOM     20  N   UNL     1       5.230   4.084  18.214  0.00  0.00    +0.000 NA
ATOM     21  C   UNL     1       4.534   3.491  19.204  0.00  0.00    +0.000 A 
ATOM     22  C   UNL     1       3.507   4.092  19.893  0.00  0.00    +0.000 A 
ATOM     23 CL   UNL     1       2.730   3.186  21.128  0.00  0.00    +0.000 Cl
ATOM     24  C   UNL     1       3.218   5.384  19.478  0.00  0.00    +0.000 A 
ATOM     25  N   UNL     1       3.888   6.026  18.473  0.00  0.00    +0.000 NA
BRANCH  19  26
ATOM     26  S   UNL     1       5.778   6.077  16.553  0.00  0.00    +0.000 S 
BRANCH  26  27
ATOM     27  C   UNL     1       6.838   4.685  16.060  0.00  0.00    +0.000 C 
BRANCH  27  33
ATOM     28  C   UNL     1       5.316   2.594  11.732  0.00  0.00    +0.000 C 
ATOM     29  C   UNL     1       6.192   3.575  12.454  0.00  0.00    +0.000 A 
ATOM     30  C   UNL     1       7.081   4.398  11.755  0.00  0.00    +0.000 A 
ATOM     31  C   UNL     1       7.890   5.302  12.443  0.00  0.00    +0.000 A 
ATOM     32  C   UNL     1       7.817   5.393  13.834  0.00  0.00    +0.000 A 
ATOM     33  C   UNL     1       6.935   4.575  14.555  0.00  0.00    +0.000 A 
ATOM     34  C   UNL     1       6.125   3.671  13.851  0.00  0.00    +0.000 A 
ENDBRANCH  27  33
ENDBRANCH  26  27
ENDBRANCH  19  26
ENDBRANCH   1  24
TORSDOF 6
ENDMDL
MODEL 2
REMARK VINA RESULT:      -8.8      1.028      1.673
REMARK  Name = 
REMARK  7 active torsions:
REMARK  status: ('A' for Active; 'I' for Inactive)
REMARK    1  A    between atoms: C_1  and  C_2
REMARK    2  A    between atoms: C_6  and  C_7
REMARK    3  A    between atoms: C_7  and  S_8
REMARK    4  A    between atoms: S_8  and  C_9
REMARK    5  A    between atoms: C_14  and  C_15
REMARK    6  A    between atoms: N_17  and  C_18
REMARK    7  A    between atoms: C_22  and  C_23
REMARK                            x       y       z     vdW  Elec       q    Type
REMARK                         _______ _______ _______ _____ _____    ______ ____
ROOT
ATOM      1  C   UNL     1       1.972   5.969  20.341  0.00  0.00    +0.000 C 
ATOM      2  O   UNL     1       0.902   5.519  20.724  0.00  0.00    +0.000 OA
ATOM      3  N   UNL     1       2.272   7.317  20.133  0.00  0.00    +0.000 N 
ATOM      4  H   UNL     1       3.182   7.527  19.729  0.00  0.00    +0.000 HD
ENDROOT
BRANCH   3   5
ATOM      5  C   UNL     1       1.429   8.395  20.418  0.00  0.00    +0.000 A 
ATOM      6  S   UNL     1       0.988   8.687  22.042  0.00  0.00    +0.000 S 
ATOM      7  C   UNL     1       0.112  10.072  21.656  0.00  0.00    +0.000 A 
ATOM      8  C   UNL     1       0.135  10.351  20.305  0.00  0.00    +0.000 A 
ATOM      9  C   UNL     1       0.913   9.366  19.558  0.00  0.00    +0.000 A 
ATOM     10  C   UNL     1      -0.621  11.535  19.759  0.00  0.00    +0.000 C 
ATOM     11  C   UNL     1      -0.934  12.568  20.857  0.00  0.00    +0.000 C 
ATOM     12  C   UNL     1      -1.521  11.907  22.110  0.00  0.00    +0.000 C 
ATOM     13  C   UNL     1      -0.553  10.889  22.721  0.00  0.00    +0.000 C 
BRANCH   9  14
ATOM     14  C   UNL     1       1.110   9.423  18.107  0.00  0.00    +0.000 C 
ATOM     15  N   UNL     1      -0.005   9.637  17.339  0.00  0.00    +0.000 N 
ATOM     16  O   UNL     1       2.205   9.346  17.561  0.00  0.00    +0.000 OA
ATOM     17  H   UNL     1      -0.791  10.118  17.747  0.00  0.00    +0.000 HD
ATOM     18  H   UNL     1       0.218   9.877  16.377  0.00  0.00    +0.000 HD
ENDBRANCH   9  14
ENDBRANCH   3   5
BRANCH   1  24
ATOM     19  C   UNL     1       5.274   4.835  19.299  0.00  0.00    +0.000 A 
ATOM     20  N   UNL     1       5.234   3.496  19.356  0.00  0.00    +0.000 NA
ATOM     21  C   UNL     1       4.079   2.932  19.759  0.00  0.00    +0.000 A 
ATOM     22  C   UNL     1       2.956   3.642  20.113  0.00  0.00    +0.000 A 
ATOM     23 CL   UNL     1       1.568   2.758  20.605  0.00  0.00    +0.000 Cl
ATOM     24  C   UNL     1       3.093   5.019  20.011  0.00  0.00    +0.000 A 
ATOM     25  N   UNL     1       4.241   5.639  19.599  0.00  0.00    +0.000 NA
BRANCH  19  26
ATOM     26  S   UNL     1       6.786   5.549  18.717  0.00  0.00    +0.000 S 
BRANCH  26  27
ATOM     27  C   UNL     1       6.180   6.466  17.269  0.00  0.00    +0.000 C 
BRANCH  27  33
ATOM     28  C   UNL     1       8.047   5.180  12.765  0.00  0.00    +0.000 C 
ATOM     29  C   UNL     1       7.051   4.950  13.863  0.00  0.00    +0.000 A 
ATOM     30  C   UNL     1       6.102   3.927  13.773  0.00  0.00    +0.000 A 
ATOM     31  C   UNL     1       5.181   3.729  14.803  0.00  0.00    +0.000 A 
ATOM     32  C   UNL     1       5.202   4.551  15.930  0.00  0.00    +0.000 A 
ATOM     33  C   UNL     1       6.142   5.586  16.040  0.00  0.00    +0.000 A 
ATOM     34  C   UNL     1       7.064   5.773  14.999  0.00  0.00    +0.000 A 
ENDBRANCH  27  33
ENDBRANCH  26  27
ENDBRANCH  19  26
ENDBRANCH   1  24
TORSDOF 6
ENDMDL
MODEL 3
REMARK VINA RESULT:      -8.7      2.373      3.356
REMARK  Name = 
REMARK  7 active torsions:
REMARK  status: ('A' for Active; 'I' for Inactive)
REMARK    1  A    between atoms: C_1  and  C_2
REMARK    2  A    between atoms: C_6  and  C_7
REMARK    3  A    between atoms: C_7  and  S_8
REMARK    4  A    between atoms: S_8  and  C_9
REMARK    5  A    between atoms: C_14  and  C_15
REMARK    6  A    between atoms: N_17  and  C_18
REMARK    7  A    between atoms: C_22  and  C_23
REMARK                            x       y       z     vdW  Elec       q    Type
REMARK                         _______ _______ _______ _____ _____    ______ ____
ROOT
ATOM      1  C   UNL     1       1.805   5.494  20.022  0.00  0.00    +0.000 C 
ATOM      2  O   UNL     1       0.710   5.180  20.469  0.00  0.00    +0.000 OA
ATOM      3  N   UNL     1       2.273   6.795  19.827  0.00  0.00    +0.000 N 
ATOM      4  H   UNL     1       3.173   6.893  19.364  0.00  0.00    +0.000 HD
ENDROOT
BRANCH   3   5
ATOM      5  C   UNL     1       1.608   7.967  20.200  0.00  0.00    +0.000 A 
ATOM      6  S   UNL     1       0.947   8.074  21.771  0.00  0.00    +0.000 S 
ATOM      7  C   UNL     1       0.427   9.659  21.549  0.00  0.00    +0.000 A 
ATOM      8  C   UNL     1       0.741  10.147  20.298  0.00  0.00    +0.000 A 
ATOM      9  C   UNL     1       1.443   9.155  19.487  0.00  0.00    +0.000 A 
ATOM     10  C   UNL     1       0.329  11.540  19.898  0.00  0.00    +0.000 C 
ATOM     11  C   UNL     1       0.024  12.420  21.125  0.00  0.00    +0.000 C 
ATOM     12  C   UNL     1      -0.890  11.702  22.125  0.00  0.00    +0.000 C 
ATOM     13  C   UNL     1      -0.252  10.411  22.652  0.00  0.00    +0.000 C 
BRANCH   9  14
ATOM     14  C   UNL     1       1.902   9.409  18.118  0.00  0.00    +0.000 C 
ATOM     15  N   UNL     1       1.960  10.718  17.716  0.00  0.00    +0.000 N 
ATOM     16  O   UNL     1       2.283   8.532  17.350  0.00  0.00    +0.000 OA
ATOM     17  H   UNL     1       2.077  11.436  18.415  0.00  0.00    +0.000 HD
ATOM     18  H   UNL     1       2.478  10.844  16.852  0.00  0.00    +0.000 HD
ENDBRANCH   9  14
ENDBRANCH   3   5
BRANCH   1  24
ATOM     19  C   UNL     1       4.238   3.731  17.962  0.00  0.00    +0.000 A 
ATOM     20  N   UNL     1       4.508   2.589  18.612  0.00  0.00    +0.000 NA
ATOM     21  C   UNL     1       3.872   2.384  19.782  0.00  0.00    +0.000 A 
ATOM     22  C   UNL     1       2.978   3.267  20.340  0.00  0.00    +0.000 A 
ATOM     23 CL   UNL     1       2.260   2.843  21.841  0.00  0.00    +0.000 Cl
ATOM     24  C   UNL     1       2.759   4.412  19.588  0.00  0.00    +0.000 A 
ATOM     25  N   UNL     1       3.372   4.663  18.391  0.00  0.00    +0.000 NA
BRANCH  19  26
ATOM     26  S   UNL     1       5.048   3.953  16.403  0.00  0.00    +0.000 S 
BRANCH  26  27
ATOM     27  C   UNL     1       5.209   5.764  16.373  0.00  0.00    +0.000 C 
BRANCH  27  33
ATOM     28  C   UNL     1       8.313   9.422  17.923  0.00  0.00    +0.000 C 
ATOM     29  C   UNL     1       7.842   8.000  18.021  0.00  0.00    +0.000 A 
ATOM     30  C   UNL     1       8.425   7.108  18.926  0.00  0.00    +0.000 A 
ATOM     31  C   UNL     1       7.976   5.790  19.001  0.00  0.00    +0.000 A 
ATOM     32  C   UNL     1       6.941   5.352  18.174  0.00  0.00    +0.000 A 
ATOM     33  C   UNL     1       6.344   6.228  17.256  0.00  0.00    +0.000 A 
ATOM     34  C   UNL     1       6.803   7.553  17.192  0.00  0.00    +0.000 A 
ENDBRANCH  27  33
ENDBRANCH  26  27
ENDBRANCH  19  26
ENDBRANCH   1  24
TORSDOF 6
ENDMDL
MODEL 4
REMARK VINA RESULT:      -8.6      0.846      1.493
REMARK  Name = 
REMARK  7 active torsions:
REMARK  status: ('A' for Active; 'I' for Inactive)
REMARK    1  A    between atoms: C_1  and  C_2
REMARK    2  A    between atoms: C_6  and  C_7
REMARK    3  A    between atoms: C_7  and  S_8
REMARK    4  A    between atoms: S_8  and  C_9
REMARK    5  A    between atoms: C_14  and  C_15
REMARK    6  A    between atoms: N_17  and  C_18
REMARK    7  A    between atoms: C_22  and  C_23
REMARK                            x       y       z     vdW  Elec       q    Type
REMARK                         _______ _______ _______ _____ _____    ______ ____
ROOT
ATOM      1  C   UNL     1       1.944   5.951  20.169  0.00  0.00    +0.000 C 
ATOM      2  O   UNL     1       0.856   5.497  20.495  0.00  0.00    +0.000 OA
ATOM      3  N   UNL     1       2.281   7.303  20.085  0.00  0.00    +0.000 N 
ATOM      4  H   UNL     1       3.202   7.523  19.714  0.00  0.00    +0.000 HD
ENDROOT
BRANCH   3   5
ATOM      5  C   UNL     1       1.460   8.373  20.451  0.00  0.00    +0.000 A 
ATOM      6  S   UNL     1       0.895   8.464  22.060  0.00  0.00    +0.000 S 
ATOM      7  C   UNL     1       0.111   9.931  21.804  0.00  0.00    +0.000 A 
ATOM      8  C   UNL     1       0.259  10.390  20.512  0.00  0.00    +0.000 A 
ATOM      9  C   UNL     1       1.058   9.478  19.698  0.00  0.00    +0.000 A 
ATOM     10  C   UNL     1      -0.400  11.675  20.079  0.00  0.00    +0.000 C 
ATOM     11  C   UNL     1      -0.763  12.564  21.283  0.00  0.00    +0.000 C 
ATOM     12  C   UNL     1      -1.480  11.769  22.381  0.00  0.00    +0.000 C 
ATOM     13  C   UNL     1      -0.609  10.629  22.918  0.00  0.00    +0.000 C 
BRANCH   9  14
ATOM     14  C   UNL     1       1.379   9.722  18.289  0.00  0.00    +0.000 C 
ATOM     15  N   UNL     1       1.959  10.927  17.985  0.00  0.00    +0.000 N 
ATOM     16  O   UNL     1       1.211   8.899  17.396  0.00  0.00    +0.000 OA
ATOM     17  H   UNL     1       2.485  11.406  18.699  0.00  0.00    +0.000 HD
ATOM     18  H   UNL     1       2.348  10.953  17.047  0.00  0.00    +0.000 HD
ENDBRANCH   9  14
ENDBRANCH   3   5
BRANCH   1  24
ATOM     19  C   UNL     1       4.799   4.633  18.329  0.00  0.00    +0.000 A 
ATOM     20  N   UNL     1       5.078   3.447  18.890  0.00  0.00    +0.000 NA
ATOM     21  C   UNL     1       4.304   3.057  19.922  0.00  0.00    +0.000 A 
ATOM     22  C   UNL     1       3.261   3.797  20.427  0.00  0.00    +0.000 A 
ATOM     23 CL   UNL     1       2.380   3.146  21.749  0.00  0.00    +0.000 Cl
ATOM     24  C   UNL     1       3.046   5.003  19.774  0.00  0.00    +0.000 A 
ATOM     25  N   UNL     1       3.798   5.439  18.717  0.00  0.00    +0.000 NA
BRANCH  19  26
ATOM     26  S   UNL     1       5.798   5.098  16.943  0.00  0.00    +0.000 S 
BRANCH  26  27
ATOM     27  C   UNL     1       5.397   3.756  15.785  0.00  0.00    +0.000 C 
BRANCH  27  33
ATOM     28  C   UNL     1       8.859   6.041  12.920  0.00  0.00    +0.000 C 
ATOM     29  C   UNL     1       7.703   5.091  13.038  0.00  0.00    +0.000 A 
ATOM     30  C   UNL     1       7.207   4.417  11.917  0.00  0.00    +0.000 A 
ATOM     31  C   UNL     1       6.130   3.540  12.045  0.00  0.00    +0.000 A 
ATOM     32  C   UNL     1       5.541   3.328  13.293  0.00  0.00    +0.000 A 
ATOM     33  C   UNL     1       6.019   3.997  14.429  0.00  0.00    +0.000 A 
ATOM     34  C   UNL     1       7.105   4.875  14.287  0.00  0.00    +0.000 A 
ENDBRANCH  27  33
ENDBRANCH  26  27
ENDBRANCH  19  26
ENDBRANCH   1  24
TORSDOF 6
ENDMDL
MODEL 5
REMARK VINA RESULT:      -8.5      1.668      2.516
REMARK  Name = 
REMARK  7 active torsions:
REMARK  status: ('A' for Active; 'I' for Inactive)
REMARK    1  A    between atoms: C_1  and  C_2
REMARK    2  A    between atoms: C_6  and  C_7
REMARK    3  A    between atoms: C_7  and  S_8
REMARK    4  A    between atoms: S_8  and  C_9
REMARK    5  A    between atoms: C_14  and  C_15
REMARK    6  A    between atoms: N_17  and  C_18
REMARK    7  A    between atoms: C_22  and  C_23
REMARK                            x       y       z     vdW  Elec       q    Type
REMARK                         _______ _______ _______ _____ _____    ______ ____
ROOT
ATOM      1  C   UNL     1       2.060   8.101  18.540  0.00  0.00    +0.000 C 
ATOM      2  O   UNL     1       1.562   8.419  17.469  0.00  0.00    +0.000 OA
ATOM      3  N   UNL     1       1.882   8.759  19.759  0.00  0.00    +0.000 N 
ATOM      4  H   UNL     1       2.433   8.423  20.545  0.00  0.00    +0.000 HD
ENDROOT
BRANCH   3   5
ATOM      5  C   UNL     1       1.026   9.841  19.986  0.00  0.00    +0.000 A 
ATOM      6  S   UNL     1       1.079  11.171  18.917  0.00  0.00    +0.000 S 
ATOM      7  C   UNL     1      -0.177  11.973  19.699  0.00  0.00    +0.000 A 
ATOM      8  C   UNL     1      -0.669  11.262  20.774  0.00  0.00    +0.000 A 
ATOM      9  C   UNL     1       0.034   9.994  20.956  0.00  0.00    +0.000 A 
ATOM     10  C   UNL     1      -1.776  11.833  21.622  0.00  0.00    +0.000 C 
ATOM     11  C   UNL     1      -2.551  12.939  20.882  0.00  0.00    +0.000 C 
ATOM     12  C   UNL     1      -1.605  13.953  20.228  0.00  0.00    +0.000 C 
ATOM     13  C   UNL     1      -0.685  13.290  19.197  0.00  0.00    +0.000 C 
BRANCH   9  14
ATOM     14  C   UNL     1      -0.288   9.037  22.018  0.00  0.00    +0.000 C 
ATOM     15  N   UNL     1      -0.175   9.482  23.309  0.00  0.00    +0.000 N 
ATOM     16  O   UNL     1      -0.698   7.900  21.813  0.00  0.00    +0.000 OA
ATOM     17  H   UNL     1      -0.269  10.469  23.493  0.00  0.00    +0.000 HD
ATOM     18  H   UNL     1      -0.608   8.857  23.982  0.00  0.00    +0.000 HD
ENDBRANCH   9  14
ENDBRANCH   3   5
BRANCH   1  24
ATOM     19  C   UNL     1       4.963   6.023  17.817  0.00  0.00    +0.000 A 
ATOM     20  N   UNL     1       4.797   4.901  18.533  0.00  0.00    +0.000 NA
ATOM     21  C   UNL     1       3.688   4.817  19.294  0.00  0.00    +0.000 A 
ATOM     22  C   UNL     1       2.734   5.804  19.379  0.00  0.00    +0.000 A 
ATOM     23 CL   UNL     1       1.382   5.527  20.401  0.00  0.00    +0.000 Cl
ATOM     24  C   UNL     1       2.992   6.919  18.595  0.00  0.00    +0.000 A 
ATOM     25  N   UNL     1       4.097   7.048  17.799  0.00  0.00    +0.000 NA
BRANCH  19  26
ATOM     26  S   UNL     1       6.402   6.088  16.787  0.00  0.00    +0.000 S 
BRANCH  26  27
ATOM     27  C   UNL     1       6.425   4.385  16.149  0.00  0.00    +0.000 C 
BRANCH  27  33
ATOM     28  C   UNL     1       5.048   2.754  11.582  0.00  0.00    +0.000 C 
ATOM     29  C   UNL     1       5.959   3.586  12.435  0.00  0.00    +0.000 A 
ATOM     30  C   UNL     1       6.982   4.351  11.864  0.00  0.00    +0.000 A 
ATOM     31  C   UNL     1       7.822   5.117  12.673  0.00  0.00    +0.000 A 
ATOM     32  C   UNL     1       7.647   5.126  14.058  0.00  0.00    +0.000 A 
ATOM     33  C   UNL     1       6.631   4.363  14.652  0.00  0.00    +0.000 A 
ATOM     34  C   UNL     1       5.791   3.599  13.827  0.00  0.00    +0.000 A 
ENDBRANCH  27  33
ENDBRANCH  26  27
ENDBRANCH  19  26
ENDBRANCH   1  24
TORSDOF 6
ENDMDL
MODEL 6
REMARK VINA RESULT:      -8.5      1.234      1.675
REMARK  Name = 
REMARK  7 active torsions:
REMARK  status: ('A' for Active; 'I' for Inactive)
REMARK    1  A    between atoms: C_1  and  C_2
REMARK    2  A    between atoms: C_6  and  C_7
REMARK    3  A    between atoms: C_7  and  S_8
REMARK    4  A    between atoms: S_8  and  C_9
REMARK    5  A    between atoms: C_14  and  C_15
REMARK    6  A    between atoms: N_17  and  C_18
REMARK    7  A    between atoms: C_22  and  C_23
REMARK                            x       y       z     vdW  Elec       q    Type
REMARK                         _______ _______ _______ _____ _____    ______ ____
ROOT
ATOM      1  C   UNL     1       2.105   5.944  20.282  0.00  0.00    +0.000 C 
ATOM      2  O   UNL     1       1.096   5.473  20.788  0.00  0.00    +0.000 OA
ATOM      3  N   UNL     1       2.345   7.295  20.026  0.00  0.00    +0.000 N 
ATOM      4  H   UNL     1       3.198   7.520  19.520  0.00  0.00    +0.000 HD
ENDROOT
BRANCH   3   5
ATOM      5  C   UNL     1       1.513   8.356  20.394  0.00  0.00    +0.000 A 
ATOM      6  S   UNL     1       0.878   8.394  21.978  0.00  0.00    +0.000 S 
ATOM      7  C   UNL     1       0.111   9.873  21.739  0.00  0.00    +0.000 A 
ATOM      8  C   UNL     1       0.318  10.376  20.472  0.00  0.00    +0.000 A 
ATOM      9  C   UNL     1       1.149   9.489  19.662  0.00  0.00    +0.000 A 
ATOM     10  C   UNL     1      -0.316  11.679  20.057  0.00  0.00    +0.000 C 
ATOM     11  C   UNL     1      -0.729  12.527  21.274  0.00  0.00    +0.000 C 
ATOM     12  C   UNL     1      -1.497  11.698  22.309  0.00  0.00    +0.000 C 
ATOM     13  C   UNL     1      -0.655  10.535  22.844  0.00  0.00    +0.000 C 
BRANCH   9  14
ATOM     14  C   UNL     1       1.534   9.780  18.279  0.00  0.00    +0.000 C 
ATOM     15  N   UNL     1       0.904   9.061  17.296  0.00  0.00    +0.000 N 
ATOM     16  O   UNL     1       2.332  10.654  17.960  0.00  0.00    +0.000 OA
ATOM     17  H   UNL     1      -0.011   8.683  17.482  0.00  0.00    +0.000 HD
ATOM     18  H   UNL     1       1.051   9.447  16.368  0.00  0.00    +0.000 HD
ENDBRANCH   9  14
ENDBRANCH   3   5
BRANCH   1  24
ATOM     19  C   UNL     1       5.457   4.814  19.410  0.00  0.00    +0.000 A 
ATOM     20  N   UNL     1       5.328   3.528  19.054  0.00  0.00    +0.000 NA
ATOM     21  C   UNL     1       4.090   2.998  19.105  0.00  0.00    +0.000 A 
ATOM     22  C   UNL     1       2.969   3.690  19.498  0.00  0.00    +0.000 A 
ATOM     23 CL   UNL     1       1.469   2.855  19.504  0.00  0.00    +0.000 Cl
ATOM     24  C   UNL     1       3.205   5.015  19.838  0.00  0.00    +0.000 A 
ATOM     25  N   UNL     1       4.440   5.602  19.794  0.00  0.00    +0.000 NA
BRANCH  19  26
ATOM     26  S   UNL     1       7.085   5.501  19.286  0.00  0.00    +0.000 S 
BRANCH  26  27
ATOM     27  C   UNL     1       7.684   4.655  17.793  0.00  0.00    +0.000 C 
BRANCH  27  33
ATOM     28  C   UNL     1       6.081   3.614  13.128  0.00  0.00    +0.000 C 
ATOM     29  C   UNL     1       6.061   4.512  14.329  0.00  0.00    +0.000 A 
ATOM     30  C   UNL     1       5.273   5.668  14.353  0.00  0.00    +0.000 A 
ATOM     31  C   UNL     1       5.269   6.493  15.478  0.00  0.00    +0.000 A 
ATOM     32  C   UNL     1       6.051   6.170  16.588  0.00  0.00    +0.000 A 
ATOM     33  C   UNL     1       6.852   5.019  16.585  0.00  0.00    +0.000 A 
ATOM     34  C   UNL     1       6.844   4.196  15.448  0.00  0.00    +0.000 A 
ENDBRANCH  27  33
ENDBRANCH  26  27
ENDBRANCH  19  26
ENDBRANCH   1  24
TORSDOF 6
ENDMDL
MODEL 7
REMARK VINA RESULT:      -8.3      1.939      3.124
REMARK  Name = 
REMARK  7 active torsions:
REMARK  status: ('A' for Active; 'I' for Inactive)
REMARK    1  A    between atoms: C_1  and  C_2
REMARK    2  A    between atoms: C_6  and  C_7
REMARK    3  A    between atoms: C_7  and  S_8
REMARK    4  A    between atoms: S_8  and  C_9
REMARK    5  A    between atoms: C_14  and  C_15
REMARK    6  A    between atoms: N_17  and  C_18
REMARK    7  A    between atoms: C_22  and  C_23
REMARK                            x       y       z     vdW  Elec       q    Type
REMARK                         _______ _______ _______ _____ _____    ______ ____
ROOT
ATOM      1  C   UNL     1       1.913   5.624  19.869  0.00  0.00    +0.000 C 
ATOM      2  O   UNL     1       0.977   5.246  20.559  0.00  0.00    +0.000 OA
ATOM      3  N   UNL     1       2.219   6.949  19.550  0.00  0.00    +0.000 N 
ATOM      4  H   UNL     1       2.981   7.096  18.892  0.00  0.00    +0.000 HD
ENDROOT
BRANCH   3   5
ATOM      5  C   UNL     1       1.565   8.080  20.044  0.00  0.00    +0.000 A 
ATOM      6  S   UNL     1       0.936   8.040  21.631  0.00  0.00    +0.000 S 
ATOM      7  C   UNL     1       0.414   9.639  21.568  0.00  0.00    +0.000 A 
ATOM      8  C   UNL     1       0.704  10.242  20.362  0.00  0.00    +0.000 A 
ATOM      9  C   UNL     1       1.388   9.330  19.448  0.00  0.00    +0.000 A 
ATOM     10  C   UNL     1       0.286  11.666  20.102  0.00  0.00    +0.000 C 
ATOM     11  C   UNL     1       0.008  12.427  21.411  0.00  0.00    +0.000 C 
ATOM     12  C   UNL     1      -0.887  11.619  22.359  0.00  0.00    +0.000 C 
ATOM     13  C   UNL     1      -0.241  10.285  22.750  0.00  0.00    +0.000 C 
BRANCH   9  14
ATOM     14  C   UNL     1       1.820   9.710  18.100  0.00  0.00    +0.000 C 
ATOM     15  N   UNL     1       2.119  11.032  17.895  0.00  0.00    +0.000 N 
ATOM     16  O   UNL     1       1.977   8.913  17.181  0.00  0.00    +0.000 OA
ATOM     17  H   UNL     1       2.413  11.591  18.681  0.00  0.00    +0.000 HD
ATOM     18  H   UNL     1       2.608  11.195  17.020  0.00  0.00    +0.000 HD
ENDBRANCH   9  14
ENDBRANCH   3   5
BRANCH   1  24
ATOM     19  C   UNL     1       4.088   4.060  17.400  0.00  0.00    +0.000 A 
ATOM     20  N   UNL     1       4.477   2.895  17.941  0.00  0.00    +0.000 NA
ATOM     21  C   UNL     1       4.013   2.605  19.173  0.00  0.00    +0.000 A 
ATOM     22  C   UNL     1       3.180   3.425  19.897  0.00  0.00    +0.000 A 
ATOM     23 CL   UNL     1       2.687   2.897  21.454  0.00  0.00    +0.000 Cl
ATOM     24  C   UNL     1       2.828   4.601  19.248  0.00  0.00    +0.000 A 
ATOM     25  N   UNL     1       3.264   4.936  17.995  0.00  0.00    +0.000 NA
BRANCH  19  26
ATOM     26  S   UNL     1       4.670   4.393  15.761  0.00  0.00    +0.000 S 
BRANCH  26  27
ATOM     27  C   UNL     1       6.460   4.185  16.000  0.00  0.00    +0.000 C 
BRANCH  27  33
ATOM     28  C   UNL     1       8.513   5.377  20.448  0.00  0.00    +0.000 C 
ATOM     29  C   UNL     1       8.019   5.806  19.097  0.00  0.00    +0.000 A 
ATOM     30  C   UNL     1       8.078   7.145  18.700  0.00  0.00    +0.000 A 
ATOM     31  C   UNL     1       7.611   7.526  17.441  0.00  0.00    +0.000 A 
ATOM     32  C   UNL     1       7.084   6.572  16.569  0.00  0.00    +0.000 A 
ATOM     33  C   UNL     1       7.012   5.224  16.948  0.00  0.00    +0.000 A 
ATOM     34  C   UNL     1       7.487   4.853  18.216  0.00  0.00    +0.000 A 
ENDBRANCH  27  33
ENDBRANCH  26  27
ENDBRANCH  19  26
ENDBRANCH   1  24
TORSDOF 6
ENDMDL
MODEL 8
REMARK VINA RESULT:      -8.2      2.453      4.032
REMARK  Name = 
REMARK  7 active torsions:
REMARK  status: ('A' for Active; 'I' for Inactive)
REMARK    1  A    between atoms: C_1  and  C_2
REMARK    2  A    between atoms: C_6  and  C_7
REMARK    3  A    between atoms: C_7  and  S_8
REMARK    4  A    between atoms: S_8  and  C_9
REMARK    5  A    between atoms: C_14  and  C_15
REMARK    6  A    between atoms: N_17  and  C_18
REMARK    7  A    between atoms: C_22  and  C_23
REMARK                            x       y       z     vdW  Elec       q    Type
REMARK                         _______ _______ _______ _____ _____    ______ ____
ROOT
ATOM      1  C   UNL     1       2.321   7.747  18.464  0.00  0.00    +0.000 C 
ATOM      2  O   UNL     1       2.575   8.405  17.465  0.00  0.00    +0.000 OA
ATOM      3  N   UNL     1       1.656   8.203  19.604  0.00  0.00    +0.000 N 
ATOM      4  H   UNL     1       1.598   7.558  20.388  0.00  0.00    +0.000 HD
ENDROOT
BRANCH   3   5
ATOM      5  C   UNL     1       1.079   9.466  19.763  0.00  0.00    +0.000 A 
ATOM      6  S   UNL     1       0.817  10.431  18.379  0.00  0.00    +0.000 S 
ATOM      7  C   UNL     1       0.078  11.662  19.258  0.00  0.00    +0.000 A 
ATOM      8  C   UNL     1       0.004  11.376  20.606  0.00  0.00    +0.000 A 
ATOM      9  C   UNL     1       0.592  10.076  20.921  0.00  0.00    +0.000 A 
ATOM     10  C   UNL     1      -0.596  12.373  21.564  0.00  0.00    +0.000 C 
ATOM     11  C   UNL     1      -1.494  13.392  20.839  0.00  0.00    +0.000 C 
ATOM     12  C   UNL     1      -0.807  13.973  19.598  0.00  0.00    +0.000 C 
ATOM     13  C   UNL     1      -0.460  12.883  18.578  0.00  0.00    +0.000 C 
BRANCH   9  14
ATOM     14  C   UNL     1       0.643   9.518  22.275  0.00  0.00    +0.000 C 
ATOM     15  N   UNL     1      -0.525   9.002  22.775  0.00  0.00    +0.000 N 
ATOM     16  O   UNL     1       1.666   9.440  22.945  0.00  0.00    +0.000 OA
ATOM     17  H   UNL     1      -1.223   8.665  22.131  0.00  0.00    +0.000 HD
ATOM     18  H   UNL     1      -0.383   8.447  23.614  0.00  0.00    +0.000 HD
ENDBRANCH   9  14
ENDBRANCH   3   5
BRANCH   1  24
ATOM     19  C   UNL     1       4.014   4.667  17.505  0.00  0.00    +0.000 A 
ATOM     20  N   UNL     1       3.717   3.774  18.461  0.00  0.00    +0.000 NA
ATOM     21  C   UNL     1       2.932   4.195  19.472  0.00  0.00    +0.000 A 
ATOM     22  C   UNL     1       2.428   5.470  19.579  0.00  0.00    +0.000 A 
ATOM     23 CL   UNL     1       1.443   5.834  20.937  0.00  0.00    +0.000 Cl
ATOM     24  C   UNL     1       2.783   6.315  18.537  0.00  0.00    +0.000 A 
ATOM     25  N   UNL     1       3.570   5.933  17.484  0.00  0.00    +0.000 NA
BRANCH  19  26
ATOM     26  S   UNL     1       5.005   4.074  16.162  0.00  0.00    +0.000 S 
BRANCH  26  27
ATOM     27  C   UNL     1       5.908   5.591  15.728  0.00  0.00    +0.000 C 
BRANCH  27  33
ATOM     28  C   UNL     1       8.350   9.298  18.118  0.00  0.00    +0.000 C 
ATOM     29  C   UNL     1       7.952   7.853  18.042  0.00  0.00    +0.000 A 
ATOM     30  C   UNL     1       8.360   6.940  19.020  0.00  0.00    +0.000 A 
ATOM     31  C   UNL     1       7.984   5.600  18.931  0.00  0.00    +0.000 A 
ATOM     32  C   UNL     1       7.196   5.161  17.866  0.00  0.00    +0.000 A 
ATOM     33  C   UNL     1       6.778   6.058  16.872  0.00  0.00    +0.000 A 
ATOM     34  C   UNL     1       7.162   7.404  16.974  0.00  0.00    +0.000 A 
ENDBRANCH  27  33
ENDBRANCH  26  27
ENDBRANCH  19  26
ENDBRANCH   1  24
TORSDOF 6
ENDMDL
MODEL 9
REMARK VINA RESULT:      -8.1      3.679      5.255
REMARK  Name = 
REMARK  7 active torsions:
REMARK  status: ('A' for Active; 'I' for Inactive)
REMARK    1  A    between atoms: C_1  and  C_2
REMARK    2  A    between atoms: C_6  and  C_7
REMARK    3  A    between atoms: C_7  and  S_8
REMARK    4  A    between atoms: S_8  and  C_9
REMARK    5  A    between atoms: C_14  and  C_15
REMARK    6  A    between atoms: N_17  and  C_18
REMARK    7  A    between atoms: C_22  and  C_23
REMARK                            x       y       z     vdW  Elec       q    Type
REMARK                         _______ _______ _______ _____ _____    ______ ____
ROOT
ATOM      1  C   UNL     1       0.775  10.799  19.152  0.00  0.00    +0.000 C 
ATOM      2  O   UNL     1       0.050  10.843  18.168  0.00  0.00    +0.000 OA
ATOM      3  N   UNL     1       1.397  11.889  19.766  0.00  0.00    +0.000 N 
ATOM      4  H   UNL     1       2.041  11.679  20.525  0.00  0.00    +0.000 HD
ENDROOT
BRANCH   3   5
ATOM      5  C   UNL     1       1.220  13.231  19.421  0.00  0.00    +0.000 A 
ATOM      6  S   UNL     1       2.540  14.094  18.767  0.00  0.00    +0.000 S 
ATOM      7  C   UNL     1       1.636  15.494  18.535  0.00  0.00    +0.000 A 
ATOM      8  C   UNL     1       0.324  15.347  18.936  0.00  0.00    +0.000 A 
ATOM      9  C   UNL     1       0.062  14.010  19.463  0.00  0.00    +0.000 A 
ATOM     10  C   UNL     1      -0.637  16.504  18.838  0.00  0.00    +0.000 C 
ATOM     11  C   UNL     1      -0.144  17.573  17.845  0.00  0.00    +0.000 C 
ATOM     12  C   UNL     1       1.328  17.931  18.080  0.00  0.00    +0.000 C 
ATOM     13  C   UNL     1       2.243  16.713  17.911  0.00  0.00    +0.000 C 
BRANCH   9  14
ATOM     14  C   UNL     1      -1.250  13.576  19.953  0.00  0.00    +0.000 C 
ATOM     15  N   UNL     1      -2.070  12.947  19.053  0.00  0.00    +0.000 N 
ATOM     16  O   UNL     1      -1.619  13.696  21.115  0.00  0.00    +0.000 OA
ATOM     17  H   UNL     1      -1.654  12.466  18.271  0.00  0.00    +0.000 HD
ATOM     18  H   UNL     1      -2.861  12.487  19.494  0.00  0.00    +0.000 HD
ENDBRANCH   9  14
ENDBRANCH   3   5
BRANCH   1  24
ATOM     19  C   UNL     1       1.976   7.370  19.414  0.00  0.00    +0.000 A 
ATOM     20  N   UNL     1       1.733   6.994  20.678  0.00  0.00    +0.000 NA
ATOM     21  C   UNL     1       1.154   7.901  21.489  0.00  0.00    +0.000 A 
ATOM     22  C   UNL     1       0.808   9.174  21.099  0.00  0.00    +0.000 A 
ATOM     23 CL   UNL     1       0.078  10.200  22.267  0.00  0.00    +0.000 Cl
ATOM     24  C   UNL     1       1.091   9.464  19.772  0.00  0.00    +0.000 A 
ATOM     25  N   UNL     1       1.669   8.575  18.908  0.00  0.00    +0.000 NA
BRANCH  19  26
ATOM     26  S   UNL     1       2.691   6.143  18.356  0.00  0.00    +0.000 S 
BRANCH  26  27
ATOM     27  C   UNL     1       4.018   7.112  17.579  0.00  0.00    +0.000 C 
BRANCH  27  33
ATOM     28  C   UNL     1       6.182   4.190  14.086  0.00  0.00    +0.000 C 
ATOM     29  C   UNL     1       6.221   4.819  15.448  0.00  0.00    +0.000 A 
ATOM     30  C   UNL     1       7.304   4.610  16.308  0.00  0.00    +0.000 A 
ATOM     31  C   UNL     1       7.322   5.201  17.572  0.00  0.00    +0.000 A 
ATOM     32  C   UNL     1       6.259   6.005  17.986  0.00  0.00    +0.000 A 
ATOM     33  C   UNL     1       5.161   6.225  17.142  0.00  0.00    +0.000 A 
ATOM     34  C   UNL     1       5.157   5.628  15.872  0.00  0.00    +0.000 A 
ENDBRANCH  27  33
ENDBRANCH  26  27
ENDBRANCH  19  26
ENDBRANCH   1  24
TORSDOF 6
ENDMDL
