MODEL 1
REMARK VINA RESULT:      -7.8      0.000      0.000
REMARK  Name = 
REMARK  4 active torsions:
REMARK  status: ('A' for Active; 'I' for Inactive)
REMARK    1  A    between atoms: C_1  and  N_2
REMARK    2  A    between atoms: N_6  and  C_7
REMARK    3  A    between atoms: C_7  and  C_8
REMARK    4  A    between atoms: C_12  and  C_13
REMARK                            x       y       z     vdW  Elec       q    Type
REMARK                         _______ _______ _______ _____ _____    ______ ____
ROOT
ATOM      1  C   UNL     1       7.829   5.589  19.624  0.00  0.00    +0.000 C 
ATOM      2  N   UNL     1       7.742   5.492  18.185  0.00  0.00    +0.000 N 
ATOM      3  C   UNL     1       6.544   5.023  17.666  0.00  0.00    +0.000 A 
ATOM      4  N   UNL     1       6.546   4.707  16.365  0.00  0.00    +0.000 NA
ATOM      5  C   UNL     1       5.376   4.353  15.806  0.00  0.00    +0.000 A 
ATOM      6  N   UNL     1       5.272   4.068  14.429  0.00  0.00    +0.000 N 
ATOM      7  C   UNL     1       4.229   4.239  16.556  0.00  0.00    +0.000 A 
ATOM      8  C   UNL     1       4.325   4.480  17.909  0.00  0.00    +0.000 A 
ATOM      9  N   UNL     1       5.477   4.914  18.461  0.00  0.00    +0.000 NA
ATOM     10  H   UNL     1       8.498   5.029  17.698  0.00  0.00    +0.000 HD
ATOM     11  H   UNL     1       4.617   4.727  14.012  0.00  0.00    +0.000 HD
ENDROOT
BRANCH   8  12
ATOM     12  C   UNL     1       3.195   4.220  18.831  0.00  0.00    +0.000 A 
ATOM     13  C   UNL     1       2.142   3.365  18.505  0.00  0.00    +0.000 A 
ATOM     14  C   UNL     1       1.072   3.227  19.386  0.00  0.00    +0.000 A 
ATOM     15  C   UNL     1       1.073   3.944  20.574  0.00  0.00    +0.000 A 
ATOM     16  C   UNL     1       2.151   4.767  20.836  0.00  0.00    +0.000 A 
ATOM     17  N   UNL     1       3.200   4.916  20.000  0.00  0.00    +0.000 NA
ENDBRANCH   8  12
BRANCH   6  18
ATOM     18  C   UNL     1       6.523   3.997  13.706  0.00  0.00    +0.000 C 
BRANCH  18  19
ATOM     19  C   UNL     1       6.222   3.733  12.255  0.00  0.00    +0.000 C 
ATOM     20  C   UNL     1       6.020   2.332  11.726  0.00  0.00    +0.000 C 
ATOM     21  C   UNL     1       4.846   3.262  11.854  0.00  0.00    +0.000 C 
ENDBRANCH  18  19
ENDBRANCH   6  18
TORSDOF 3
ENDMDL
MODEL 2
REMARK VINA RESULT:      -7.7      1.314      6.360
REMARK  Name = 
REMARK  4 active torsions:
REMARK  status: ('A' for Active; 'I' for Inactive)
REMARK    1  A    between atoms: C_1  and  N_2
REMARK    2  A    between atoms: N_6  and  C_7
REMARK    3  A    between atoms: C_7  and  C_8
REMARK    4  A    between atoms: C_12  and  C_13
REMARK                            x       y       z     vdW  Elec       q    Type
REMARK                         _______ _______ _______ _____ _____    ______ ____
ROOT
ATOM      1  C   UNL     1       8.083   5.899  19.131  0.00  0.00    +0.000 C 
ATOM      2  N   UNL     1       6.791   5.347  19.469  0.00  0.00    +0.000 N 
ATOM      3  C   UNL     1       5.992   4.942  18.411  0.00  0.00    +0.000 A 
ATOM      4  N   UNL     1       4.717   4.660  18.705  0.00  0.00    +0.000 NA
ATOM      5  C   UNL     1       3.944   4.163  17.725  0.00  0.00    +0.000 A 
ATOM      6  N   UNL     1       2.609   3.776  17.961  0.00  0.00    +0.000 N 
ATOM      7  C   UNL     1       4.417   4.021  16.441  0.00  0.00    +0.000 A 
ATOM      8  C   UNL     1       5.708   4.429  16.188  0.00  0.00    +0.000 A 
ATOM      9  N   UNL     1       6.514   4.853  17.184  0.00  0.00    +0.000 NA
ATOM     10  H   UNL     1       6.214   5.865  20.119  0.00  0.00    +0.000 HD
ATOM     11  H   UNL     1       2.520   2.783  17.755  0.00  0.00    +0.000 HD
ENDROOT
BRANCH   8  12
ATOM     12  C   UNL     1       6.258   4.480  14.814  0.00  0.00    +0.000 A 
ATOM     13  C   UNL     1       5.777   3.671  13.783  0.00  0.00    +0.000 A 
ATOM     14  C   UNL     1       6.391   3.713  12.534  0.00  0.00    +0.000 A 
ATOM     15  C   UNL     1       7.472   4.561  12.337  0.00  0.00    +0.000 A 
ATOM     16  C   UNL     1       7.891   5.339  13.399  0.00  0.00    +0.000 A 
ATOM     17  N   UNL     1       7.311   5.318  14.617  0.00  0.00    +0.000 NA
ENDBRANCH   8  12
BRANCH   6  18
ATOM     18  C   UNL     1       2.075   4.122  19.261  0.00  0.00    +0.000 C 
BRANCH  18  19
ATOM     19  C   UNL     1       2.098   2.893  20.129  0.00  0.00    +0.000 C 
ATOM     20  C   UNL     1       2.549   2.944  21.571  0.00  0.00    +0.000 C 
ATOM     21  C   UNL     1       1.094   2.751  21.246  0.00  0.00    +0.000 C 
ENDBRANCH  18  19
ENDBRANCH   6  18
TORSDOF 3
ENDMDL
MODEL 3
REMARK VINA RESULT:      -7.7      0.734      1.060
REMARK  Name = 
REMARK  4 active torsions:
REMARK  status: ('A' for Active; 'I' for Inactive)
REMARK    1  A    between atoms: C_1  and  N_2
REMARK    2  A    between atoms: N_6  and  C_7
REMARK    3  A    between atoms: C_7  and  C_8
REMARK    4  A    between atoms: C_12  and  C_13
REMARK                            x       y       z     vdW  Elec       q    Type
REMARK                         _______ _______ _______ _____ _____    ______ ____
ROOT
ATOM      1  C   UNL     1       7.774   5.544  19.676  0.00  0.00    +0.000 C 
ATOM      2  N   UNL     1       7.687   5.457  18.236  0.00  0.00    +0.000 N 
ATOM      3  C   UNL     1       6.505   4.954  17.714  0.00  0.00    +0.000 A 
ATOM      4  N   UNL     1       6.515   4.650  16.410  0.00  0.00    +0.000 NA
ATOM      5  C   UNL     1       5.358   4.261  15.850  0.00  0.00    +0.000 A 
ATOM      6  N   UNL     1       5.260   3.986  14.470  0.00  0.00    +0.000 N 
ATOM      7  C   UNL     1       4.216   4.102  16.600  0.00  0.00    +0.000 A 
ATOM      8  C   UNL     1       4.306   4.332  17.955  0.00  0.00    +0.000 A 
ATOM      9  N   UNL     1       5.443   4.800  18.510  0.00  0.00    +0.000 NA
ATOM     10  H   UNL     1       8.458   5.025  17.744  0.00  0.00    +0.000 HD
ATOM     11  H   UNL     1       4.583   4.627  14.061  0.00  0.00    +0.000 HD
ENDROOT
BRANCH   8  12
ATOM     12  C   UNL     1       3.187   4.026  18.876  0.00  0.00    +0.000 A 
ATOM     13  C   UNL     1       2.588   4.998  19.679  0.00  0.00    +0.000 A 
ATOM     14  C   UNL     1       1.594   4.627  20.581  0.00  0.00    +0.000 A 
ATOM     15  C   UNL     1       1.216   3.294  20.664  0.00  0.00    +0.000 A 
ATOM     16  C   UNL     1       1.846   2.386  19.835  0.00  0.00    +0.000 A 
ATOM     17  N   UNL     1       2.810   2.722  18.952  0.00  0.00    +0.000 NA
ENDBRANCH   8  12
BRANCH   6  18
ATOM     18  C   UNL     1       6.512   3.965  13.745  0.00  0.00    +0.000 C 
BRANCH  18  19
ATOM     19  C   UNL     1       6.216   3.722  12.289  0.00  0.00    +0.000 C 
ATOM     20  C   UNL     1       5.992   2.331  11.742  0.00  0.00    +0.000 C 
ATOM     21  C   UNL     1       4.835   3.281  11.874  0.00  0.00    +0.000 C 
ENDBRANCH  18  19
ENDBRANCH   6  18
TORSDOF 3
ENDMDL
MODEL 4
REMARK VINA RESULT:      -7.7      1.333      6.262
REMARK  Name = 
REMARK  4 active torsions:
REMARK  status: ('A' for Active; 'I' for Inactive)
REMARK    1  A    between atoms: C_1  and  N_2
REMARK    2  A    between atoms: N_6  and  C_7
REMARK    3  A    between atoms: C_7  and  C_8
REMARK    4  A    between atoms: C_12  and  C_13
REMARK                            x       y       z     vdW  Elec       q    Type
REMARK                         _______ _______ _______ _____ _____    ______ ____
ROOT
ATOM      1  C   UNL     1       8.019   6.166  18.953  0.00  0.00    +0.000 C 
ATOM      2  N   UNL     1       6.946   5.273  19.326  0.00  0.00    +0.000 N 
ATOM      3  C   UNL     1       6.241   4.681  18.289  0.00  0.00    +0.000 A 
ATOM      4  N   UNL     1       5.108   4.052  18.625  0.00  0.00    +0.000 NA
ATOM      5  C   UNL     1       4.457   3.378  17.662  0.00  0.00    +0.000 A 
ATOM      6  N   UNL     1       3.293   2.633  17.940  0.00  0.00    +0.000 N 
ATOM      7  C   UNL     1       4.892   3.394  16.357  0.00  0.00    +0.000 A 
ATOM      8  C   UNL     1       6.007   4.148  16.065  0.00  0.00    +0.000 A 
ATOM      9  N   UNL     1       6.711   4.761  17.040  0.00  0.00    +0.000 NA
ATOM     10  H   UNL     1       6.280   5.600  20.013  0.00  0.00    +0.000 HD
ATOM     11  H   UNL     1       3.471   1.657  17.709  0.00  0.00    +0.000 HD
ENDROOT
BRANCH   8  12
ATOM     12  C   UNL     1       6.457   4.372  14.672  0.00  0.00    +0.000 A 
ATOM     13  C   UNL     1       5.938   3.657  13.592  0.00  0.00    +0.000 A 
ATOM     14  C   UNL     1       6.462   3.862  12.318  0.00  0.00    +0.000 A 
ATOM     15  C   UNL     1       7.492   4.776  12.146  0.00  0.00    +0.000 A 
ATOM     16  C   UNL     1       7.952   5.454  13.258  0.00  0.00    +0.000 A 
ATOM     17  N   UNL     1       7.460   5.275  14.501  0.00  0.00    +0.000 NA
ENDBRANCH   8  12
BRANCH   6  18
ATOM     18  C   UNL     1       2.746   2.796  19.270  0.00  0.00    +0.000 C 
BRANCH  18  19
ATOM     19  C   UNL     1       1.715   3.892  19.231  0.00  0.00    +0.000 C 
ATOM     20  C   UNL     1       0.848   4.213  20.427  0.00  0.00    +0.000 C 
ATOM     21  C   UNL     1       1.945   5.157  20.021  0.00  0.00    +0.000 C 
ENDBRANCH  18  19
ENDBRANCH   6  18
TORSDOF 3
ENDMDL
MODEL 5
REMARK VINA RESULT:      -7.6      2.562      5.256
REMARK  Name = 
REMARK  4 active torsions:
REMARK  status: ('A' for Active; 'I' for Inactive)
REMARK    1  A    between atoms: C_1  and  N_2
REMARK    2  A    between atoms: N_6  and  C_7
REMARK    3  A    between atoms: C_7  and  C_8
REMARK    4  A    between atoms: C_12  and  C_13
REMARK                            x       y       z     vdW  Elec       q    Type
REMARK                         _______ _______ _______ _____ _____    ______ ____
ROOT
ATOM      1  C   UNL     1       6.568   4.090  13.589  0.00  0.00    +0.000 C 
ATOM      2  N   UNL     1       7.304   5.073  14.352  0.00  0.00    +0.000 N 
ATOM      3  C   UNL     1       6.920   5.248  15.673  0.00  0.00    +0.000 A 
ATOM      4  N   UNL     1       7.431   6.314  16.301  0.00  0.00    +0.000 NA
ATOM      5  C   UNL     1       7.166   6.455  17.611  0.00  0.00    +0.000 A 
ATOM      6  N   UNL     1       7.716   7.509  18.367  0.00  0.00    +0.000 N 
ATOM      7  C   UNL     1       6.333   5.581  18.271  0.00  0.00    +0.000 A 
ATOM      8  C   UNL     1       5.760   4.566  17.536  0.00  0.00    +0.000 A 
ATOM      9  N   UNL     1       6.086   4.373  16.241  0.00  0.00    +0.000 NA
ATOM     10  H   UNL     1       7.435   5.986  13.938  0.00  0.00    +0.000 HD
ATOM     11  H   UNL     1       8.287   7.110  19.110  0.00  0.00    +0.000 HD
ENDROOT
BRANCH   8  12
ATOM     12  C   UNL     1       4.721   3.679  18.106  0.00  0.00    +0.000 A 
ATOM     13  C   UNL     1       3.604   3.266  17.377  0.00  0.00    +0.000 A 
ATOM     14  C   UNL     1       2.625   2.495  17.998  0.00  0.00    +0.000 A 
ATOM     15  C   UNL     1       2.778   2.151  19.334  0.00  0.00    +0.000 A 
ATOM     16  C   UNL     1       3.912   2.587  19.993  0.00  0.00    +0.000 A 
ATOM     17  N   UNL     1       4.875   3.332  19.412  0.00  0.00    +0.000 NA
ENDBRANCH   8  12
BRANCH   6  18
ATOM     18  C   UNL     1       8.419   8.524  17.612  0.00  0.00    +0.000 C 
BRANCH  18  19
ATOM     19  C   UNL     1       8.345   9.821  18.370  0.00  0.00    +0.000 C 
ATOM     20  C   UNL     1       9.402  10.219  19.374  0.00  0.00    +0.000 C 
ATOM     21  C   UNL     1       9.320  10.927  18.051  0.00  0.00    +0.000 C 
ENDBRANCH  18  19
ENDBRANCH   6  18
TORSDOF 3
ENDMDL
MODEL 6
REMARK VINA RESULT:      -7.5      2.453      3.245
REMARK  Name = 
REMARK  4 active torsions:
REMARK  status: ('A' for Active; 'I' for Inactive)
REMARK    1  A    between atoms: C_1  and  N_2
REMARK    2  A    between atoms: N_6  and  C_7
REMARK    3  A    between atoms: C_7  and  C_8
REMARK    4  A    between atoms: C_12  and  C_13
REMARK                            x       y       z     vdW  Elec       q    Type
REMARK                         _______ _______ _______ _____ _____    ______ ____
ROOT
ATOM      1  C   UNL     1       2.967   2.139  18.895  0.00  0.00    +0.000 C 
ATOM      2  N   UNL     1       4.077   2.413  18.011  0.00  0.00    +0.000 N 
ATOM      3  C   UNL     1       4.238   3.730  17.607  0.00  0.00    +0.000 A 
ATOM      4  N   UNL     1       5.107   3.942  16.611  0.00  0.00    +0.000 NA
ATOM      5  C   UNL     1       5.366   5.215  16.268  0.00  0.00    +0.000 A 
ATOM      6  N   UNL     1       6.316   5.533  15.276  0.00  0.00    +0.000 N 
ATOM      7  C   UNL     1       4.706   6.266  16.861  0.00  0.00    +0.000 A 
ATOM      8  C   UNL     1       3.750   5.967  17.806  0.00  0.00    +0.000 A 
ATOM      9  N   UNL     1       3.543   4.697  18.213  0.00  0.00    +0.000 NA
ATOM     10  H   UNL     1       4.191   1.819  17.201  0.00  0.00    +0.000 HD
ATOM     11  H   UNL     1       7.049   6.099  15.701  0.00  0.00    +0.000 HD
ENDROOT
BRANCH   8  12
ATOM     12  C   UNL     1       2.865   7.007  18.379  0.00  0.00    +0.000 A 
ATOM     13  C   UNL     1       2.485   8.145  17.666  0.00  0.00    +0.000 A 
ATOM     14  C   UNL     1       1.715   9.122  18.292  0.00  0.00    +0.000 A 
ATOM     15  C   UNL     1       1.339   8.945  19.616  0.00  0.00    +0.000 A 
ATOM     16  C   UNL     1       1.744   7.792  20.259  0.00  0.00    +0.000 A 
ATOM     17  N   UNL     1       2.487   6.830  19.674  0.00  0.00    +0.000 NA
ENDBRANCH   8  12
BRANCH   6  18
ATOM     18  C   UNL     1       6.845   4.412  14.530  0.00  0.00    +0.000 C 
BRANCH  18  19
ATOM     19  C   UNL     1       6.281   4.457  13.136  0.00  0.00    +0.000 C 
ATOM     20  C   UNL     1       7.069   3.972  11.941  0.00  0.00    +0.000 C 
ATOM     21  C   UNL     1       5.902   3.171  12.444  0.00  0.00    +0.000 C 
ENDBRANCH  18  19
ENDBRANCH   6  18
TORSDOF 3
ENDMDL
MODEL 7
REMARK VINA RESULT:      -7.4      1.488      6.468
REMARK  Name = 
REMARK  4 active torsions:
REMARK  status: ('A' for Active; 'I' for Inactive)
REMARK    1  A    between atoms: C_1  and  N_2
REMARK    2  A    between atoms: N_6  and  C_7
REMARK    3  A    between atoms: C_7  and  C_8
REMARK    4  A    between atoms: C_12  and  C_13
REMARK                            x       y       z     vdW  Elec       q    Type
REMARK                         _______ _______ _______ _____ _____    ______ ____
ROOT
ATOM      1  C   UNL     1       7.842   8.105  17.527  0.00  0.00    +0.000 C 
ATOM      2  N   UNL     1       7.038   7.195  18.311  0.00  0.00    +0.000 N 
ATOM      3  C   UNL     1       6.448   6.142  17.629  0.00  0.00    +0.000 A 
ATOM      4  N   UNL     1       5.520   5.448  18.300  0.00  0.00    +0.000 NA
ATOM      5  C   UNL     1       5.006   4.357  17.707  0.00  0.00    +0.000 A 
ATOM      6  N   UNL     1       4.073   3.529  18.365  0.00  0.00    +0.000 N 
ATOM      7  C   UNL     1       5.358   4.005  16.425  0.00  0.00    +0.000 A 
ATOM      8  C   UNL     1       6.241   4.824  15.758  0.00  0.00    +0.000 A 
ATOM      9  N   UNL     1       6.822   5.875  16.375  0.00  0.00    +0.000 NA
ATOM     10  H   UNL     1       6.348   7.595  18.932  0.00  0.00    +0.000 HD
ATOM     11  H   UNL     1       4.472   2.596  18.448  0.00  0.00    +0.000 HD
ENDROOT
BRANCH   8  12
ATOM     12  C   UNL     1       6.553   4.634  14.323  0.00  0.00    +0.000 A 
ATOM     13  C   UNL     1       5.905   3.682  13.534  0.00  0.00    +0.000 A 
ATOM     14  C   UNL     1       6.302   3.501  12.211  0.00  0.00    +0.000 A 
ATOM     15  C   UNL     1       7.337   4.273  11.701  0.00  0.00    +0.000 A 
ATOM     16  C   UNL     1       7.928   5.201  12.535  0.00  0.00    +0.000 A 
ATOM     17  N   UNL     1       7.560   5.397  13.819  0.00  0.00    +0.000 NA
ENDBRANCH   8  12
BRANCH   6  18
ATOM     18  C   UNL     1       3.569   4.030  19.626  0.00  0.00    +0.000 C 
BRANCH  18  19
ATOM     19  C   UNL     1       2.066   4.051  19.565  0.00  0.00    +0.000 C 
ATOM     20  C   UNL     1       1.217   3.306  20.570  0.00  0.00    +0.000 C 
ATOM     21  C   UNL     1       1.289   4.807  20.614  0.00  0.00    +0.000 C 
ENDBRANCH  18  19
ENDBRANCH   6  18
TORSDOF 3
ENDMDL
MODEL 8
REMARK VINA RESULT:      -7.3      1.280      6.405
REMARK  Name = 
REMARK  4 active torsions:
REMARK  status: ('A' for Active; 'I' for Inactive)
REMARK    1  A    between atoms: C_1  and  N_2
REMARK    2  A    between atoms: N_6  and  C_7
REMARK    3  A    between atoms: C_7  and  C_8
REMARK    4  A    between atoms: C_12  and  C_13
REMARK                            x       y       z     vdW  Elec       q    Type
REMARK                         _______ _______ _______ _____ _____    ______ ____
ROOT
ATOM      1  C   UNL     1       7.994   5.836  19.129  0.00  0.00    +0.000 C 
ATOM      2  N   UNL     1       6.692   5.291  19.436  0.00  0.00    +0.000 N 
ATOM      3  C   UNL     1       5.927   4.864  18.361  0.00  0.00    +0.000 A 
ATOM      4  N   UNL     1       4.643   4.587  18.619  0.00  0.00    +0.000 NA
ATOM      5  C   UNL     1       3.903   4.070  17.625  0.00  0.00    +0.000 A 
ATOM      6  N   UNL     1       2.561   3.687  17.825  0.00  0.00    +0.000 N 
ATOM      7  C   UNL     1       4.418   3.902  16.360  0.00  0.00    +0.000 A 
ATOM      8  C   UNL     1       5.716   4.306  16.141  0.00  0.00    +0.000 A 
ATOM      9  N   UNL     1       6.490   4.750  17.154  0.00  0.00    +0.000 NA
ATOM     10  H   UNL     1       6.095   5.822  20.056  0.00  0.00    +0.000 HD
ATOM     11  H   UNL     1       2.478   2.690  17.637  0.00  0.00    +0.000 HD
ENDROOT
BRANCH   8  12
ATOM     12  C   UNL     1       6.310   4.329  14.785  0.00  0.00    +0.000 A 
ATOM     13  C   UNL     1       7.336   5.206  14.429  0.00  0.00    +0.000 A 
ATOM     14  C   UNL     1       7.795   5.229  13.115  0.00  0.00    +0.000 A 
ATOM     15  C   UNL     1       7.221   4.379  12.180  0.00  0.00    +0.000 A 
ATOM     16  C   UNL     1       6.214   3.532  12.602  0.00  0.00    +0.000 A 
ATOM     17  N   UNL     1       5.755   3.489  13.870  0.00  0.00    +0.000 NA
ENDBRANCH   8  12
BRANCH   6  18
ATOM     18  C   UNL     1       1.986   4.059  19.100  0.00  0.00    +0.000 C 
BRANCH  18  19
ATOM     19  C   UNL     1       1.906   2.830  19.965  0.00  0.00    +0.000 C 
ATOM     20  C   UNL     1       2.739   2.683  21.218  0.00  0.00    +0.000 C 
ATOM     21  C   UNL     1       1.258   2.917  21.324  0.00  0.00    +0.000 C 
ENDBRANCH  18  19
ENDBRANCH   6  18
TORSDOF 3
ENDMDL
MODEL 9
REMARK VINA RESULT:      -7.3      2.565      3.125
REMARK  Name = 
REMARK  4 active torsions:
REMARK  status: ('A' for Active; 'I' for Inactive)
REMARK    1  A    between atoms: C_1  and  N_2
REMARK    2  A    between atoms: N_6  and  C_7
REMARK    3  A    between atoms: C_7  and  C_8
REMARK    4  A    between atoms: C_12  and  C_13
REMARK                            x       y       z     vdW  Elec       q    Type
REMARK                         _______ _______ _______ _____ _____    ______ ____
ROOT
ATOM      1  C   UNL     1       4.092   2.762  19.946  0.00  0.00    +0.000 C 
ATOM      2  N   UNL     1       4.928   2.889  18.774  0.00  0.00    +0.000 N 
ATOM      3  C   UNL     1       4.779   4.048  18.027  0.00  0.00    +0.000 A 
ATOM      4  N   UNL     1       5.368   4.058  16.825  0.00  0.00    +0.000 NA
ATOM      5  C   UNL     1       5.335   5.202  16.122  0.00  0.00    +0.000 A 
ATOM      6  N   UNL     1       5.985   5.324  14.877  0.00  0.00    +0.000 N 
ATOM      7  C   UNL     1       4.652   6.305  16.580  0.00  0.00    +0.000 A 
ATOM      8  C   UNL     1       3.981   6.188  17.777  0.00  0.00    +0.000 A 
ATOM      9  N   UNL     1       4.078   5.070  18.526  0.00  0.00    +0.000 NA
ATOM     10  H   UNL     1       4.963   2.105  18.135  0.00  0.00    +0.000 HD
ATOM     11  H   UNL     1       6.688   6.058  14.950  0.00  0.00    +0.000 HD
ENDROOT
BRANCH   8  12
ATOM     12  C   UNL     1       3.079   7.252  18.275  0.00  0.00    +0.000 A 
ATOM     13  C   UNL     1       2.467   7.191  19.528  0.00  0.00    +0.000 A 
ATOM     14  C   UNL     1       1.568   8.187  19.902  0.00  0.00    +0.000 A 
ATOM     15  C   UNL     1       1.297   9.224  19.020  0.00  0.00    +0.000 A 
ATOM     16  C   UNL     1       1.944   9.225  17.799  0.00  0.00    +0.000 A 
ATOM     17  N   UNL     1       2.820   8.274  17.415  0.00  0.00    +0.000 NA
ENDBRANCH   8  12
BRANCH   6  18
ATOM     18  C   UNL     1       6.521   4.098  14.326  0.00  0.00    +0.000 C 
BRANCH  18  19
ATOM     19  C   UNL     1       6.323   4.117  12.835  0.00  0.00    +0.000 C 
ATOM     20  C   UNL     1       6.374   2.853  12.008  0.00  0.00    +0.000 C 
ATOM     21  C   UNL     1       5.059   3.542  12.244  0.00  0.00    +0.000 C 
ENDBRANCH  18  19
ENDBRANCH   6  18
TORSDOF 3
ENDMDL
