MODEL 1
REMARK VINA RESULT:      -8.6      0.000      0.000
REMARK  Name = 
REMARK  12 active torsions:
REMARK  status: ('A' for Active; 'I' for Inactive)
REMARK    1  A    between atoms: C_1  and  O_2
REMARK    2  A    between atoms: O_2  and  C_3
REMARK    3  A    between atoms: C_8  and  O_9
REMARK    4  A    between atoms: O_9  and  C_10
REMARK    5  A    between atoms: C_13  and  C_14
REMARK    6  A    between atoms: C_17  and  O_18
REMARK    7  A    between atoms: O_18  and  C_19
REMARK    8  A    between atoms: C_20  and  C_21
REMARK    9  A    between atoms: C_21  and  O_23
REMARK   10  A    between atoms: C_26  and  N_27
REMARK   11  A    between atoms: N_30  and  C_31
REMARK   12  A    between atoms: C_34  and  C_35
REMARK                            x       y       z     vdW  Elec       q    Type
REMARK                         _______ _______ _______ _____ _____    ______ ____
ROOT
ATOM      1  C   UNL     1       1.214  10.822  18.982  0.00  0.00    +0.000 A 
ATOM      2  C   UNL     1       1.618  10.144  17.826  0.00  0.00    +0.000 A 
ATOM      3  C   UNL     1       2.054   8.824  17.901  0.00  0.00    +0.000 A 
ATOM      4  C   UNL     1       1.981   8.107  19.100  0.00  0.00    +0.000 A 
ATOM      5  C   UNL     1       1.364   8.746  20.190  0.00  0.00    +0.000 A 
ATOM      6  C   UNL     1       1.007  10.105  20.175  0.00  0.00    +0.000 A 
ENDROOT
BRANCH   4   7
ATOM      7  C   UNL     1       2.530   6.740  19.229  0.00  0.00    +0.000 A 
ATOM      8  C   UNL     1       3.635   6.333  18.476  0.00  0.00    +0.000 A 
ATOM      9  C   UNL     1       4.151   5.043  18.580  0.00  0.00    +0.000 A 
ATOM     10  C   UNL     1       3.555   4.095  19.418  0.00  0.00    +0.000 A 
ATOM     11  C   UNL     1       2.473   4.481  20.226  0.00  0.00    +0.000 A 
ATOM     12  C   UNL     1       1.984   5.799  20.127  0.00  0.00    +0.000 A 
BRANCH  10  13
ATOM     13  O   UNL     1       4.005   2.797  19.489  0.00  0.00    +0.000 OA
ATOM     14  C   UNL     1       3.577   1.943  18.423  0.00  0.00    +0.000 C 
ENDBRANCH  10  13
BRANCH  11  15
ATOM     15  C   UNL     1       1.759   3.586  21.194  0.00  0.00    +0.000 C 
ATOM     16  O   UNL     1       2.217   3.294  22.288  0.00  0.00    +0.000 OA
BRANCH  15  17
ATOM     17  O   UNL     1       0.564   3.102  20.784  0.00  0.00    +0.000 OA
ATOM     18  H   UNL     1       0.627   2.635  19.923  0.00  0.00    +0.000 HD
ENDBRANCH  15  17
ENDBRANCH  11  15
ENDBRANCH   4   7
BRANCH   6  19
ATOM     19  N   UNL     1       0.440  10.726  21.336  0.00  0.00    +0.000 N 
ATOM     20  C   UNL     1      -0.810  11.343  21.343  0.00  0.00    +0.000 C 
ATOM     21  O   UNL     1      -1.583  11.287  20.396  0.00  0.00    +0.000 OA
ATOM     22  N   UNL     1      -1.086  12.025  22.522  0.00  0.00    +0.000 N 
ATOM     23  H   UNL     1       0.828  10.442  22.223  0.00  0.00    +0.000 HD
ATOM     24  H   UNL     1      -0.299  12.246  23.115  0.00  0.00    +0.000 HD
BRANCH  22  25
ATOM     25  C   UNL     1      -2.332  12.638  22.835  0.00  0.00    +0.000 A 
ATOM     26  C   UNL     1      -3.259  12.094  23.730  0.00  0.00    +0.000 A 
ATOM     27  C   UNL     1      -4.461  12.743  24.032  0.00  0.00    +0.000 A 
ATOM     28  C   UNL     1      -4.772  13.971  23.449  0.00  0.00    +0.000 A 
ATOM     29  C   UNL     1      -6.042  14.683  23.810  0.00  0.00    +0.000 C 
ATOM     30  C   UNL     1      -3.859  14.525  22.545  0.00  0.00    +0.000 A 
ATOM     31  C   UNL     1      -2.653  13.870  22.240  0.00  0.00    +0.000 A 
ENDBRANCH  22  25
ENDBRANCH   6  19
BRANCH   1  32
ATOM     32  O   UNL     1       1.035  12.188  18.984  0.00  0.00    +0.000 OA
BRANCH  32  38
ATOM     33  C   UNL     1       2.368  13.752  20.434  0.00  0.00    +0.000 A 
ATOM     34  C   UNL     1       3.448  14.649  20.464  0.00  0.00    +0.000 A 
ATOM     35  C   UNL     1       4.272  14.821  19.352  0.00  0.00    +0.000 A 
ATOM     36  C   UNL     1       4.035  14.091  18.194  0.00  0.00    +0.000 A 
ATOM     37  C   UNL     1       2.957  13.206  18.140  0.00  0.00    +0.000 A 
ATOM     38  C   UNL     1       2.110  13.031  19.245  0.00  0.00    +0.000 A 
BRANCH  33  40
ATOM     39  C   UNL     1       0.987  14.795  22.066  0.00  0.00    +0.000 C 
ATOM     40  O   UNL     1       1.539  13.595  21.519  0.00  0.00    +0.000 OA
ENDBRANCH  33  40
ENDBRANCH  32  38
ENDBRANCH   1  32
TORSDOF 9
ENDMDL
MODEL 2
REMARK VINA RESULT:      -8.2      0.867      1.889
REMARK  Name = 
REMARK  12 active torsions:
REMARK  status: ('A' for Active; 'I' for Inactive)
REMARK    1  A    between atoms: C_1  and  O_2
REMARK    2  A    between atoms: O_2  and  C_3
REMARK    3  A    between atoms: C_8  and  O_9
REMARK    4  A    between atoms: O_9  and  C_10
REMARK    5  A    between atoms: C_13  and  C_14
REMARK    6  A    between atoms: C_17  and  O_18
REMARK    7  A    between atoms: O_18  and  C_19
REMARK    8  A    between atoms: C_20  and  C_21
REMARK    9  A    between atoms: C_21  and  O_23
REMARK   10  A    between atoms: C_26  and  N_27
REMARK   11  A    between atoms: N_30  and  C_31
REMARK   12  A    between atoms: C_34  and  C_35
REMARK                            x       y       z     vdW  Elec       q    Type
REMARK                         _______ _______ _______ _____ _____    ______ ____
ROOT
ATOM      1  C   UNL     1       1.226  11.124  19.031  0.00  0.00    +0.000 A 
ATOM      2  C   UNL     1       1.632  10.436  17.883  0.00  0.00    +0.000 A 
ATOM      3  C   UNL     1       2.009   9.098  17.962  0.00  0.00    +0.000 A 
ATOM      4  C   UNL     1       1.875   8.379  19.155  0.00  0.00    +0.000 A 
ATOM      5  C   UNL     1       1.256   9.038  20.231  0.00  0.00    +0.000 A 
ATOM      6  C   UNL     1       0.957  10.411  20.214  0.00  0.00    +0.000 A 
ENDROOT
BRANCH   4   7
ATOM      7  C   UNL     1       2.362   6.990  19.291  0.00  0.00    +0.000 A 
ATOM      8  C   UNL     1       1.870   6.149  20.293  0.00  0.00    +0.000 A 
ATOM      9  C   UNL     1       2.333   4.842  20.438  0.00  0.00    +0.000 A 
ATOM     10  C   UNL     1       3.338   4.338  19.607  0.00  0.00    +0.000 A 
ATOM     11  C   UNL     1       3.823   5.138  18.559  0.00  0.00    +0.000 A 
ATOM     12  C   UNL     1       3.320   6.446  18.411  0.00  0.00    +0.000 A 
BRANCH  10  13
ATOM     13  O   UNL     1       3.858   3.075  19.772  0.00  0.00    +0.000 OA
ATOM     14  C   UNL     1       3.071   2.013  19.224  0.00  0.00    +0.000 C 
ENDBRANCH  10  13
BRANCH  11  15
ATOM     15  C   UNL     1       4.871   4.720  17.571  0.00  0.00    +0.000 C 
ATOM     16  O   UNL     1       4.808   4.994  16.383  0.00  0.00    +0.000 OA
BRANCH  15  17
ATOM     17  O   UNL     1       5.905   4.005  18.070  0.00  0.00    +0.000 OA
ATOM     18  H   UNL     1       6.556   3.760  17.378  0.00  0.00    +0.000 HD
ENDBRANCH  15  17
ENDBRANCH  11  15
ENDBRANCH   4   7
BRANCH   6  19
ATOM     19  N   UNL     1       0.386  11.051  21.363  0.00  0.00    +0.000 N 
ATOM     20  C   UNL     1      -0.886  11.620  21.372  0.00  0.00    +0.000 C 
ATOM     21  O   UNL     1      -1.672  11.502  20.441  0.00  0.00    +0.000 OA
ATOM     22  N   UNL     1      -1.168  12.332  22.531  0.00  0.00    +0.000 N 
ATOM     23  H   UNL     1       0.799  10.813  22.253  0.00  0.00    +0.000 HD
ATOM     24  H   UNL     1      -0.381  12.603  23.102  0.00  0.00    +0.000 HD
BRANCH  22  25
ATOM     25  C   UNL     1      -2.432  12.908  22.845  0.00  0.00    +0.000 A 
ATOM     26  C   UNL     1      -3.391  12.280  23.647  0.00  0.00    +0.000 A 
ATOM     27  C   UNL     1      -4.610  12.894  23.956  0.00  0.00    +0.000 A 
ATOM     28  C   UNL     1      -4.907  14.168  23.474  0.00  0.00    +0.000 A 
ATOM     29  C   UNL     1      -6.197  14.839  23.843  0.00  0.00    +0.000 C 
ATOM     30  C   UNL     1      -3.961  14.807  22.664  0.00  0.00    +0.000 A 
ATOM     31  C   UNL     1      -2.737  14.188  22.352  0.00  0.00    +0.000 A 
ENDBRANCH  22  25
ENDBRANCH   6  19
BRANCH   1  32
ATOM     32  O   UNL     1       1.105  12.496  19.036  0.00  0.00    +0.000 OA
BRANCH  32  38
ATOM     33  C   UNL     1       2.537  13.946  20.510  0.00  0.00    +0.000 A 
ATOM     34  C   UNL     1       3.646  14.808  20.544  0.00  0.00    +0.000 A 
ATOM     35  C   UNL     1       4.434  15.010  19.411  0.00  0.00    +0.000 A 
ATOM     36  C   UNL     1       4.133  14.346  18.229  0.00  0.00    +0.000 A 
ATOM     37  C   UNL     1       3.027  13.497  18.172  0.00  0.00    +0.000 A 
ATOM     38  C   UNL     1       2.214  13.293  19.297  0.00  0.00    +0.000 A 
BRANCH  33  40
ATOM     39  C   UNL     1       1.024  14.907  22.074  0.00  0.00    +0.000 C 
ATOM     40  O   UNL     1       1.744  13.760  21.616  0.00  0.00    +0.000 OA
ENDBRANCH  33  40
ENDBRANCH  32  38
ENDBRANCH   1  32
TORSDOF 9
ENDMDL
MODEL 3
REMARK VINA RESULT:      -7.8      1.181      2.124
REMARK  Name = 
REMARK  12 active torsions:
REMARK  status: ('A' for Active; 'I' for Inactive)
REMARK    1  A    between atoms: C_1  and  O_2
REMARK    2  A    between atoms: O_2  and  C_3
REMARK    3  A    between atoms: C_8  and  O_9
REMARK    4  A    between atoms: O_9  and  C_10
REMARK    5  A    between atoms: C_13  and  C_14
REMARK    6  A    between atoms: C_17  and  O_18
REMARK    7  A    between atoms: O_18  and  C_19
REMARK    8  A    between atoms: C_20  and  C_21
REMARK    9  A    between atoms: C_21  and  O_23
REMARK   10  A    between atoms: C_26  and  N_27
REMARK   11  A    between atoms: N_30  and  C_31
REMARK   12  A    between atoms: C_34  and  C_35
REMARK                            x       y       z     vdW  Elec       q    Type
REMARK                         _______ _______ _______ _____ _____    ______ ____
ROOT
ATOM      1  C   UNL     1       1.126  11.636  19.341  0.00  0.00    +0.000 A 
ATOM      2  C   UNL     1       1.584  11.008  18.177  0.00  0.00    +0.000 A 
ATOM      3  C   UNL     1       1.897   9.652  18.188  0.00  0.00    +0.000 A 
ATOM      4  C   UNL     1       1.646   8.862  19.315  0.00  0.00    +0.000 A 
ATOM      5  C   UNL     1       0.980   9.475  20.390  0.00  0.00    +0.000 A 
ATOM      6  C   UNL     1       0.742  10.859  20.449  0.00  0.00    +0.000 A 
ENDROOT
BRANCH   4   7
ATOM      7  C   UNL     1       2.063   7.444  19.386  0.00  0.00    +0.000 A 
ATOM      8  C   UNL     1       1.712   6.644  20.477  0.00  0.00    +0.000 A 
ATOM      9  C   UNL     1       2.111   5.312  20.559  0.00  0.00    +0.000 A 
ATOM     10  C   UNL     1       2.913   4.737  19.567  0.00  0.00    +0.000 A 
ATOM     11  C   UNL     1       3.245   5.497  18.433  0.00  0.00    +0.000 A 
ATOM     12  C   UNL     1       2.806   6.833  18.355  0.00  0.00    +0.000 A 
BRANCH  10  13
ATOM     13  O   UNL     1       3.375   3.445  19.658  0.00  0.00    +0.000 OA
ATOM     14  C   UNL     1       2.365   2.446  19.838  0.00  0.00    +0.000 C 
ENDBRANCH  10  13
BRANCH  11  15
ATOM     15  C   UNL     1       4.064   5.004  17.278  0.00  0.00    +0.000 C 
ATOM     16  O   UNL     1       4.909   5.692  16.724  0.00  0.00    +0.000 OA
BRANCH  15  17
ATOM     17  O   UNL     1       3.812   3.741  16.867  0.00  0.00    +0.000 OA
ATOM     18  H   UNL     1       4.444   3.440  16.179  0.00  0.00    +0.000 HD
ENDBRANCH  15  17
ENDBRANCH  11  15
ENDBRANCH   4   7
BRANCH   6  19
ATOM     19  N   UNL     1       0.118  11.446  21.599  0.00  0.00    +0.000 N 
ATOM     20  C   UNL     1      -1.183  11.945  21.594  0.00  0.00    +0.000 C 
ATOM     21  O   UNL     1      -1.946  11.802  20.647  0.00  0.00    +0.000 OA
ATOM     22  N   UNL     1      -1.524  12.620  22.760  0.00  0.00    +0.000 N 
ATOM     23  H   UNL     1       0.528  11.214  22.491  0.00  0.00    +0.000 HD
ATOM     24  H   UNL     1      -0.763  12.923  23.350  0.00  0.00    +0.000 HD
BRANCH  22  25
ATOM     25  C   UNL     1      -2.822  13.121  23.061  0.00  0.00    +0.000 A 
ATOM     26  C   UNL     1      -3.336  14.309  22.530  0.00  0.00    +0.000 A 
ATOM     27  C   UNL     1      -4.629  14.752  22.829  0.00  0.00    +0.000 A 
ATOM     28  C   UNL     1      -5.457  14.012  23.671  0.00  0.00    +0.000 A 
ATOM     29  C   UNL     1      -6.857  14.469  23.953  0.00  0.00    +0.000 C 
ATOM     30  C   UNL     1      -4.956  12.824  24.216  0.00  0.00    +0.000 A 
ATOM     31  C   UNL     1      -3.655  12.381  23.917  0.00  0.00    +0.000 A 
ENDBRANCH  22  25
ENDBRANCH   6  19
BRANCH   1  32
ATOM     32  O   UNL     1       1.063  13.009  19.435  0.00  0.00    +0.000 OA
BRANCH  32  38
ATOM     33  C   UNL     1       2.333  14.346  21.145  0.00  0.00    +0.000 A 
ATOM     34  C   UNL     1       3.475  15.132  21.371  0.00  0.00    +0.000 A 
ATOM     35  C   UNL     1       4.445  15.293  20.381  0.00  0.00    +0.000 A 
ATOM     36  C   UNL     1       4.293  14.662  19.153  0.00  0.00    +0.000 A 
ATOM     37  C   UNL     1       3.158  13.889  18.905  0.00  0.00    +0.000 A 
ATOM     38  C   UNL     1       2.166  13.728  19.884  0.00  0.00    +0.000 A 
BRANCH  33  40
ATOM     39  C   UNL     1       0.586  15.366  22.396  0.00  0.00    +0.000 C 
ATOM     40  O   UNL     1       1.364  14.202  22.108  0.00  0.00    +0.000 OA
ENDBRANCH  33  40
ENDBRANCH  32  38
ENDBRANCH   1  32
TORSDOF 9
ENDMDL
MODEL 4
REMARK VINA RESULT:      -7.7      3.541      9.891
REMARK  Name = 
REMARK  12 active torsions:
REMARK  status: ('A' for Active; 'I' for Inactive)
REMARK    1  A    between atoms: C_1  and  O_2
REMARK    2  A    between atoms: O_2  and  C_3
REMARK    3  A    between atoms: C_8  and  O_9
REMARK    4  A    between atoms: O_9  and  C_10
REMARK    5  A    between atoms: C_13  and  C_14
REMARK    6  A    between atoms: C_17  and  O_18
REMARK    7  A    between atoms: O_18  and  C_19
REMARK    8  A    between atoms: C_20  and  C_21
REMARK    9  A    between atoms: C_21  and  O_23
REMARK   10  A    between atoms: C_26  and  N_27
REMARK   11  A    between atoms: N_30  and  C_31
REMARK   12  A    between atoms: C_34  and  C_35
REMARK                            x       y       z     vdW  Elec       q    Type
REMARK                         _______ _______ _______ _____ _____    ______ ____
ROOT
ATOM      1  C   UNL     1      -0.512  11.807  18.647  0.00  0.00    +0.000 A 
ATOM      2  C   UNL     1      -0.775  13.105  18.198  0.00  0.00    +0.000 A 
ATOM      3  C   UNL     1       0.189  14.101  18.323  0.00  0.00    +0.000 A 
ATOM      4  C   UNL     1       1.478  13.805  18.781  0.00  0.00    +0.000 A 
ATOM      5  C   UNL     1       1.778  12.452  19.013  0.00  0.00    +0.000 A 
ATOM      6  C   UNL     1       0.803  11.441  18.993  0.00  0.00    +0.000 A 
ENDROOT
BRANCH   4   7
ATOM      7  C   UNL     1       2.486  14.861  19.018  0.00  0.00    +0.000 A 
ATOM      8  C   UNL     1       2.102  16.161  19.357  0.00  0.00    +0.000 A 
ATOM      9  C   UNL     1       3.044  17.166  19.569  0.00  0.00    +0.000 A 
ATOM     10  C   UNL     1       4.411  16.916  19.412  0.00  0.00    +0.000 A 
ATOM     11  C   UNL     1       4.837  15.610  19.118  0.00  0.00    +0.000 A 
ATOM     12  C   UNL     1       3.870  14.602  18.936  0.00  0.00    +0.000 A 
BRANCH  10  13
ATOM     13  O   UNL     1       5.356  17.907  19.550  0.00  0.00    +0.000 OA
ATOM     14  C   UNL     1       5.576  18.358  20.890  0.00  0.00    +0.000 C 
ENDBRANCH  10  13
BRANCH  11  15
ATOM     15  C   UNL     1       6.267  15.188  18.955  0.00  0.00    +0.000 C 
ATOM     16  O   UNL     1       7.022  15.028  19.902  0.00  0.00    +0.000 OA
BRANCH  15  17
ATOM     17  O   UNL     1       6.688  14.997  17.684  0.00  0.00    +0.000 OA
ATOM     18  H   UNL     1       7.502  14.449  17.640  0.00  0.00    +0.000 HD
ENDBRANCH  15  17
ENDBRANCH  11  15
ENDBRANCH   4   7
BRANCH   6  19
ATOM     19  N   UNL     1       1.148  10.084  19.302  0.00  0.00    +0.000 N 
ATOM     20  C   UNL     1       1.850   9.253  18.430  0.00  0.00    +0.000 C 
ATOM     21  O   UNL     1       2.346   9.655  17.385  0.00  0.00    +0.000 OA
ATOM     22  N   UNL     1       1.926   7.934  18.860  0.00  0.00    +0.000 N 
ATOM     23  H   UNL     1       1.141   9.838  20.280  0.00  0.00    +0.000 HD
ATOM     24  H   UNL     1       1.266   7.647  19.568  0.00  0.00    +0.000 HD
BRANCH  22  25
ATOM     25  C   UNL     1       2.682   6.912  18.220  0.00  0.00    +0.000 A 
ATOM     26  C   UNL     1       3.902   7.140  17.574  0.00  0.00    +0.000 A 
ATOM     27  C   UNL     1       4.629   6.101  16.983  0.00  0.00    +0.000 A 
ATOM     28  C   UNL     1       4.158   4.790  17.025  0.00  0.00    +0.000 A 
ATOM     29  C   UNL     1       4.963   3.674  16.427  0.00  0.00    +0.000 C 
ATOM     30  C   UNL     1       2.935   4.545  17.661  0.00  0.00    +0.000 A 
ATOM     31  C   UNL     1       2.204   5.590  18.252  0.00  0.00    +0.000 A 
ENDBRANCH  22  25
ENDBRANCH   6  19
BRANCH   1  32
ATOM     32  O   UNL     1      -1.520  10.878  18.782  0.00  0.00    +0.000 OA
BRANCH  32  38
ATOM     33  C   UNL     1      -3.247  10.933  16.955  0.00  0.00    +0.000 A 
ATOM     34  C   UNL     1      -4.531  11.381  16.601  0.00  0.00    +0.000 A 
ATOM     35  C   UNL     1      -5.355  12.010  17.534  0.00  0.00    +0.000 A 
ATOM     36  C   UNL     1      -4.913  12.193  18.838  0.00  0.00    +0.000 A 
ATOM     37  C   UNL     1      -3.635  11.769  19.203  0.00  0.00    +0.000 A 
ATOM     38  C   UNL     1      -2.787  11.147  18.275  0.00  0.00    +0.000 A 
BRANCH  33  40
ATOM     39  C   UNL     1      -2.965  10.159  14.723  0.00  0.00    +0.000 C 
ATOM     40  O   UNL     1      -2.423  10.333  16.034  0.00  0.00    +0.000 OA
ENDBRANCH  33  40
ENDBRANCH  32  38
ENDBRANCH   1  32
TORSDOF 9
ENDMDL
MODEL 5
REMARK VINA RESULT:      -7.6      1.292      2.250
REMARK  Name = 
REMARK  12 active torsions:
REMARK  status: ('A' for Active; 'I' for Inactive)
REMARK    1  A    between atoms: C_1  and  O_2
REMARK    2  A    between atoms: O_2  and  C_3
REMARK    3  A    between atoms: C_8  and  O_9
REMARK    4  A    between atoms: O_9  and  C_10
REMARK    5  A    between atoms: C_13  and  C_14
REMARK    6  A    between atoms: C_17  and  O_18
REMARK    7  A    between atoms: O_18  and  C_19
REMARK    8  A    between atoms: C_20  and  C_21
REMARK    9  A    between atoms: C_21  and  O_23
REMARK   10  A    between atoms: C_26  and  N_27
REMARK   11  A    between atoms: N_30  and  C_31
REMARK   12  A    between atoms: C_34  and  C_35
REMARK                            x       y       z     vdW  Elec       q    Type
REMARK                         _______ _______ _______ _____ _____    ______ ____
ROOT
ATOM      1  C   UNL     1       1.268  11.773  19.399  0.00  0.00    +0.000 A 
ATOM      2  C   UNL     1       1.730  11.136  18.242  0.00  0.00    +0.000 A 
ATOM      3  C   UNL     1       1.981   9.766  18.247  0.00  0.00    +0.000 A 
ATOM      4  C   UNL     1       1.661   8.978  19.358  0.00  0.00    +0.000 A 
ATOM      5  C   UNL     1       0.992   9.612  20.420  0.00  0.00    +0.000 A 
ATOM      6  C   UNL     1       0.816  11.004  20.487  0.00  0.00    +0.000 A 
ENDROOT
BRANCH   4   7
ATOM      7  C   UNL     1       2.009   7.542  19.426  0.00  0.00    +0.000 A 
ATOM      8  C   UNL     1       1.635   6.761  20.523  0.00  0.00    +0.000 A 
ATOM      9  C   UNL     1       1.971   5.412  20.603  0.00  0.00    +0.000 A 
ATOM     10  C   UNL     1       2.730   4.797  19.601  0.00  0.00    +0.000 A 
ATOM     11  C   UNL     1       3.084   5.539  18.461  0.00  0.00    +0.000 A 
ATOM     12  C   UNL     1       2.709   6.895  18.387  0.00  0.00    +0.000 A 
BRANCH  10  13
ATOM     13  O   UNL     1       3.131   3.484  19.689  0.00  0.00    +0.000 OA
ATOM     14  C   UNL     1       2.086   2.543  19.954  0.00  0.00    +0.000 C 
ENDBRANCH  10  13
BRANCH  11  15
ATOM     15  C   UNL     1       3.863   5.006  17.296  0.00  0.00    +0.000 C 
ATOM     16  O   UNL     1       4.680   5.676  16.684  0.00  0.00    +0.000 OA
BRANCH  15  17
ATOM     17  O   UNL     1       3.605   3.725  16.946  0.00  0.00    +0.000 OA
ATOM     18  H   UNL     1       2.643   3.546  16.874  0.00  0.00    +0.000 HD
ENDBRANCH  15  17
ENDBRANCH  11  15
ENDBRANCH   4   7
BRANCH   6  19
ATOM     19  N   UNL     1       0.186  11.609  21.624  0.00  0.00    +0.000 N 
ATOM     20  C   UNL     1      -1.131  12.065  21.618  0.00  0.00    +0.000 C 
ATOM     21  O   UNL     1      -1.899  11.865  20.686  0.00  0.00    +0.000 OA
ATOM     22  N   UNL     1      -1.481  12.767  22.766  0.00  0.00    +0.000 N 
ATOM     23  H   UNL     1       0.613  11.421  22.518  0.00  0.00    +0.000 HD
ATOM     24  H   UNL     1      -0.724  13.114  23.336  0.00  0.00    +0.000 HD
BRANCH  22  25
ATOM     25  C   UNL     1      -2.791  13.235  23.066  0.00  0.00    +0.000 A 
ATOM     26  C   UNL     1      -3.302  14.454  22.607  0.00  0.00    +0.000 A 
ATOM     27  C   UNL     1      -4.607  14.865  22.901  0.00  0.00    +0.000 A 
ATOM     28  C   UNL     1      -5.451  14.059  23.665  0.00  0.00    +0.000 A 
ATOM     29  C   UNL     1      -6.862  14.484  23.940  0.00  0.00    +0.000 C 
ATOM     30  C   UNL     1      -4.952  12.840  24.138  0.00  0.00    +0.000 A 
ATOM     31  C   UNL     1      -3.640  12.430  23.844  0.00  0.00    +0.000 A 
ENDBRANCH  22  25
ENDBRANCH   6  19
BRANCH   1  32
ATOM     32  O   UNL     1       1.266  13.147  19.505  0.00  0.00    +0.000 OA
BRANCH  32  38
ATOM     33  C   UNL     1       3.475  14.154  20.160  0.00  0.00    +0.000 A 
ATOM     34  C   UNL     1       4.516  15.002  19.750  0.00  0.00    +0.000 A 
ATOM     35  C   UNL     1       4.539  15.544  18.465  0.00  0.00    +0.000 A 
ATOM     36  C   UNL     1       3.526  15.238  17.566  0.00  0.00    +0.000 A 
ATOM     37  C   UNL     1       2.475  14.410  17.960  0.00  0.00    +0.000 A 
ATOM     38  C   UNL     1       2.428  13.867  19.253  0.00  0.00    +0.000 A 
BRANCH  33  40
ATOM     39  C   UNL     1       4.547  13.950  22.274  0.00  0.00    +0.000 C 
ATOM     40  O   UNL     1       3.436  13.635  21.432  0.00  0.00    +0.000 OA
ENDBRANCH  33  40
ENDBRANCH  32  38
ENDBRANCH   1  32
TORSDOF 9
ENDMDL
MODEL 6
REMARK VINA RESULT:      -7.5      3.141      9.233
REMARK  Name = 
REMARK  12 active torsions:
REMARK  status: ('A' for Active; 'I' for Inactive)
REMARK    1  A    between atoms: C_1  and  O_2
REMARK    2  A    between atoms: O_2  and  C_3
REMARK    3  A    between atoms: C_8  and  O_9
REMARK    4  A    between atoms: O_9  and  C_10
REMARK    5  A    between atoms: C_13  and  C_14
REMARK    6  A    between atoms: C_17  and  O_18
REMARK    7  A    between atoms: O_18  and  C_19
REMARK    8  A    between atoms: C_20  and  C_21
REMARK    9  A    between atoms: C_21  and  O_23
REMARK   10  A    between atoms: C_26  and  N_27
REMARK   11  A    between atoms: N_30  and  C_31
REMARK   12  A    between atoms: C_34  and  C_35
REMARK                            x       y       z     vdW  Elec       q    Type
REMARK                         _______ _______ _______ _____ _____    ______ ____
ROOT
ATOM      1  C   UNL     1      -0.165  11.502  18.861  0.00  0.00    +0.000 A 
ATOM      2  C   UNL     1      -0.447  12.792  19.324  0.00  0.00    +0.000 A 
ATOM      3  C   UNL     1       0.587  13.662  19.656  0.00  0.00    +0.000 A 
ATOM      4  C   UNL     1       1.923  13.318  19.420  0.00  0.00    +0.000 A 
ATOM      5  C   UNL     1       2.162  12.107  18.749  0.00  0.00    +0.000 A 
ATOM      6  C   UNL     1       1.151  11.165  18.492  0.00  0.00    +0.000 A 
ENDROOT
BRANCH   4   7
ATOM      7  C   UNL     1       3.042  14.181  19.857  0.00  0.00    +0.000 A 
ATOM      8  C   UNL     1       3.525  15.205  19.037  0.00  0.00    +0.000 A 
ATOM      9  C   UNL     1       4.588  16.014  19.434  0.00  0.00    +0.000 A 
ATOM     10  C   UNL     1       5.237  15.804  20.655  0.00  0.00    +0.000 A 
ATOM     11  C   UNL     1       4.749  14.814  21.525  0.00  0.00    +0.000 A 
ATOM     12  C   UNL     1       3.654  14.027  21.118  0.00  0.00    +0.000 A 
BRANCH  10  13
ATOM     13  O   UNL     1       6.330  16.545  21.039  0.00  0.00    +0.000 OA
ATOM     14  C   UNL     1       7.398  16.596  20.088  0.00  0.00    +0.000 C 
ENDBRANCH  10  13
BRANCH  11  15
ATOM     15  C   UNL     1       5.319  14.501  22.876  0.00  0.00    +0.000 C 
ATOM     16  O   UNL     1       4.622  14.312  23.862  0.00  0.00    +0.000 OA
BRANCH  15  17
ATOM     17  O   UNL     1       6.668  14.445  22.952  0.00  0.00    +0.000 OA
ATOM     18  H   UNL     1       6.978  14.072  23.806  0.00  0.00    +0.000 HD
ENDBRANCH  15  17
ENDBRANCH  11  15
ENDBRANCH   4   7
BRANCH   6  19
ATOM     19  N   UNL     1       1.458   9.914  17.863  0.00  0.00    +0.000 N 
ATOM     20  C   UNL     1       1.820   8.768  18.569  0.00  0.00    +0.000 C 
ATOM     21  O   UNL     1       1.776   8.699  19.790  0.00  0.00    +0.000 OA
ATOM     22  N   UNL     1       2.238   7.723  17.755  0.00  0.00    +0.000 N 
ATOM     23  H   UNL     1       1.111   9.795  16.923  0.00  0.00    +0.000 HD
ATOM     24  H   UNL     1       2.503   7.959  16.810  0.00  0.00    +0.000 HD
BRANCH  22  25
ATOM     25  C   UNL     1       2.547   6.410  18.210  0.00  0.00    +0.000 A 
ATOM     26  C   UNL     1       3.680   6.101  18.970  0.00  0.00    +0.000 A 
ATOM     27  C   UNL     1       3.933   4.801  19.422  0.00  0.00    +0.000 A 
ATOM     28  C   UNL     1       3.049   3.763  19.132  0.00  0.00    +0.000 A 
ATOM     29  C   UNL     1       3.303   2.380  19.656  0.00  0.00    +0.000 C 
ATOM     30  C   UNL     1       1.914   4.054  18.366  0.00  0.00    +0.000 A 
ATOM     31  C   UNL     1       1.663   5.360  17.909  0.00  0.00    +0.000 A 
ENDBRANCH  22  25
ENDBRANCH   6  19
BRANCH   1  32
ATOM     32  O   UNL     1      -1.148  10.540  18.780  0.00  0.00    +0.000 OA
BRANCH  32  38
ATOM     33  C   UNL     1      -3.409  11.328  18.011  0.00  0.00    +0.000 A 
ATOM     34  C   UNL     1      -4.366  11.245  16.987  0.00  0.00    +0.000 A 
ATOM     35  C   UNL     1      -4.104  10.541  15.812  0.00  0.00    +0.000 A 
ATOM     36  C   UNL     1      -2.876   9.915  15.638  0.00  0.00    +0.000 A 
ATOM     37  C   UNL     1      -1.918   9.974  16.652  0.00  0.00    +0.000 A 
ATOM     38  C   UNL     1      -2.170  10.666  17.845  0.00  0.00    +0.000 A 
BRANCH  33  40
ATOM     39  C   UNL     1      -5.026  12.408  19.382  0.00  0.00    +0.000 C 
ATOM     40  O   UNL     1      -3.670  12.003  19.179  0.00  0.00    +0.000 OA
ENDBRANCH  33  40
ENDBRANCH  32  38
ENDBRANCH   1  32
TORSDOF 9
ENDMDL
MODEL 7
REMARK VINA RESULT:      -7.5      1.130      2.036
REMARK  Name = 
REMARK  12 active torsions:
REMARK  status: ('A' for Active; 'I' for Inactive)
REMARK    1  A    between atoms: C_1  and  O_2
REMARK    2  A    between atoms: O_2  and  C_3
REMARK    3  A    between atoms: C_8  and  O_9
REMARK    4  A    between atoms: O_9  and  C_10
REMARK    5  A    between atoms: C_13  and  C_14
REMARK    6  A    between atoms: C_17  and  O_18
REMARK    7  A    between atoms: O_18  and  C_19
REMARK    8  A    between atoms: C_20  and  C_21
REMARK    9  A    between atoms: C_21  and  O_23
REMARK   10  A    between atoms: C_26  and  N_27
REMARK   11  A    between atoms: N_30  and  C_31
REMARK   12  A    between atoms: C_34  and  C_35
REMARK                            x       y       z     vdW  Elec       q    Type
REMARK                         _______ _______ _______ _____ _____    ______ ____
ROOT
ATOM      1  C   UNL     1       1.320  11.264  18.813  0.00  0.00    +0.000 A 
ATOM      2  C   UNL     1       1.847  10.477  17.783  0.00  0.00    +0.000 A 
ATOM      3  C   UNL     1       2.081   9.120  17.986  0.00  0.00    +0.000 A 
ATOM      4  C   UNL     1       1.684   8.487  19.169  0.00  0.00    +0.000 A 
ATOM      5  C   UNL     1       0.957   9.258  20.092  0.00  0.00    +0.000 A 
ATOM      6  C   UNL     1       0.793  10.648  19.963  0.00  0.00    +0.000 A 
ENDROOT
BRANCH   4   7
ATOM      7  C   UNL     1       2.012   7.072  19.448  0.00  0.00    +0.000 A 
ATOM      8  C   UNL     1       1.944   6.561  20.747  0.00  0.00    +0.000 A 
ATOM      9  C   UNL     1       2.265   5.233  21.023  0.00  0.00    +0.000 A 
ATOM     10  C   UNL     1       2.704   4.373  20.011  0.00  0.00    +0.000 A 
ATOM     11  C   UNL     1       2.740   4.839  18.686  0.00  0.00    +0.000 A 
ATOM     12  C   UNL     1       2.383   6.177  18.425  0.00  0.00    +0.000 A 
BRANCH  10  13
ATOM     13  O   UNL     1       3.090   3.078  20.269  0.00  0.00    +0.000 OA
ATOM     14  C   UNL     1       2.546   2.504  21.463  0.00  0.00    +0.000 C 
ENDBRANCH  10  13
BRANCH  11  15
ATOM     15  C   UNL     1       3.154   4.023  17.498  0.00  0.00    +0.000 C 
ATOM     16  O   UNL     1       2.363   3.637  16.652  0.00  0.00    +0.000 OA
BRANCH  15  17
ATOM     17  O   UNL     1       4.471   3.725  17.414  0.00  0.00    +0.000 OA
ATOM     18  H   UNL     1       4.779   3.184  18.173  0.00  0.00    +0.000 HD
ENDBRANCH  15  17
ENDBRANCH  11  15
ENDBRANCH   4   7
BRANCH   6  19
ATOM     19  N   UNL     1       0.099  11.400  20.967  0.00  0.00    +0.000 N 
ATOM     20  C   UNL     1      -1.219  11.832  20.828  0.00  0.00    +0.000 C 
ATOM     21  O   UNL     1      -1.935  11.491  19.896  0.00  0.00    +0.000 OA
ATOM     22  N   UNL     1      -1.633  12.686  21.843  0.00  0.00    +0.000 N 
ATOM     23  H   UNL     1       0.479  11.347  21.900  0.00  0.00    +0.000 HD
ATOM     24  H   UNL     1      -0.909  13.122  22.396  0.00  0.00    +0.000 HD
BRANCH  22  25
ATOM     25  C   UNL     1      -2.960  13.174  22.005  0.00  0.00    +0.000 A 
ATOM     26  C   UNL     1      -3.535  14.145  21.177  0.00  0.00    +0.000 A 
ATOM     27  C   UNL     1      -4.854  14.577  21.353  0.00  0.00    +0.000 A 
ATOM     28  C   UNL     1      -5.648  14.043  22.367  0.00  0.00    +0.000 A 
ATOM     29  C   UNL     1      -7.075  14.478  22.523  0.00  0.00    +0.000 C 
ATOM     30  C   UNL     1      -5.086  13.076  23.209  0.00  0.00    +0.000 A 
ATOM     31  C   UNL     1      -3.759  12.645  23.033  0.00  0.00    +0.000 A 
ENDBRANCH  22  25
ENDBRANCH   6  19
BRANCH   1  32
ATOM     32  O   UNL     1       1.326  12.639  18.736  0.00  0.00    +0.000 OA
BRANCH  32  38
ATOM     33  C   UNL     1       2.763  13.866  20.396  0.00  0.00    +0.000 A 
ATOM     34  C   UNL     1       3.905  14.668  20.553  0.00  0.00    +0.000 A 
ATOM     35  C   UNL     1       4.744  14.945  19.474  0.00  0.00    +0.000 A 
ATOM     36  C   UNL     1       4.459  14.418  18.221  0.00  0.00    +0.000 A 
ATOM     37  C   UNL     1       3.320  13.631  18.042  0.00  0.00    +0.000 A 
ATOM     38  C   UNL     1       2.458  13.354  19.113  0.00  0.00    +0.000 A 
BRANCH  33  40
ATOM     39  C   UNL     1       1.204  14.728  21.972  0.00  0.00    +0.000 C 
ATOM     40  O   UNL     1       1.922  13.607  21.451  0.00  0.00    +0.000 OA
ENDBRANCH  33  40
ENDBRANCH  32  38
ENDBRANCH   1  32
TORSDOF 9
ENDMDL
MODEL 8
REMARK VINA RESULT:      -7.5      2.048      5.835
REMARK  Name = 
REMARK  12 active torsions:
REMARK  status: ('A' for Active; 'I' for Inactive)
REMARK    1  A    between atoms: C_1  and  O_2
REMARK    2  A    between atoms: O_2  and  C_3
REMARK    3  A    between atoms: C_8  and  O_9
REMARK    4  A    between atoms: O_9  and  C_10
REMARK    5  A    between atoms: C_13  and  C_14
REMARK    6  A    between atoms: C_17  and  O_18
REMARK    7  A    between atoms: O_18  and  C_19
REMARK    8  A    between atoms: C_20  and  C_21
REMARK    9  A    between atoms: C_21  and  O_23
REMARK   10  A    between atoms: C_26  and  N_27
REMARK   11  A    between atoms: N_30  and  C_31
REMARK   12  A    between atoms: C_34  and  C_35
REMARK                            x       y       z     vdW  Elec       q    Type
REMARK                         _______ _______ _______ _____ _____    ______ ____
ROOT
ATOM      1  C   UNL     1      -0.161  11.308  21.757  0.00  0.00    +0.000 A 
ATOM      2  C   UNL     1      -0.367  10.095  22.423  0.00  0.00    +0.000 A 
ATOM      3  C   UNL     1       0.174   8.916  21.918  0.00  0.00    +0.000 A 
ATOM      4  C   UNL     1       1.034   8.930  20.815  0.00  0.00    +0.000 A 
ATOM      5  C   UNL     1       1.398  10.189  20.306  0.00  0.00    +0.000 A 
ATOM      6  C   UNL     1       0.793  11.385  20.726  0.00  0.00    +0.000 A 
ENDROOT
BRANCH   4   7
ATOM      7  C   UNL     1       1.540   7.684  20.200  0.00  0.00    +0.000 A 
ATOM      8  C   UNL     1       2.174   7.701  18.955  0.00  0.00    +0.000 A 
ATOM      9  C   UNL     1       2.642   6.531  18.361  0.00  0.00    +0.000 A 
ATOM     10  C   UNL     1       2.458   5.288  18.975  0.00  0.00    +0.000 A 
ATOM     11  C   UNL     1       1.867   5.237  20.249  0.00  0.00    +0.000 A 
ATOM     12  C   UNL     1       1.428   6.435  20.845  0.00  0.00    +0.000 A 
BRANCH  10  13
ATOM     13  O   UNL     1       2.851   4.112  18.379  0.00  0.00    +0.000 OA
ATOM     14  C   UNL     1       4.248   3.815  18.475  0.00  0.00    +0.000 C 
ENDBRANCH  10  13
BRANCH  11  15
ATOM     15  C   UNL     1       1.638   3.984  21.041  0.00  0.00    +0.000 C 
ATOM     16  O   UNL     1       2.248   3.729  22.067  0.00  0.00    +0.000 OA
BRANCH  15  17
ATOM     17  O   UNL     1       0.709   3.133  20.548  0.00  0.00    +0.000 OA
ATOM     18  H   UNL     1      -0.143   3.581  20.358  0.00  0.00    +0.000 HD
ENDBRANCH  15  17
ENDBRANCH  11  15
ENDBRANCH   4   7
BRANCH   6  19
ATOM     19  N   UNL     1       1.154  12.637  20.128  0.00  0.00    +0.000 N 
ATOM     20  C   UNL     1       2.221  13.419  20.567  0.00  0.00    +0.000 C 
ATOM     21  O   UNL     1       3.020  13.037  21.412  0.00  0.00    +0.000 OA
ATOM     22  N   UNL     1       2.283  14.667  19.958  0.00  0.00    +0.000 N 
ATOM     23  H   UNL     1       0.812  12.795  19.192  0.00  0.00    +0.000 HD
ATOM     24  H   UNL     1       1.445  14.992  19.498  0.00  0.00    +0.000 HD
BRANCH  22  25
ATOM     25  C   UNL     1       3.336  15.608  20.137  0.00  0.00    +0.000 A 
ATOM     26  C   UNL     1       4.603  15.473  19.559  0.00  0.00    +0.000 A 
ATOM     27  C   UNL     1       5.601  16.436  19.736  0.00  0.00    +0.000 A 
ATOM     28  C   UNL     1       5.360  17.578  20.499  0.00  0.00    +0.000 A 
ATOM     29  C   UNL     1       6.420  18.629  20.650  0.00  0.00    +0.000 C 
ATOM     30  C   UNL     1       4.100  17.726  21.091  0.00  0.00    +0.000 A 
ATOM     31  C   UNL     1       3.098  16.755  20.914  0.00  0.00    +0.000 A 
ENDBRANCH  22  25
ENDBRANCH   6  19
BRANCH   1  32
ATOM     32  O   UNL     1      -0.893  12.431  22.075  0.00  0.00    +0.000 OA
BRANCH  32  38
ATOM     33  C   UNL     1      -3.365  12.564  22.518  0.00  0.00    +0.000 A 
ATOM     34  C   UNL     1      -4.639  12.547  21.928  0.00  0.00    +0.000 A 
ATOM     35  C   UNL     1      -4.790  12.517  20.542  0.00  0.00    +0.000 A 
ATOM     36  C   UNL     1      -3.668  12.513  19.722  0.00  0.00    +0.000 A 
ATOM     37  C   UNL     1      -2.394  12.515  20.291  0.00  0.00    +0.000 A 
ATOM     38  C   UNL     1      -2.223  12.530  21.683  0.00  0.00    +0.000 A 
BRANCH  33  40
ATOM     39  C   UNL     1      -4.412  12.676  24.651  0.00  0.00    +0.000 C 
ATOM     40  O   UNL     1      -3.210  12.571  23.883  0.00  0.00    +0.000 OA
ENDBRANCH  33  40
ENDBRANCH  32  38
ENDBRANCH   1  32
TORSDOF 9
ENDMDL
MODEL 9
REMARK VINA RESULT:      -7.5      3.245      9.534
REMARK  Name = 
REMARK  12 active torsions:
REMARK  status: ('A' for Active; 'I' for Inactive)
REMARK    1  A    between atoms: C_1  and  O_2
REMARK    2  A    between atoms: O_2  and  C_3
REMARK    3  A    between atoms: C_8  and  O_9
REMARK    4  A    between atoms: O_9  and  C_10
REMARK    5  A    between atoms: C_13  and  C_14
REMARK    6  A    between atoms: C_17  and  O_18
REMARK    7  A    between atoms: O_18  and  C_19
REMARK    8  A    between atoms: C_20  and  C_21
REMARK    9  A    between atoms: C_21  and  O_23
REMARK   10  A    between atoms: C_26  and  N_27
REMARK   11  A    between atoms: N_30  and  C_31
REMARK   12  A    between atoms: C_34  and  C_35
REMARK                            x       y       z     vdW  Elec       q    Type
REMARK                         _______ _______ _______ _____ _____    ______ ____
ROOT
ATOM      1  C   UNL     1      -0.404  11.474  18.897  0.00  0.00    +0.000 A 
ATOM      2  C   UNL     1      -0.751  12.738  19.386  0.00  0.00    +0.000 A 
ATOM      3  C   UNL     1       0.237  13.623  19.809  0.00  0.00    +0.000 A 
ATOM      4  C   UNL     1       1.593  13.325  19.639  0.00  0.00    +0.000 A 
ATOM      5  C   UNL     1       1.906  12.146  18.942  0.00  0.00    +0.000 A 
ATOM      6  C   UNL     1       0.940  11.187  18.594  0.00  0.00    +0.000 A 
ENDROOT
BRANCH   4   7
ATOM      7  C   UNL     1       2.660  14.202  20.170  0.00  0.00    +0.000 A 
ATOM      8  C   UNL     1       2.725  14.514  21.531  0.00  0.00    +0.000 A 
ATOM      9  C   UNL     1       3.717  15.350  22.039  0.00  0.00    +0.000 A 
ATOM     10  C   UNL     1       4.664  15.939  21.195  0.00  0.00    +0.000 A 
ATOM     11  C   UNL     1       4.658  15.611  19.829  0.00  0.00    +0.000 A 
ATOM     12  C   UNL     1       3.664  14.741  19.341  0.00  0.00    +0.000 A 
BRANCH  10  13
ATOM     13  O   UNL     1       5.612  16.819  21.662  0.00  0.00    +0.000 OA
ATOM     14  C   UNL     1       6.678  16.229  22.413  0.00  0.00    +0.000 C 
ENDBRANCH  10  13
BRANCH  11  15
ATOM     15  C   UNL     1       5.630  16.137  18.814  0.00  0.00    +0.000 C 
ATOM     16  O   UNL     1       6.273  15.409  18.074  0.00  0.00    +0.000 OA
BRANCH  15  17
ATOM     17  O   UNL     1       5.766  17.481  18.765  0.00  0.00    +0.000 OA
ATOM     18  H   UNL     1       6.303  17.828  19.510  0.00  0.00    +0.000 HD
ENDBRANCH  15  17
ENDBRANCH  11  15
ENDBRANCH   4   7
BRANCH   6  19
ATOM     19  N   UNL     1       1.319   9.968  17.941  0.00  0.00    +0.000 N 
ATOM     20  C   UNL     1       1.708   8.819  18.627  0.00  0.00    +0.000 C 
ATOM     21  O   UNL     1       1.628   8.713  19.843  0.00  0.00    +0.000 OA
ATOM     22  N   UNL     1       2.195   7.816  17.798  0.00  0.00    +0.000 N 
ATOM     23  H   UNL     1       1.007   9.862  16.987  0.00  0.00    +0.000 HD
ATOM     24  H   UNL     1       2.479   8.090  16.869  0.00  0.00    +0.000 HD
BRANCH  22  25
ATOM     25  C   UNL     1       2.545   6.504  18.226  0.00  0.00    +0.000 A 
ATOM     26  C   UNL     1       3.693   6.214  18.973  0.00  0.00    +0.000 A 
ATOM     27  C   UNL     1       3.986   4.914  19.399  0.00  0.00    +0.000 A 
ATOM     28  C   UNL     1       3.131   3.856  19.096  0.00  0.00    +0.000 A 
ATOM     29  C   UNL     1       3.428   2.473  19.593  0.00  0.00    +0.000 C 
ATOM     30  C   UNL     1       1.982   4.128  18.344  0.00  0.00    +0.000 A 
ATOM     31  C   UNL     1       1.690   5.434  17.913  0.00  0.00    +0.000 A 
ENDBRANCH  22  25
ENDBRANCH   6  19
BRANCH   1  32
ATOM     32  O   UNL     1      -1.352  10.489  18.724  0.00  0.00    +0.000 OA
BRANCH  32  38
ATOM     33  C   UNL     1      -3.598  11.212  17.854  0.00  0.00    +0.000 A 
ATOM     34  C   UNL     1      -4.485  11.142  16.768  0.00  0.00    +0.000 A 
ATOM     35  C   UNL     1      -4.116  10.516  15.577  0.00  0.00    +0.000 A 
ATOM     36  C   UNL     1      -2.850   9.959  15.450  0.00  0.00    +0.000 A 
ATOM     37  C   UNL     1      -1.960  10.007  16.524  0.00  0.00    +0.000 A 
ATOM     38  C   UNL     1      -2.320  10.619  17.734  0.00  0.00    +0.000 A 
BRANCH  33  40
ATOM     39  C   UNL     1      -5.242  12.451  19.048  0.00  0.00    +0.000 C 
ATOM     40  O   UNL     1      -3.964  11.808  19.037  0.00  0.00    +0.000 OA
ENDBRANCH  33  40
ENDBRANCH  32  38
ENDBRANCH   1  32
TORSDOF 9
ENDMDL
