MODEL 1
REMARK VINA RESULT:      -8.5      0.000      0.000
REMARK  Name = 
REMARK  5 active torsions:
REMARK  status: ('A' for Active; 'I' for Inactive)
REMARK    1  A    between atoms: N_1  and  CA_2
REMARK    2  A    between atoms: CA_2  and  C_3
REMARK    3  A    between atoms: CA_2  and  C_23
REMARK    4  A    between atoms: C_3  and  C_4
REMARK    5  A    between atoms: C_23  and  OXT_25
REMARK                            x       y       z     vdW  Elec       q    Type
REMARK                         _______ _______ _______ _____ _____    ______ ____
ROOT
ATOM      1  C   UNL     1       4.380   5.171  18.418  0.00  0.00    +0.000 A 
ATOM      2  C   UNL     1       4.531   5.791  17.170  0.00  0.00    +0.000 A 
ATOM      3  C   UNL     1       3.898   7.005  16.899  0.00  0.00    +0.000 A 
ATOM      4  C   UNL     1       3.099   7.604  17.875  0.00  0.00    +0.000 A 
ATOM      5  O   UNL     1       2.489   8.792  17.551  0.00  0.00    +0.000 OA
ATOM      6  C   UNL     1       1.681   9.369  18.521  0.00  0.00    +0.000 A 
ATOM      7  C   UNL     1       1.046  10.518  18.260  0.00  0.00    +0.000 A 
ATOM      8  C   UNL     1       0.180  11.180  19.247  0.00  0.00    +0.000 A 
ATOM      9  O   UNL     1      -0.384  12.229  18.964  0.00  0.00    +0.000 OA
ATOM     10  C   UNL     1       0.024  10.545  20.568  0.00  0.00    +0.000 A 
ATOM     11  C   UNL     1      -0.786  11.157  21.535  0.00  0.00    +0.000 A 
ATOM     12  C   UNL     1      -0.939  10.570  22.792  0.00  0.00    +0.000 A 
ATOM     13  C   UNL     1      -0.286   9.375  23.085  0.00  0.00    +0.000 A 
ATOM     14  C   UNL     1       0.521   8.764  22.123  0.00  0.00    +0.000 A 
ATOM     15  C   UNL     1       0.678   9.348  20.858  0.00  0.00    +0.000 A 
ATOM     16  C   UNL     1       1.538   8.692  19.845  0.00  0.00    +0.000 A 
ATOM     17  N   UNL     1       2.132   7.571  20.130  0.00  0.00    +0.000 NA
ATOM     18  C   UNL     1       2.930   7.002  19.127  0.00  0.00    +0.000 A 
ATOM     19  C   UNL     1       3.575   5.789  19.388  0.00  0.00    +0.000 A 
ENDROOT
BRANCH   1  20
ATOM     20  C   UNL     1       5.069   3.857  18.719  0.00  0.00    +0.000 C 
BRANCH  20  21
ATOM     21  CA  UNL     1       4.162   2.816  19.397  0.00  0.00    +0.000 C 
BRANCH  21  22
ATOM     22  N   UNL     1       4.871   1.937  20.378  0.00  0.00    +0.000 NA
ATOM     23  H1  UNL     1       5.134   2.524  21.177  0.00  0.00    +0.000 HD
ATOM     24  H2  UNL     1       5.769   1.659  19.967  0.00  0.00    +0.000 HD
ENDBRANCH  21  22
BRANCH  21  25
ATOM     25  C   UNL     1       3.517   1.904  18.338  0.00  0.00    +0.000 C 
ATOM     26  O   UNL     1       2.603   2.210  17.591  0.00  0.00    +0.000 OA
BRANCH  25  27
ATOM     27  OXT UNL     1       4.091   0.669  18.345  0.00  0.00    +0.000 OA
ATOM     28  HXT UNL     1       3.397   0.037  18.033  0.00  0.00    +0.000 HD
ENDBRANCH  25  27
ENDBRANCH  21  25
ENDBRANCH  20  21
ENDBRANCH   1  20
TORSDOF 5
ENDMDL
MODEL 2
REMARK VINA RESULT:      -8.4      1.647      1.826
REMARK  Name = 
REMARK  5 active torsions:
REMARK  status: ('A' for Active; 'I' for Inactive)
REMARK    1  A    between atoms: N_1  and  CA_2
REMARK    2  A    between atoms: CA_2  and  C_3
REMARK    3  A    between atoms: CA_2  and  C_23
REMARK    4  A    between atoms: C_3  and  C_4
REMARK    5  A    between atoms: C_23  and  OXT_25
REMARK                            x       y       z     vdW  Elec       q    Type
REMARK                         _______ _______ _______ _____ _____    ______ ____
ROOT
ATOM      1  C   UNL     1       3.417   4.589  19.217  0.00  0.00    +0.000 A 
ATOM      2  C   UNL     1       3.780   5.058  17.947  0.00  0.00    +0.000 A 
ATOM      3  C   UNL     1       3.434   6.347  17.541  0.00  0.00    +0.000 A 
ATOM      4  C   UNL     1       2.711   7.176  18.400  0.00  0.00    +0.000 A 
ATOM      5  O   UNL     1       2.386   8.431  17.944  0.00  0.00    +0.000 OA
ATOM      6  C   UNL     1       1.649   9.240  18.799  0.00  0.00    +0.000 A 
ATOM      7  C   UNL     1       1.288  10.466  18.405  0.00  0.00    +0.000 A 
ATOM      8  C   UNL     1       0.511  11.371  19.266  0.00  0.00    +0.000 A 
ATOM      9  O   UNL     1       0.199  12.484  18.864  0.00  0.00    +0.000 OA
ATOM     10  C   UNL     1       0.134  10.895  20.610  0.00  0.00    +0.000 A 
ATOM     11  C   UNL     1      -0.597  11.738  21.458  0.00  0.00    +0.000 A 
ATOM     12  C   UNL     1      -0.957  11.303  22.735  0.00  0.00    +0.000 A 
ATOM     13  C   UNL     1      -0.589  10.030  23.165  0.00  0.00    +0.000 A 
ATOM     14  C   UNL     1       0.138   9.189  22.320  0.00  0.00    +0.000 A 
ATOM     15  C   UNL     1       0.502   9.620  21.036  0.00  0.00    +0.000 A 
ATOM     16  C   UNL     1       1.276   8.719  20.149  0.00  0.00    +0.000 A 
ATOM     17  N   UNL     1       1.602   7.531  20.560  0.00  0.00    +0.000 NA
ATOM     18  C   UNL     1       2.333   6.728  19.672  0.00  0.00    +0.000 A 
ATOM     19  C   UNL     1       2.691   5.437  20.070  0.00  0.00    +0.000 A 
ENDROOT
BRANCH   1  20
ATOM     20  C   UNL     1       3.794   3.194  19.667  0.00  0.00    +0.000 C 
BRANCH  20  21
ATOM     21  CA  UNL     1       2.613   2.209  19.708  0.00  0.00    +0.000 C 
BRANCH  21  22
ATOM     22  N   UNL     1       1.809   2.168  18.446  0.00  0.00    +0.000 NA
ATOM     23  H1  UNL     1       1.844   3.106  18.034  0.00  0.00    +0.000 HD
ATOM     24  H2  UNL     1       0.823   2.044  18.700  0.00  0.00    +0.000 HD
ENDBRANCH  21  22
BRANCH  21  25
ATOM     25  C   UNL     1       1.654   2.577  20.855  0.00  0.00    +0.000 C 
ATOM     26  O   UNL     1       1.924   2.563  22.045  0.00  0.00    +0.000 OA
BRANCH  25  27
ATOM     27  OXT UNL     1       0.426   2.912  20.375  0.00  0.00    +0.000 OA
ATOM     28  HXT UNL     1      -0.221   2.712  21.096  0.00  0.00    +0.000 HD
ENDBRANCH  25  27
ENDBRANCH  21  25
ENDBRANCH  20  21
ENDBRANCH   1  20
TORSDOF 5
ENDMDL
MODEL 3
REMARK VINA RESULT:      -8.1      1.051      1.245
REMARK  Name = 
REMARK  5 active torsions:
REMARK  status: ('A' for Active; 'I' for Inactive)
REMARK    1  A    between atoms: N_1  and  CA_2
REMARK    2  A    between atoms: CA_2  and  C_3
REMARK    3  A    between atoms: CA_2  and  C_23
REMARK    4  A    between atoms: C_3  and  C_4
REMARK    5  A    between atoms: C_23  and  OXT_25
REMARK                            x       y       z     vdW  Elec       q    Type
REMARK                         _______ _______ _______ _____ _____    ______ ____
ROOT
ATOM      1  C   UNL     1       3.895   4.402  19.207  0.00  0.00    +0.000 A 
ATOM      2  C   UNL     1       4.159   4.824  17.897  0.00  0.00    +0.000 A 
ATOM      3  C   UNL     1       3.691   6.058  17.441  0.00  0.00    +0.000 A 
ATOM      4  C   UNL     1       2.946   6.875  18.291  0.00  0.00    +0.000 A 
ATOM      5  O   UNL     1       2.499   8.073  17.787  0.00  0.00    +0.000 OA
ATOM      6  C   UNL     1       1.741   8.869  18.634  0.00  0.00    +0.000 A 
ATOM      7  C   UNL     1       1.263  10.039  18.195  0.00  0.00    +0.000 A 
ATOM      8  C   UNL     1       0.458  10.928  19.046  0.00  0.00    +0.000 A 
ATOM      9  O   UNL     1       0.038  11.990  18.602  0.00  0.00    +0.000 OA
ATOM     10  C   UNL     1       0.184  10.502  20.431  0.00  0.00    +0.000 A 
ATOM     11  C   UNL     1      -0.572  11.332  21.270  0.00  0.00    +0.000 A 
ATOM     12  C   UNL     1      -0.835  10.944  22.585  0.00  0.00    +0.000 A 
ATOM     13  C   UNL     1      -0.346   9.730  23.062  0.00  0.00    +0.000 A 
ATOM     14  C   UNL     1       0.406   8.901  22.226  0.00  0.00    +0.000 A 
ATOM     15  C   UNL     1       0.673   9.285  20.905  0.00  0.00    +0.000 A 
ATOM     16  C   UNL     1       1.475   8.399  20.028  0.00  0.00    +0.000 A 
ATOM     17  N   UNL     1       1.914   7.265  20.484  0.00  0.00    +0.000 NA
ATOM     18  C   UNL     1       2.665   6.473  19.602  0.00  0.00    +0.000 A 
ATOM     19  C   UNL     1       3.144   5.238  20.050  0.00  0.00    +0.000 A 
ENDROOT
BRANCH   1  20
ATOM     20  C   UNL     1       4.404   3.068  19.710  0.00  0.00    +0.000 C 
BRANCH  20  21
ATOM     21  CA  UNL     1       3.690   1.853  19.093  0.00  0.00    +0.000 C 
BRANCH  21  22
ATOM     22  N   UNL     1       4.079   1.572  17.676  0.00  0.00    +0.000 NA
ATOM     23  H1  UNL     1       4.827   0.871  17.700  0.00  0.00    +0.000 HD
ATOM     24  H2  UNL     1       4.535   2.410  17.298  0.00  0.00    +0.000 HD
ENDBRANCH  21  22
BRANCH  21  25
ATOM     25  C   UNL     1       2.165   2.062  19.123  0.00  0.00    +0.000 C 
ATOM     26  O   UNL     1       1.481   2.200  20.123  0.00  0.00    +0.000 OA
BRANCH  25  27
ATOM     27  OXT UNL     1       1.648   2.055  17.863  0.00  0.00    +0.000 OA
ATOM     28  HXT UNL     1       1.019   2.817  17.815  0.00  0.00    +0.000 HD
ENDBRANCH  25  27
ENDBRANCH  21  25
ENDBRANCH  20  21
ENDBRANCH   1  20
TORSDOF 5
ENDMDL
MODEL 4
REMARK VINA RESULT:      -8.1      2.541      3.593
REMARK  Name = 
REMARK  5 active torsions:
REMARK  status: ('A' for Active; 'I' for Inactive)
REMARK    1  A    between atoms: N_1  and  CA_2
REMARK    2  A    between atoms: CA_2  and  C_3
REMARK    3  A    between atoms: CA_2  and  C_23
REMARK    4  A    between atoms: C_3  and  C_4
REMARK    5  A    between atoms: C_23  and  OXT_25
REMARK                            x       y       z     vdW  Elec       q    Type
REMARK                         _______ _______ _______ _____ _____    ______ ____
ROOT
ATOM      1  C   UNL     1       3.538   5.477  18.122  0.00  0.00    +0.000 A 
ATOM      2  C   UNL     1       3.215   4.707  19.248  0.00  0.00    +0.000 A 
ATOM      3  C   UNL     1       2.443   5.245  20.279  0.00  0.00    +0.000 A 
ATOM      4  C   UNL     1       1.993   6.563  20.195  0.00  0.00    +0.000 A 
ATOM      5  O   UNL     1       1.247   7.046  21.243  0.00  0.00    +0.000 OA
ATOM      6  C   UNL     1       0.823   8.365  21.159  0.00  0.00    +0.000 A 
ATOM      7  C   UNL     1       0.108   8.897  22.156  0.00  0.00    +0.000 A 
ATOM      8  C   UNL     1      -0.374  10.286  22.123  0.00  0.00    +0.000 A 
ATOM      9  O   UNL     1      -1.024  10.734  23.059  0.00  0.00    +0.000 OA
ATOM     10  C   UNL     1      -0.054  11.103  20.938  0.00  0.00    +0.000 A 
ATOM     11  C   UNL     1      -0.508  12.428  20.872  0.00  0.00    +0.000 A 
ATOM     12  C   UNL     1      -0.217  13.212  19.755  0.00  0.00    +0.000 A 
ATOM     13  C   UNL     1       0.527  12.676  18.704  0.00  0.00    +0.000 A 
ATOM     14  C   UNL     1       0.980  11.357  18.770  0.00  0.00    +0.000 A 
ATOM     15  C   UNL     1       0.691  10.565  19.890  0.00  0.00    +0.000 A 
ATOM     16  C   UNL     1       1.176   9.166  19.947  0.00  0.00    +0.000 A 
ATOM     17  N   UNL     1       1.877   8.684  18.965  0.00  0.00    +0.000 NA
ATOM     18  C   UNL     1       2.306   7.354  19.082  0.00  0.00    +0.000 A 
ATOM     19  C   UNL     1       3.075   6.802  18.053  0.00  0.00    +0.000 A 
ENDROOT
BRANCH   1  20
ATOM     20  C   UNL     1       4.370   4.898  16.999  0.00  0.00    +0.000 C 
BRANCH  20  21
ATOM     21  CA  UNL     1       5.706   5.626  16.771  0.00  0.00    +0.000 C 
BRANCH  21  22
ATOM     22  N   UNL     1       5.904   6.113  15.370  0.00  0.00    +0.000 NA
ATOM     23  H1  UNL     1       6.910   6.266  15.241  0.00  0.00    +0.000 HD
ATOM     24  H2  UNL     1       5.499   7.052  15.298  0.00  0.00    +0.000 HD
ENDBRANCH  21  22
BRANCH  21  25
ATOM     25  C   UNL     1       6.883   4.693  17.108  0.00  0.00    +0.000 C 
ATOM     26  O   UNL     1       7.857   4.486  16.403  0.00  0.00    +0.000 OA
BRANCH  25  27
ATOM     27  OXT UNL     1       6.697   4.090  18.314  0.00  0.00    +0.000 OA
ATOM     28  HXT UNL     1       5.832   4.422  18.661  0.00  0.00    +0.000 HD
ENDBRANCH  25  27
ENDBRANCH  21  25
ENDBRANCH  20  21
ENDBRANCH   1  20
TORSDOF 5
ENDMDL
MODEL 5
REMARK VINA RESULT:      -8.0      2.199      8.361
REMARK  Name = 
REMARK  5 active torsions:
REMARK  status: ('A' for Active; 'I' for Inactive)
REMARK    1  A    between atoms: N_1  and  CA_2
REMARK    2  A    between atoms: CA_2  and  C_3
REMARK    3  A    between atoms: CA_2  and  C_23
REMARK    4  A    between atoms: C_3  and  C_4
REMARK    5  A    between atoms: C_23  and  OXT_25
REMARK                            x       y       z     vdW  Elec       q    Type
REMARK                         _______ _______ _______ _____ _____    ______ ____
ROOT
ATOM      1  C   UNL     1       0.472  10.382  19.809  0.00  0.00    +0.000 A 
ATOM      2  C   UNL     1       0.078   9.703  20.970  0.00  0.00    +0.000 A 
ATOM      3  C   UNL     1       0.561   8.422  21.243  0.00  0.00    +0.000 A 
ATOM      4  C   UNL     1       1.438   7.806  20.349  0.00  0.00    +0.000 A 
ATOM      5  O   UNL     1       1.873   6.541  20.660  0.00  0.00    +0.000 OA
ATOM      6  C   UNL     1       2.729   5.929  19.755  0.00  0.00    +0.000 A 
ATOM      7  C   UNL     1       3.174   4.690  19.994  0.00  0.00    +0.000 A 
ATOM      8  C   UNL     1       4.085   3.991  19.076  0.00  0.00    +0.000 A 
ATOM      9  O   UNL     1       4.465   2.855  19.333  0.00  0.00    +0.000 OA
ATOM     10  C   UNL     1       4.519   4.699  17.857  0.00  0.00    +0.000 A 
ATOM     11  C   UNL     1       5.396   4.063  16.967  0.00  0.00    +0.000 A 
ATOM     12  C   UNL     1       5.819   4.723  15.813  0.00  0.00    +0.000 A 
ATOM     13  C   UNL     1       5.369   6.014  15.545  0.00  0.00    +0.000 A 
ATOM     14  C   UNL     1       4.495   6.648  16.431  0.00  0.00    +0.000 A 
ATOM     15  C   UNL     1       4.065   5.990  17.592  0.00  0.00    +0.000 A 
ATOM     16  C   UNL     1       3.139   6.673  18.526  0.00  0.00    +0.000 A 
ATOM     17  N   UNL     1       2.719   7.873  18.257  0.00  0.00    +0.000 NA
ATOM     18  C   UNL     1       1.844   8.463  19.181  0.00  0.00    +0.000 A 
ATOM     19  C   UNL     1       1.357   9.747  18.921  0.00  0.00    +0.000 A 
ENDROOT
BRANCH   1  20
ATOM     20  C   UNL     1      -0.044  11.773  19.510  0.00  0.00    +0.000 C 
BRANCH  20  21
ATOM     21  CA  UNL     1      -1.279  11.798  18.593  0.00  0.00    +0.000 C 
BRANCH  21  22
ATOM     22  N   UNL     1      -1.152  12.727  17.426  0.00  0.00    +0.000 NA
ATOM     23  H1  UNL     1      -0.155  12.787  17.193  0.00  0.00    +0.000 HD
ATOM     24  H2  UNL     1      -1.391  13.673  17.744  0.00  0.00    +0.000 HD
ENDBRANCH  21  22
BRANCH  21  25
ATOM     25  C   UNL     1      -2.524  12.225  19.391  0.00  0.00    +0.000 C 
ATOM     26  O   UNL     1      -2.559  12.471  20.585  0.00  0.00    +0.000 OA
BRANCH  25  27
ATOM     27  OXT UNL     1      -3.622  12.277  18.589  0.00  0.00    +0.000 OA
ATOM     28  HXT UNL     1      -3.687  11.395  18.146  0.00  0.00    +0.000 HD
ENDBRANCH  25  27
ENDBRANCH  21  25
ENDBRANCH  20  21
ENDBRANCH   1  20
TORSDOF 5
ENDMDL
MODEL 6
REMARK VINA RESULT:      -8.0      1.393      1.721
REMARK  Name = 
REMARK  5 active torsions:
REMARK  status: ('A' for Active; 'I' for Inactive)
REMARK    1  A    between atoms: N_1  and  CA_2
REMARK    2  A    between atoms: CA_2  and  C_3
REMARK    3  A    between atoms: CA_2  and  C_23
REMARK    4  A    between atoms: C_3  and  C_4
REMARK    5  A    between atoms: C_23  and  OXT_25
REMARK                            x       y       z     vdW  Elec       q    Type
REMARK                         _______ _______ _______ _____ _____    ______ ____
ROOT
ATOM      1  C   UNL     1       2.693   5.045  19.721  0.00  0.00    +0.000 A 
ATOM      2  C   UNL     1       3.222   5.470  18.495  0.00  0.00    +0.000 A 
ATOM      3  C   UNL     1       3.033   6.781  18.056  0.00  0.00    +0.000 A 
ATOM      4  C   UNL     1       2.303   7.677  18.838  0.00  0.00    +0.000 A 
ATOM      5  O   UNL     1       2.137   8.952  18.352  0.00  0.00    +0.000 OA
ATOM      6  C   UNL     1       1.392   9.829  19.129  0.00  0.00    +0.000 A 
ATOM      7  C   UNL     1       1.181  11.079  18.701  0.00  0.00    +0.000 A 
ATOM      8  C   UNL     1       0.405  12.056  19.480  0.00  0.00    +0.000 A 
ATOM      9  O   UNL     1       0.234  13.189  19.049  0.00  0.00    +0.000 OA
ATOM     10  C   UNL     1      -0.146  11.626  20.778  0.00  0.00    +0.000 A 
ATOM     11  C   UNL     1      -0.882  12.537  21.549  0.00  0.00    +0.000 A 
ATOM     12  C   UNL     1      -1.404  12.146  22.783  0.00  0.00    +0.000 A 
ATOM     13  C   UNL     1      -1.195  10.849  23.247  0.00  0.00    +0.000 A 
ATOM     14  C   UNL     1      -0.463   9.941  22.480  0.00  0.00    +0.000 A 
ATOM     15  C   UNL     1       0.064  10.327  21.239  0.00  0.00    +0.000 A 
ATOM     16  C   UNL     1       0.841   9.355  20.434  0.00  0.00    +0.000 A 
ATOM     17  N   UNL     1       1.018   8.146  20.876  0.00  0.00    +0.000 NA
ATOM     18  C   UNL     1       1.761   7.275  20.065  0.00  0.00    +0.000 A 
ATOM     19  C   UNL     1       1.963   5.961  20.497  0.00  0.00    +0.000 A 
ENDROOT
BRANCH   1  20
ATOM     20  C   UNL     1       2.899   3.626  20.206  0.00  0.00    +0.000 C 
BRANCH  20  21
ATOM     21  CA  UNL     1       3.163   2.613  19.079  0.00  0.00    +0.000 C 
BRANCH  21  22
ATOM     22  N   UNL     1       1.980   1.765  18.733  0.00  0.00    +0.000 NA
ATOM     23  H1  UNL     1       1.527   1.501  19.615  0.00  0.00    +0.000 HD
ATOM     24  H2  UNL     1       2.324   0.875  18.356  0.00  0.00    +0.000 HD
ENDBRANCH  21  22
BRANCH  21  25
ATOM     25  C   UNL     1       4.311   1.666  19.475  0.00  0.00    +0.000 C 
ATOM     26  O   UNL     1       5.057   1.807  20.429  0.00  0.00    +0.000 OA
BRANCH  25  27
ATOM     27  OXT UNL     1       4.414   0.632  18.596  0.00  0.00    +0.000 OA
ATOM     28  HXT UNL     1       5.063  -0.004  18.987  0.00  0.00    +0.000 HD
ENDBRANCH  25  27
ENDBRANCH  21  25
ENDBRANCH  20  21
ENDBRANCH   1  20
TORSDOF 5
ENDMDL
MODEL 7
REMARK VINA RESULT:      -8.0      2.603      3.697
REMARK  Name = 
REMARK  5 active torsions:
REMARK  status: ('A' for Active; 'I' for Inactive)
REMARK    1  A    between atoms: N_1  and  CA_2
REMARK    2  A    between atoms: CA_2  and  C_3
REMARK    3  A    between atoms: CA_2  and  C_23
REMARK    4  A    between atoms: C_3  and  C_4
REMARK    5  A    between atoms: C_23  and  OXT_25
REMARK                            x       y       z     vdW  Elec       q    Type
REMARK                         _______ _______ _______ _____ _____    ______ ____
ROOT
ATOM      1  C   UNL     1       3.905   6.552  17.599  0.00  0.00    +0.000 A 
ATOM      2  C   UNL     1       3.814   5.678  18.691  0.00  0.00    +0.000 A 
ATOM      3  C   UNL     1       3.012   5.993  19.788  0.00  0.00    +0.000 A 
ATOM      4  C   UNL     1       2.300   7.194  19.806  0.00  0.00    +0.000 A 
ATOM      5  O   UNL     1       1.536   7.460  20.917  0.00  0.00    +0.000 OA
ATOM      6  C   UNL     1       0.848   8.666  20.933  0.00  0.00    +0.000 A 
ATOM      7  C   UNL     1       0.101   8.990  21.994  0.00  0.00    +0.000 A 
ATOM      8  C   UNL     1      -0.654  10.250  22.069  0.00  0.00    +0.000 A 
ATOM      9  O   UNL     1      -1.323  10.507  23.061  0.00  0.00    +0.000 OA
ATOM     10  C   UNL     1      -0.578  11.173  20.922  0.00  0.00    +0.000 A 
ATOM     11  C   UNL     1      -1.294  12.377  20.958  0.00  0.00    +0.000 A 
ATOM     12  C   UNL     1      -1.235  13.258  19.878  0.00  0.00    +0.000 A 
ATOM     13  C   UNL     1      -0.463  12.940  18.762  0.00  0.00    +0.000 A 
ATOM     14  C   UNL     1       0.252  11.741  18.725  0.00  0.00    +0.000 A 
ATOM     15  C   UNL     1       0.197  10.852  19.808  0.00  0.00    +0.000 A 
ATOM     16  C   UNL     1       0.958   9.581  19.757  0.00  0.00    +0.000 A 
ATOM     17  N   UNL     1       1.683   9.303  18.714  0.00  0.00    +0.000 NA
ATOM     18  C   UNL     1       2.378   8.085  18.729  0.00  0.00    +0.000 A 
ATOM     19  C   UNL     1       3.181   7.755  17.633  0.00  0.00    +0.000 A 
ENDROOT
BRANCH   1  20
ATOM     20  C   UNL     1       4.769   6.213  16.403  0.00  0.00    +0.000 C 
BRANCH  20  21
ATOM     21  CA  UNL     1       6.223   5.860  16.762  0.00  0.00    +0.000 C 
BRANCH  21  22
ATOM     22  N   UNL     1       7.129   7.045  16.868  0.00  0.00    +0.000 NA
ATOM     23  H1  UNL     1       7.889   6.790  17.509  0.00  0.00    +0.000 HD
ATOM     24  H2  UNL     1       6.626   7.788  17.364  0.00  0.00    +0.000 HD
ENDBRANCH  21  22
BRANCH  21  25
ATOM     25  C   UNL     1       6.816   4.916  15.700  0.00  0.00    +0.000 C 
ATOM     26  O   UNL     1       7.567   5.239  14.795  0.00  0.00    +0.000 OA
BRANCH  25  27
ATOM     27  OXT UNL     1       6.378   3.640  15.883  0.00  0.00    +0.000 OA
ATOM     28  HXT UNL     1       5.402   3.699  16.034  0.00  0.00    +0.000 HD
ENDBRANCH  25  27
ENDBRANCH  21  25
ENDBRANCH  20  21
ENDBRANCH   1  20
TORSDOF 5
ENDMDL
MODEL 8
REMARK VINA RESULT:      -7.9      1.163      1.210
REMARK  Name = 
REMARK  5 active torsions:
REMARK  status: ('A' for Active; 'I' for Inactive)
REMARK    1  A    between atoms: N_1  and  CA_2
REMARK    2  A    between atoms: CA_2  and  C_3
REMARK    3  A    between atoms: CA_2  and  C_23
REMARK    4  A    between atoms: C_3  and  C_4
REMARK    5  A    between atoms: C_23  and  OXT_25
REMARK                            x       y       z     vdW  Elec       q    Type
REMARK                         _______ _______ _______ _____ _____    ______ ____
ROOT
ATOM      1  C   UNL     1       3.617   4.932  18.340  0.00  0.00    +0.000 A 
ATOM      2  C   UNL     1       3.983   5.632  17.182  0.00  0.00    +0.000 A 
ATOM      3  C   UNL     1       3.627   6.972  17.019  0.00  0.00    +0.000 A 
ATOM      4  C   UNL     1       2.891   7.620  18.013  0.00  0.00    +0.000 A 
ATOM      5  O   UNL     1       2.556   8.935  17.796  0.00  0.00    +0.000 OA
ATOM      6  C   UNL     1       1.807   9.564  18.781  0.00  0.00    +0.000 A 
ATOM      7  C   UNL     1       1.436  10.839  18.620  0.00  0.00    +0.000 A 
ATOM      8  C   UNL     1       0.646  11.561  19.629  0.00  0.00    +0.000 A 
ATOM      9  O   UNL     1       0.325  12.727  19.439  0.00  0.00    +0.000 OA
ATOM     10  C   UNL     1       0.266  10.841  20.858  0.00  0.00    +0.000 A 
ATOM     11  C   UNL     1      -0.478  11.504  21.843  0.00  0.00    +0.000 A 
ATOM     12  C   UNL     1      -0.841  10.837  23.014  0.00  0.00    +0.000 A 
ATOM     13  C   UNL     1      -0.463   9.509  23.202  0.00  0.00    +0.000 A 
ATOM     14  C   UNL     1       0.277   8.846  22.220  0.00  0.00    +0.000 A 
ATOM     15  C   UNL     1       0.644   9.511  21.042  0.00  0.00    +0.000 A 
ATOM     16  C   UNL     1       1.431   8.799  20.008  0.00  0.00    +0.000 A 
ATOM     17  N   UNL     1       1.767   7.557  20.193  0.00  0.00    +0.000 NA
ATOM     18  C   UNL     1       2.510   6.940  19.176  0.00  0.00    +0.000 A 
ATOM     19  C   UNL     1       2.879   5.601  19.330  0.00  0.00    +0.000 A 
ENDROOT
BRANCH   1  20
ATOM     20  C   UNL     1       4.006   3.481  18.524  0.00  0.00    +0.000 C 
BRANCH  20  21
ATOM     21  CA  UNL     1       4.149   3.054  19.996  0.00  0.00    +0.000 C 
BRANCH  21  22
ATOM     22  N   UNL     1       5.120   1.937  20.214  0.00  0.00    +0.000 NA
ATOM     23  H1  UNL     1       5.002   1.617  21.181  0.00  0.00    +0.000 HD
ATOM     24  H2  UNL     1       6.068   2.330  20.197  0.00  0.00    +0.000 HD
ENDBRANCH  21  22
BRANCH  21  25
ATOM     25  C   UNL     1       2.788   2.600  20.552  0.00  0.00    +0.000 C 
ATOM     26  O   UNL     1       1.800   2.326  19.890  0.00  0.00    +0.000 OA
BRANCH  25  27
ATOM     27  OXT UNL     1       2.808   2.557  21.912  0.00  0.00    +0.000 OA
ATOM     28  HXT UNL     1       2.066   1.962  22.184  0.00  0.00    +0.000 HD
ENDBRANCH  25  27
ENDBRANCH  21  25
ENDBRANCH  20  21
ENDBRANCH   1  20
TORSDOF 5
ENDMDL
MODEL 9
REMARK VINA RESULT:      -7.8      2.678      8.217
REMARK  Name = 
REMARK  5 active torsions:
REMARK  status: ('A' for Active; 'I' for Inactive)
REMARK    1  A    between atoms: N_1  and  CA_2
REMARK    2  A    between atoms: CA_2  and  C_3
REMARK    3  A    between atoms: CA_2  and  C_23
REMARK    4  A    between atoms: C_3  and  C_4
REMARK    5  A    between atoms: C_23  and  OXT_25
REMARK                            x       y       z     vdW  Elec       q    Type
REMARK                         _______ _______ _______ _____ _____    ______ ____
ROOT
ATOM      1  C   UNL     1      -0.389  10.477  21.937  0.00  0.00    +0.000 A 
ATOM      2  C   UNL     1      -0.038  11.262  20.830  0.00  0.00    +0.000 A 
ATOM      3  C   UNL     1       0.722  10.725  19.791  0.00  0.00    +0.000 A 
ATOM      4  C   UNL     1       1.146   9.397  19.855  0.00  0.00    +0.000 A 
ATOM      5  O   UNL     1       1.902   8.922  18.810  0.00  0.00    +0.000 OA
ATOM      6  C   UNL     1       2.336   7.606  18.894  0.00  0.00    +0.000 A 
ATOM      7  C   UNL     1       3.090   7.092  17.916  0.00  0.00    +0.000 A 
ATOM      8  C   UNL     1       3.576   5.704  17.945  0.00  0.00    +0.000 A 
ATOM      9  O   UNL     1       4.266   5.276  17.029  0.00  0.00    +0.000 OA
ATOM     10  C   UNL     1       3.203   4.863  19.097  0.00  0.00    +0.000 A 
ATOM     11  C   UNL     1       3.642   3.533  19.148  0.00  0.00    +0.000 A 
ATOM     12  C   UNL     1       3.292   2.723  20.230  0.00  0.00    +0.000 A 
ATOM     13  C   UNL     1       2.506   3.238  21.259  0.00  0.00    +0.000 A 
ATOM     14  C   UNL     1       2.069   4.564  21.209  0.00  0.00    +0.000 A 
ATOM     15  C   UNL     1       2.418   5.383  20.125  0.00  0.00    +0.000 A 
ATOM     16  C   UNL     1       1.947   6.787  20.082  0.00  0.00    +0.000 A 
ATOM     17  N   UNL     1       1.224   7.257  21.054  0.00  0.00    +0.000 NA
ATOM     18  C   UNL     1       0.812   8.594  20.952  0.00  0.00    +0.000 A 
ATOM     19  C   UNL     1       0.045   9.141  21.984  0.00  0.00    +0.000 A 
ENDROOT
BRANCH   1  20
ATOM     20  C   UNL     1      -1.218  11.052  23.065  0.00  0.00    +0.000 C 
BRANCH  20  21
ATOM     21  CA  UNL     1      -1.845  12.420  22.746  0.00  0.00    +0.000 C 
BRANCH  21  22
ATOM     22  N   UNL     1      -1.152  13.575  23.398  0.00  0.00    +0.000 NA
ATOM     23  H1  UNL     1      -0.579  13.195  24.159  0.00  0.00    +0.000 HD
ATOM     24  H2  UNL     1      -1.859  14.142  23.878  0.00  0.00    +0.000 HD
ENDBRANCH  21  22
BRANCH  21  25
ATOM     25  C   UNL     1      -3.316  12.448  23.198  0.00  0.00    +0.000 C 
ATOM     26  O   UNL     1      -3.787  11.834  24.141  0.00  0.00    +0.000 OA
BRANCH  25  27
ATOM     27  OXT UNL     1      -4.060  13.248  22.385  0.00  0.00    +0.000 OA
ATOM     28  HXT UNL     1      -3.471  13.995  22.113  0.00  0.00    +0.000 HD
ENDBRANCH  25  27
ENDBRANCH  21  25
ENDBRANCH  20  21
ENDBRANCH   1  20
TORSDOF 5
ENDMDL
