MODEL 1
REMARK VINA RESULT:      -8.1      0.000      0.000
REMARK  Name = 
REMARK  10 active torsions:
REMARK  status: ('A' for Active; 'I' for Inactive)
REMARK    1  A    between atoms: C_1  and  O_2
REMARK    2  A    between atoms: O_2  and  N_3
REMARK    3  A    between atoms: C_4  and  C_5
REMARK    4  A    between atoms: C_4  and  C_9
REMARK    5  A    between atoms: C_5  and  O_7
REMARK    6  A    between atoms: O_7  and  C_8
REMARK    7  A    between atoms: C_14  and  C_15
REMARK    8  A    between atoms: C_16  and  C_17
REMARK    9  A    between atoms: C_18  and  C_19
REMARK   10  A    between atoms: C_24  and  C_25
REMARK                            x       y       z     vdW  Elec       q    Type
REMARK                         _______ _______ _______ _____ _____    ______ ____
ROOT
ATOM      1  C   UNL     1       3.926   4.284  17.732  0.00  0.00    +0.000 A 
ATOM      2  C   UNL     1       4.035   2.883  17.725  0.00  0.00    +0.000 A 
ATOM      3  C   UNL     1       2.907   2.078  17.916  0.00  0.00    +0.000 A 
ATOM      4  C   UNL     1       1.662   2.659  18.135  0.00  0.00    +0.000 A 
ATOM      5  C   UNL     1       1.541   4.048  18.157  0.00  0.00    +0.000 A 
ATOM      6  C   UNL     1       2.661   4.866  17.950  0.00  0.00    +0.000 A 
ENDROOT
BRANCH   1   8
ATOM      7  N   UNL     1       5.825   5.526  18.571  0.00  0.00    +0.000 NA
ATOM      8  C   UNL     1       5.158   5.119  17.528  0.00  0.00    +0.000 C 
BRANCH   7  10
ATOM      9  C   UNL     1       7.991   5.987  19.131  0.00  0.00    +0.000 C 
ATOM     10  O   UNL     1       6.928   6.318  18.242  0.00  0.00    +0.000 OA
ENDBRANCH   7  10
BRANCH   8  11
ATOM     11  C   UNL     1       5.596   5.439  16.089  0.00  0.00    +0.000 C 
ATOM     12  O   UNL     1       5.271   6.448  15.490  0.00  0.00    +0.000 OA
BRANCH  11  13
ATOM     13  O   UNL     1       6.445   4.483  15.643  0.00  0.00    +0.000 OA
ATOM     14  C   UNL     1       6.143   3.966  14.344  0.00  0.00    +0.000 C 
ENDBRANCH  11  13
ENDBRANCH   8  11
ENDBRANCH   1   8
BRANCH   6  15
ATOM     15  C   UNL     1       2.440   6.282  17.957  0.00  0.00    +0.000 C 
ATOM     16  C   UNL     1       2.230   7.464  18.005  0.00  0.00    +0.000 C 
BRANCH  16  17
ATOM     17  C   UNL     1       1.932   8.955  18.122  0.00  0.00    +0.000 C 
ATOM     18  C   UNL     1       1.700  10.123  18.277  0.00  0.00    +0.000 C 
BRANCH  18  19
ATOM     19  C   UNL     1       1.392  11.504  18.488  0.00  0.00    +0.000 A 
ATOM     20  C   UNL     1       2.415  12.439  18.264  0.00  0.00    +0.000 A 
ATOM     21  C   UNL     1       2.173  13.803  18.405  0.00  0.00    +0.000 A 
ATOM     22  C   UNL     1       0.911  14.246  18.779  0.00  0.00    +0.000 A 
ATOM     23  C   UNL     1      -0.105  13.322  19.023  0.00  0.00    +0.000 A 
ATOM     24  C   UNL     1       0.118  11.936  18.890  0.00  0.00    +0.000 A 
BRANCH  24  25
ATOM     25  C   UNL     1      -1.036  11.010  19.194  0.00  0.00    +0.000 C 
ATOM     26  F   UNL     1      -1.440  10.196  18.184  0.00  0.00    +0.000 F 
ATOM     27  F   UNL     1      -0.753  10.175  20.239  0.00  0.00    +0.000 F 
ATOM     28  F   UNL     1      -2.152  11.696  19.576  0.00  0.00    +0.000 F 
ENDBRANCH  24  25
ENDBRANCH  18  19
ENDBRANCH  16  17
ENDBRANCH   6  15
TORSDOF 8
ENDMDL
MODEL 2
REMARK VINA RESULT:      -7.9      4.470      8.480
REMARK  Name = 
REMARK  10 active torsions:
REMARK  status: ('A' for Active; 'I' for Inactive)
REMARK    1  A    between atoms: C_1  and  O_2
REMARK    2  A    between atoms: O_2  and  N_3
REMARK    3  A    between atoms: C_4  and  C_5
REMARK    4  A    between atoms: C_4  and  C_9
REMARK    5  A    between atoms: C_5  and  O_7
REMARK    6  A    between atoms: O_7  and  C_8
REMARK    7  A    between atoms: C_14  and  C_15
REMARK    8  A    between atoms: C_16  and  C_17
REMARK    9  A    between atoms: C_18  and  C_19
REMARK   10  A    between atoms: C_24  and  C_25
REMARK                            x       y       z     vdW  Elec       q    Type
REMARK                         _______ _______ _______ _____ _____    ______ ____
ROOT
ATOM      1  C   UNL     1      -0.981  11.231  19.312  0.00  0.00    +0.000 A 
ATOM      2  C   UNL     1      -2.227  11.880  19.368  0.00  0.00    +0.000 A 
ATOM      3  C   UNL     1      -3.214  11.615  18.413  0.00  0.00    +0.000 A 
ATOM      4  C   UNL     1      -2.965  10.715  17.382  0.00  0.00    +0.000 A 
ATOM      5  C   UNL     1      -1.729  10.074  17.306  0.00  0.00    +0.000 A 
ATOM      6  C   UNL     1      -0.737  10.318  18.267  0.00  0.00    +0.000 A 
ENDROOT
BRANCH   1   8
ATOM      7  N   UNL     1       1.024  12.364  20.052  0.00  0.00    +0.000 NA
ATOM      8  C   UNL     1       0.058  11.542  20.350  0.00  0.00    +0.000 C 
BRANCH   7  10
ATOM      9  C   UNL     1       2.639  13.758  20.866  0.00  0.00    +0.000 C 
ATOM     10  O   UNL     1       1.937  12.540  21.095  0.00  0.00    +0.000 OA
ENDBRANCH   7  10
BRANCH   8  11
ATOM     11  C   UNL     1      -0.076  10.892  21.739  0.00  0.00    +0.000 C 
ATOM     12  O   UNL     1      -0.336  11.511  22.755  0.00  0.00    +0.000 OA
BRANCH  11  13
ATOM     13  O   UNL     1       0.057   9.549  21.633  0.00  0.00    +0.000 OA
ATOM     14  C   UNL     1       1.322   9.033  22.055  0.00  0.00    +0.000 C 
ENDBRANCH  11  13
ENDBRANCH   8  11
ENDBRANCH   1   8
BRANCH   6  15
ATOM     15  C   UNL     1       0.490   9.591  18.130  0.00  0.00    +0.000 C 
ATOM     16  C   UNL     1       1.495   8.946  17.994  0.00  0.00    +0.000 C 
BRANCH  16  17
ATOM     17  C   UNL     1       2.734   8.080  17.794  0.00  0.00    +0.000 C 
ATOM     18  C   UNL     1       3.679   7.350  17.663  0.00  0.00    +0.000 C 
BRANCH  18  19
ATOM     19  C   UNL     1       4.801   6.470  17.549  0.00  0.00    +0.000 A 
ATOM     20  C   UNL     1       6.021   7.026  17.136  0.00  0.00    +0.000 A 
ATOM     21  C   UNL     1       7.167   6.238  17.047  0.00  0.00    +0.000 A 
ATOM     22  C   UNL     1       7.102   4.887  17.363  0.00  0.00    +0.000 A 
ATOM     23  C   UNL     1       5.888   4.323  17.756  0.00  0.00    +0.000 A 
ATOM     24  C   UNL     1       4.715   5.101  17.848  0.00  0.00    +0.000 A 
BRANCH  24  25
ATOM     25  C   UNL     1       3.443   4.400  18.263  0.00  0.00    +0.000 C 
ATOM     26  F   UNL     1       2.842   4.856  19.393  0.00  0.00    +0.000 F 
ATOM     27  F   UNL     1       2.485   4.475  17.291  0.00  0.00    +0.000 F 
ATOM     28  F   UNL     1       3.641   3.066  18.470  0.00  0.00    +0.000 F 
ENDBRANCH  24  25
ENDBRANCH  18  19
ENDBRANCH  16  17
ENDBRANCH   6  15
TORSDOF 8
ENDMDL
MODEL 3
REMARK VINA RESULT:      -7.9      2.534      3.891
REMARK  Name = 
REMARK  10 active torsions:
REMARK  status: ('A' for Active; 'I' for Inactive)
REMARK    1  A    between atoms: C_1  and  O_2
REMARK    2  A    between atoms: O_2  and  N_3
REMARK    3  A    between atoms: C_4  and  C_5
REMARK    4  A    between atoms: C_4  and  C_9
REMARK    5  A    between atoms: C_5  and  O_7
REMARK    6  A    between atoms: O_7  and  C_8
REMARK    7  A    between atoms: C_14  and  C_15
REMARK    8  A    between atoms: C_16  and  C_17
REMARK    9  A    between atoms: C_18  and  C_19
REMARK   10  A    between atoms: C_24  and  C_25
REMARK                            x       y       z     vdW  Elec       q    Type
REMARK                         _______ _______ _______ _____ _____    ______ ____
ROOT
ATOM      1  C   UNL     1       4.817   5.065  18.161  0.00  0.00    +0.000 A 
ATOM      2  C   UNL     1       6.031   4.361  18.091  0.00  0.00    +0.000 A 
ATOM      3  C   UNL     1       7.182   4.971  17.582  0.00  0.00    +0.000 A 
ATOM      4  C   UNL     1       7.132   6.282  17.119  0.00  0.00    +0.000 A 
ATOM      5  C   UNL     1       5.931   6.989  17.170  0.00  0.00    +0.000 A 
ATOM      6  C   UNL     1       4.775   6.394  17.695  0.00  0.00    +0.000 A 
ENDROOT
BRANCH   1   8
ATOM      7  N   UNL     1       3.300   4.533  19.969  0.00  0.00    +0.000 NA
ATOM      8  C   UNL     1       3.599   4.379  18.710  0.00  0.00    +0.000 C 
BRANCH   7  10
ATOM      9  C   UNL     1       2.453   3.160  21.585  0.00  0.00    +0.000 C 
ATOM     10  O   UNL     1       2.164   3.818  20.355  0.00  0.00    +0.000 OA
ENDBRANCH   7  10
BRANCH   8  11
ATOM     11  C   UNL     1       2.736   3.539  17.752  0.00  0.00    +0.000 C 
ATOM     12  O   UNL     1       1.643   3.888  17.342  0.00  0.00    +0.000 OA
BRANCH  11  13
ATOM     13  O   UNL     1       3.408   2.423  17.385  0.00  0.00    +0.000 OA
ATOM     14  C   UNL     1       3.540   1.434  18.411  0.00  0.00    +0.000 C 
ENDBRANCH  11  13
ENDBRANCH   8  11
ENDBRANCH   1   8
BRANCH   6  15
ATOM     15  C   UNL     1       3.593   7.204  17.739  0.00  0.00    +0.000 C 
ATOM     16  C   UNL     1       2.625   7.913  17.807  0.00  0.00    +0.000 C 
BRANCH  16  17
ATOM     17  C   UNL     1       1.429   8.849  17.935  0.00  0.00    +0.000 C 
ATOM     18  C   UNL     1       0.460   9.546  18.075  0.00  0.00    +0.000 C 
BRANCH  18  19
ATOM     19  C   UNL     1      -0.719  10.341  18.231  0.00  0.00    +0.000 A 
ATOM     20  C   UNL     1      -1.733  10.192  17.273  0.00  0.00    +0.000 A 
ATOM     21  C   UNL     1      -2.927  10.901  17.387  0.00  0.00    +0.000 A 
ATOM     22  C   UNL     1      -3.115  11.770  18.455  0.00  0.00    +0.000 A 
ATOM     23  C   UNL     1      -2.104  11.938  19.400  0.00  0.00    +0.000 A 
ATOM     24  C   UNL     1      -0.885  11.234  19.301  0.00  0.00    +0.000 A 
BRANCH  24  25
ATOM     25  C   UNL     1       0.160  11.495  20.360  0.00  0.00    +0.000 C 
ATOM     26  F   UNL     1       1.365  11.946  19.923  0.00  0.00    +0.000 F 
ATOM     27  F   UNL     1      -0.263  12.422  21.270  0.00  0.00    +0.000 F 
ATOM     28  F   UNL     1       0.435  10.375  21.091  0.00  0.00    +0.000 F 
ENDBRANCH  24  25
ENDBRANCH  18  19
ENDBRANCH  16  17
ENDBRANCH   6  15
TORSDOF 8
ENDMDL
MODEL 4
REMARK VINA RESULT:      -7.9      0.965      1.913
REMARK  Name = 
REMARK  10 active torsions:
REMARK  status: ('A' for Active; 'I' for Inactive)
REMARK    1  A    between atoms: C_1  and  O_2
REMARK    2  A    between atoms: O_2  and  N_3
REMARK    3  A    between atoms: C_4  and  C_5
REMARK    4  A    between atoms: C_4  and  C_9
REMARK    5  A    between atoms: C_5  and  O_7
REMARK    6  A    between atoms: O_7  and  C_8
REMARK    7  A    between atoms: C_14  and  C_15
REMARK    8  A    between atoms: C_16  and  C_17
REMARK    9  A    between atoms: C_18  and  C_19
REMARK   10  A    between atoms: C_24  and  C_25
REMARK                            x       y       z     vdW  Elec       q    Type
REMARK                         _______ _______ _______ _____ _____    ______ ____
ROOT
ATOM      1  C   UNL     1       3.953   3.897  17.531  0.00  0.00    +0.000 A 
ATOM      2  C   UNL     1       4.047   2.495  17.563  0.00  0.00    +0.000 A 
ATOM      3  C   UNL     1       3.026   1.723  18.124  0.00  0.00    +0.000 A 
ATOM      4  C   UNL     1       1.907   2.339  18.677  0.00  0.00    +0.000 A 
ATOM      5  C   UNL     1       1.806   3.730  18.665  0.00  0.00    +0.000 A 
ATOM      6  C   UNL     1       2.816   4.514  18.089  0.00  0.00    +0.000 A 
ENDROOT
BRANCH   1   8
ATOM      7  N   UNL     1       4.995   5.036  15.669  0.00  0.00    +0.000 NA
ATOM      8  C   UNL     1       5.070   4.697  16.924  0.00  0.00    +0.000 C 
BRANCH   7  10
ATOM      9  C   UNL     1       6.878   4.891  14.384  0.00  0.00    +0.000 C 
ATOM     10  O   UNL     1       6.111   5.749  15.224  0.00  0.00    +0.000 OA
ENDBRANCH   7  10
BRANCH   8  11
ATOM     11  C   UNL     1       6.251   5.105  17.822  0.00  0.00    +0.000 C 
ATOM     12  O   UNL     1       7.114   4.334  18.199  0.00  0.00    +0.000 OA
BRANCH  11  13
ATOM     13  O   UNL     1       6.219   6.440  18.045  0.00  0.00    +0.000 OA
ATOM     14  C   UNL     1       7.479   7.104  17.915  0.00  0.00    +0.000 C 
ENDBRANCH  11  13
ENDBRANCH   8  11
ENDBRANCH   1   8
BRANCH   6  15
ATOM     15  C   UNL     1       2.614   5.933  18.091  0.00  0.00    +0.000 C 
ATOM     16  C   UNL     1       2.413   7.117  18.128  0.00  0.00    +0.000 C 
BRANCH  16  17
ATOM     17  C   UNL     1       2.114   8.609  18.223  0.00  0.00    +0.000 C 
ATOM     18  C   UNL     1       1.819   9.770  18.314  0.00  0.00    +0.000 C 
BRANCH  18  19
ATOM     19  C   UNL     1       1.435  11.145  18.398  0.00  0.00    +0.000 A 
ATOM     20  C   UNL     1       2.439  12.111  18.225  0.00  0.00    +0.000 A 
ATOM     21  C   UNL     1       2.128  13.469  18.249  0.00  0.00    +0.000 A 
ATOM     22  C   UNL     1       0.815  13.875  18.451  0.00  0.00    +0.000 A 
ATOM     23  C   UNL     1      -0.184  12.921  18.642  0.00  0.00    +0.000 A 
ATOM     24  C   UNL     1       0.108  11.541  18.627  0.00  0.00    +0.000 A 
BRANCH  24  25
ATOM     25  C   UNL     1      -1.036  10.582  18.863  0.00  0.00    +0.000 C 
ATOM     26  F   UNL     1      -1.351   9.752  17.835  0.00  0.00    +0.000 F 
ATOM     27  F   UNL     1      -0.795   9.762  19.929  0.00  0.00    +0.000 F 
ATOM     28  F   UNL     1      -2.194  11.237  19.169  0.00  0.00    +0.000 F 
ENDBRANCH  24  25
ENDBRANCH  18  19
ENDBRANCH  16  17
ENDBRANCH   6  15
TORSDOF 8
ENDMDL
MODEL 5
REMARK VINA RESULT:      -7.8      2.829      4.242
REMARK  Name = 
REMARK  10 active torsions:
REMARK  status: ('A' for Active; 'I' for Inactive)
REMARK    1  A    between atoms: C_1  and  O_2
REMARK    2  A    between atoms: O_2  and  N_3
REMARK    3  A    between atoms: C_4  and  C_5
REMARK    4  A    between atoms: C_4  and  C_9
REMARK    5  A    between atoms: C_5  and  O_7
REMARK    6  A    between atoms: O_7  and  C_8
REMARK    7  A    between atoms: C_14  and  C_15
REMARK    8  A    between atoms: C_16  and  C_17
REMARK    9  A    between atoms: C_18  and  C_19
REMARK   10  A    between atoms: C_24  and  C_25
REMARK                            x       y       z     vdW  Elec       q    Type
REMARK                         _______ _______ _______ _____ _____    ______ ____
ROOT
ATOM      1  C   UNL     1       3.900   4.759  17.364  0.00  0.00    +0.000 A 
ATOM      2  C   UNL     1       4.768   3.809  16.799  0.00  0.00    +0.000 A 
ATOM      3  C   UNL     1       5.810   4.205  15.955  0.00  0.00    +0.000 A 
ATOM      4  C   UNL     1       5.988   5.550  15.648  0.00  0.00    +0.000 A 
ATOM      5  C   UNL     1       5.127   6.504  16.191  0.00  0.00    +0.000 A 
ATOM      6  C   UNL     1       4.089   6.121  17.052  0.00  0.00    +0.000 A 
ENDROOT
BRANCH   1   8
ATOM      7  N   UNL     1       1.695   3.834  17.729  0.00  0.00    +0.000 NA
ATOM      8  C   UNL     1       2.789   4.300  18.263  0.00  0.00    +0.000 C 
BRANCH   7  10
ATOM      9  C   UNL     1       0.599   2.054  18.649  0.00  0.00    +0.000 C 
ATOM     10  O   UNL     1       0.733   3.472  18.675  0.00  0.00    +0.000 OA
ENDBRANCH   7  10
BRANCH   8  11
ATOM     11  C   UNL     1       2.999   4.375  19.786  0.00  0.00    +0.000 C 
ATOM     12  O   UNL     1       2.668   5.327  20.469  0.00  0.00    +0.000 OA
BRANCH  11  13
ATOM     13  O   UNL     1       3.519   3.209  20.236  0.00  0.00    +0.000 OA
ATOM     14  C   UNL     1       2.856   2.654  21.376  0.00  0.00    +0.000 C 
ENDBRANCH  11  13
ENDBRANCH   8  11
ENDBRANCH   1   8
BRANCH   6  15
ATOM     15  C   UNL     1       3.273   7.169  17.589  0.00  0.00    +0.000 C 
ATOM     16  C   UNL     1       2.575   8.020  18.074  0.00  0.00    +0.000 C 
BRANCH  16  17
ATOM     17  C   UNL     1       1.674   9.055  18.736  0.00  0.00    +0.000 C 
ATOM     18  C   UNL     1       0.974   9.843  19.312  0.00  0.00    +0.000 C 
BRANCH  18  19
ATOM     19  C   UNL     1       0.120  10.749  20.017  0.00  0.00    +0.000 A 
ATOM     20  C   UNL     1      -0.268  11.924  19.354  0.00  0.00    +0.000 A 
ATOM     21  C   UNL     1      -1.135  12.828  19.963  0.00  0.00    +0.000 A 
ATOM     22  C   UNL     1      -1.618  12.572  21.240  0.00  0.00    +0.000 A 
ATOM     23  C   UNL     1      -1.222  11.416  21.912  0.00  0.00    +0.000 A 
ATOM     24  C   UNL     1      -0.340  10.488  21.317  0.00  0.00    +0.000 A 
BRANCH  24  25
ATOM     25  C   UNL     1       0.049   9.275  22.129  0.00  0.00    +0.000 C 
ATOM     26  F   UNL     1      -0.380   8.073  21.663  0.00  0.00    +0.000 F 
ATOM     27  F   UNL     1       1.405   9.156  22.241  0.00  0.00    +0.000 F 
ATOM     28  F   UNL     1      -0.412   9.352  23.412  0.00  0.00    +0.000 F 
ENDBRANCH  24  25
ENDBRANCH  18  19
ENDBRANCH  16  17
ENDBRANCH   6  15
TORSDOF 8
ENDMDL
MODEL 6
REMARK VINA RESULT:      -7.8      2.656      3.957
REMARK  Name = 
REMARK  10 active torsions:
REMARK  status: ('A' for Active; 'I' for Inactive)
REMARK    1  A    between atoms: C_1  and  O_2
REMARK    2  A    between atoms: O_2  and  N_3
REMARK    3  A    between atoms: C_4  and  C_5
REMARK    4  A    between atoms: C_4  and  C_9
REMARK    5  A    between atoms: C_5  and  O_7
REMARK    6  A    between atoms: O_7  and  C_8
REMARK    7  A    between atoms: C_14  and  C_15
REMARK    8  A    between atoms: C_16  and  C_17
REMARK    9  A    between atoms: C_18  and  C_19
REMARK   10  A    between atoms: C_24  and  C_25
REMARK                            x       y       z     vdW  Elec       q    Type
REMARK                         _______ _______ _______ _____ _____    ______ ____
ROOT
ATOM      1  C   UNL     1       4.616   4.461  17.167  0.00  0.00    +0.000 A 
ATOM      2  C   UNL     1       5.467   3.581  16.477  0.00  0.00    +0.000 A 
ATOM      3  C   UNL     1       6.218   4.024  15.384  0.00  0.00    +0.000 A 
ATOM      4  C   UNL     1       6.117   5.344  14.954  0.00  0.00    +0.000 A 
ATOM      5  C   UNL     1       5.267   6.226  15.622  0.00  0.00    +0.000 A 
ATOM      6  C   UNL     1       4.522   5.798  16.730  0.00  0.00    +0.000 A 
ENDROOT
BRANCH   1   8
ATOM      7  N   UNL     1       3.890   4.585  19.471  0.00  0.00    +0.000 NA
ATOM      8  C   UNL     1       3.820   3.952  18.334  0.00  0.00    +0.000 C 
BRANCH   7  10
ATOM      9  C   UNL     1       2.153   4.935  20.913  0.00  0.00    +0.000 C 
ATOM     10  O   UNL     1       3.127   3.990  20.479  0.00  0.00    +0.000 OA
ENDBRANCH   7  10
BRANCH   8  11
ATOM     11  C   UNL     1       2.930   2.713  18.131  0.00  0.00    +0.000 C 
ATOM     12  O   UNL     1       3.316   1.569  18.289  0.00  0.00    +0.000 OA
BRANCH  11  13
ATOM     13  O   UNL     1       1.665   3.098  17.839  0.00  0.00    +0.000 OA
ATOM     14  C   UNL     1       0.650   2.492  18.644  0.00  0.00    +0.000 C 
ENDBRANCH  11  13
ENDBRANCH   8  11
ENDBRANCH   1   8
BRANCH   6  15
ATOM     15  C   UNL     1       3.699   6.779  17.374  0.00  0.00    +0.000 C 
ATOM     16  C   UNL     1       2.974   7.570  17.916  0.00  0.00    +0.000 C 
BRANCH  16  17
ATOM     17  C   UNL     1       2.007   8.527  18.604  0.00  0.00    +0.000 C 
ATOM     18  C   UNL     1       1.268   9.327  19.109  0.00  0.00    +0.000 C 
BRANCH  18  19
ATOM     19  C   UNL     1       0.421  10.306  19.719  0.00  0.00    +0.000 A 
ATOM     20  C   UNL     1       0.056  11.420  18.947  0.00  0.00    +0.000 A 
ATOM     21  C   UNL     1      -0.803  12.389  19.460  0.00  0.00    +0.000 A 
ATOM     22  C   UNL     1      -1.300  12.258  20.751  0.00  0.00    +0.000 A 
ATOM     23  C   UNL     1      -0.927  11.163  21.530  0.00  0.00    +0.000 A 
ATOM     24  C   UNL     1      -0.054  10.172  21.033  0.00  0.00    +0.000 A 
BRANCH  24  25
ATOM     25  C   UNL     1       0.309   9.034  21.957  0.00  0.00    +0.000 C 
ATOM     26  F   UNL     1      -0.198   9.091  23.216  0.00  0.00    +0.000 F 
ATOM     27  F   UNL     1      -0.098   7.829  21.458  0.00  0.00    +0.000 F 
ATOM     28  F   UNL     1       1.661   8.919  22.115  0.00  0.00    +0.000 F 
ENDBRANCH  24  25
ENDBRANCH  18  19
ENDBRANCH  16  17
ENDBRANCH   6  15
TORSDOF 8
ENDMDL
MODEL 7
REMARK VINA RESULT:      -7.8      2.647      4.206
REMARK  Name = 
REMARK  10 active torsions:
REMARK  status: ('A' for Active; 'I' for Inactive)
REMARK    1  A    between atoms: C_1  and  O_2
REMARK    2  A    between atoms: O_2  and  N_3
REMARK    3  A    between atoms: C_4  and  C_5
REMARK    4  A    between atoms: C_4  and  C_9
REMARK    5  A    between atoms: C_5  and  O_7
REMARK    6  A    between atoms: O_7  and  C_8
REMARK    7  A    between atoms: C_14  and  C_15
REMARK    8  A    between atoms: C_16  and  C_17
REMARK    9  A    between atoms: C_18  and  C_19
REMARK   10  A    between atoms: C_24  and  C_25
REMARK                            x       y       z     vdW  Elec       q    Type
REMARK                         _______ _______ _______ _____ _____    ______ ____
ROOT
ATOM      1  C   UNL     1       4.490   4.188  16.932  0.00  0.00    +0.000 A 
ATOM      2  C   UNL     1       5.293   3.415  16.076  0.00  0.00    +0.000 A 
ATOM      3  C   UNL     1       6.058   4.020  15.074  0.00  0.00    +0.000 A 
ATOM      4  C   UNL     1       6.018   5.400  14.901  0.00  0.00    +0.000 A 
ATOM      5  C   UNL     1       5.216   6.179  15.734  0.00  0.00    +0.000 A 
ATOM      6  C   UNL     1       4.458   5.586  16.754  0.00  0.00    +0.000 A 
ENDROOT
BRANCH   1   8
ATOM      7  N   UNL     1       2.674   2.755  17.639  0.00  0.00    +0.000 NA
ATOM      8  C   UNL     1       3.677   3.506  17.995  0.00  0.00    +0.000 C 
BRANCH   7  10
ATOM      9  C   UNL     1       0.673   2.758  18.739  0.00  0.00    +0.000 C 
ATOM     10  O   UNL     1       1.986   2.207  18.724  0.00  0.00    +0.000 OA
ENDBRANCH   7  10
BRANCH   8  11
ATOM     11  C   UNL     1       4.081   3.705  19.467  0.00  0.00    +0.000 C 
ATOM     12  O   UNL     1       3.474   4.417  20.245  0.00  0.00    +0.000 OA
BRANCH  11  13
ATOM     13  O   UNL     1       5.139   2.915  19.764  0.00  0.00    +0.000 OA
ATOM     14  C   UNL     1       4.830   1.765  20.556  0.00  0.00    +0.000 C 
ENDBRANCH  11  13
ENDBRANCH   8  11
ENDBRANCH   1   8
BRANCH   6  15
ATOM     15  C   UNL     1       3.688   6.465  17.583  0.00  0.00    +0.000 C 
ATOM     16  C   UNL     1       3.035   7.167  18.308  0.00  0.00    +0.000 C 
BRANCH  16  17
ATOM     17  C   UNL     1       2.197   8.005  19.268  0.00  0.00    +0.000 C 
ATOM     18  C   UNL     1       1.499   8.615  20.031  0.00  0.00    +0.000 C 
BRANCH  18  19
ATOM     19  C   UNL     1       0.634   9.332  20.917  0.00  0.00    +0.000 A 
ATOM     20  C   UNL     1       0.638   8.959  22.270  0.00  0.00    +0.000 A 
ATOM     21  C   UNL     1      -0.146   9.644  23.196  0.00  0.00    +0.000 A 
ATOM     22  C   UNL     1      -0.944  10.701  22.780  0.00  0.00    +0.000 A 
ATOM     23  C   UNL     1      -0.967  11.065  21.433  0.00  0.00    +0.000 A 
ATOM     24  C   UNL     1      -0.186  10.383  20.477  0.00  0.00    +0.000 A 
BRANCH  24  25
ATOM     25  C   UNL     1      -0.291  10.834  19.039  0.00  0.00    +0.000 C 
ATOM     26  F   UNL     1       0.854  11.280  18.460  0.00  0.00    +0.000 F 
ATOM     27  F   UNL     1      -0.739   9.831  18.226  0.00  0.00    +0.000 F 
ATOM     28  F   UNL     1      -1.193  11.848  18.888  0.00  0.00    +0.000 F 
ENDBRANCH  24  25
ENDBRANCH  18  19
ENDBRANCH  16  17
ENDBRANCH   6  15
TORSDOF 8
ENDMDL
MODEL 8
REMARK VINA RESULT:      -7.7      2.760      4.292
REMARK  Name = 
REMARK  10 active torsions:
REMARK  status: ('A' for Active; 'I' for Inactive)
REMARK    1  A    between atoms: C_1  and  O_2
REMARK    2  A    between atoms: O_2  and  N_3
REMARK    3  A    between atoms: C_4  and  C_5
REMARK    4  A    between atoms: C_4  and  C_9
REMARK    5  A    between atoms: C_5  and  O_7
REMARK    6  A    between atoms: O_7  and  C_8
REMARK    7  A    between atoms: C_14  and  C_15
REMARK    8  A    between atoms: C_16  and  C_17
REMARK    9  A    between atoms: C_18  and  C_19
REMARK   10  A    between atoms: C_24  and  C_25
REMARK                            x       y       z     vdW  Elec       q    Type
REMARK                         _______ _______ _______ _____ _____    ______ ____
ROOT
ATOM      1  C   UNL     1       4.011   4.654  17.304  0.00  0.00    +0.000 A 
ATOM      2  C   UNL     1       4.908   3.739  16.727  0.00  0.00    +0.000 A 
ATOM      3  C   UNL     1       5.917   4.176  15.863  0.00  0.00    +0.000 A 
ATOM      4  C   UNL     1       6.032   5.527  15.549  0.00  0.00    +0.000 A 
ATOM      5  C   UNL     1       5.140   6.445  16.104  0.00  0.00    +0.000 A 
ATOM      6  C   UNL     1       4.136   6.021  16.986  0.00  0.00    +0.000 A 
ENDROOT
BRANCH   1   8
ATOM      7  N   UNL     1       1.784   3.808  17.724  0.00  0.00    +0.000 NA
ATOM      8  C   UNL     1       2.937   4.150  18.225  0.00  0.00    +0.000 C 
BRANCH   7  10
ATOM      9  C   UNL     1       0.708   1.978  18.567  0.00  0.00    +0.000 C 
ATOM     10  O   UNL     1       0.867   3.388  18.691  0.00  0.00    +0.000 OA
ENDBRANCH   7  10
BRANCH   8  11
ATOM     11  C   UNL     1       3.253   4.036  19.727  0.00  0.00    +0.000 C 
ATOM     12  O   UNL     1       3.621   3.007  20.265  0.00  0.00    +0.000 OA
BRANCH  11  13
ATOM     13  O   UNL     1       3.139   5.250  20.315  0.00  0.00    +0.000 OA
ATOM     14  C   UNL     1       1.834   5.558  20.814  0.00  0.00    +0.000 C 
ENDBRANCH  11  13
ENDBRANCH   8  11
ENDBRANCH   1   8
BRANCH   6  15
ATOM     15  C   UNL     1       3.285   7.036  17.534  0.00  0.00    +0.000 C 
ATOM     16  C   UNL     1       2.585   7.874  18.037  0.00  0.00    +0.000 C 
BRANCH  16  17
ATOM     17  C   UNL     1       1.717   8.914  18.734  0.00  0.00    +0.000 C 
ATOM     18  C   UNL     1       1.062   9.721  19.337  0.00  0.00    +0.000 C 
BRANCH  18  19
ATOM     19  C   UNL     1       0.274  10.652  20.084  0.00  0.00    +0.000 A 
ATOM     20  C   UNL     1      -0.042  11.874  19.471  0.00  0.00    +0.000 A 
ATOM     21  C   UNL     1      -0.844  12.808  20.122  0.00  0.00    +0.000 A 
ATOM     22  C   UNL     1      -1.333  12.534  21.393  0.00  0.00    +0.000 A 
ATOM     23  C   UNL     1      -1.007  11.329  22.016  0.00  0.00    +0.000 A 
ATOM     24  C   UNL     1      -0.193  10.371  21.378  0.00  0.00    +0.000 A 
BRANCH  24  25
ATOM     25  C   UNL     1       0.123   9.104  22.139  0.00  0.00    +0.000 C 
ATOM     26  F   UNL     1       1.430   8.736  22.185  0.00  0.00    +0.000 F 
ATOM     27  F   UNL     1      -0.275   9.186  23.443  0.00  0.00    +0.000 F 
ATOM     28  F   UNL     1      -0.541   8.025  21.628  0.00  0.00    +0.000 F 
ENDBRANCH  24  25
ENDBRANCH  18  19
ENDBRANCH  16  17
ENDBRANCH   6  15
TORSDOF 8
ENDMDL
MODEL 9
REMARK VINA RESULT:      -7.7      0.876      2.000
REMARK  Name = 
REMARK  10 active torsions:
REMARK  status: ('A' for Active; 'I' for Inactive)
REMARK    1  A    between atoms: C_1  and  O_2
REMARK    2  A    between atoms: O_2  and  N_3
REMARK    3  A    between atoms: C_4  and  C_5
REMARK    4  A    between atoms: C_4  and  C_9
REMARK    5  A    between atoms: C_5  and  O_7
REMARK    6  A    between atoms: O_7  and  C_8
REMARK    7  A    between atoms: C_14  and  C_15
REMARK    8  A    between atoms: C_16  and  C_17
REMARK    9  A    between atoms: C_18  and  C_19
REMARK   10  A    between atoms: C_24  and  C_25
REMARK                            x       y       z     vdW  Elec       q    Type
REMARK                         _______ _______ _______ _____ _____    ______ ____
ROOT
ATOM      1  C   UNL     1       3.915   4.049  17.511  0.00  0.00    +0.000 A 
ATOM      2  C   UNL     1       4.036   2.650  17.559  0.00  0.00    +0.000 A 
ATOM      3  C   UNL     1       3.046   1.866  18.160  0.00  0.00    +0.000 A 
ATOM      4  C   UNL     1       1.933   2.469  18.738  0.00  0.00    +0.000 A 
ATOM      5  C   UNL     1       1.804   3.857  18.710  0.00  0.00    +0.000 A 
ATOM      6  C   UNL     1       2.782   4.652  18.094  0.00  0.00    +0.000 A 
ENDROOT
BRANCH   1   8
ATOM      7  N   UNL     1       5.093   4.863  15.563  0.00  0.00    +0.000 NA
ATOM      8  C   UNL     1       4.998   4.861  16.862  0.00  0.00    +0.000 C 
BRANCH   7  10
ATOM      9  C   UNL     1       6.980   4.799  14.277  0.00  0.00    +0.000 C 
ATOM     10  O   UNL     1       6.160   5.632  15.091  0.00  0.00    +0.000 OA
ENDBRANCH   7  10
BRANCH   8  11
ATOM     11  C   UNL     1       5.939   5.681  17.761  0.00  0.00    +0.000 C 
ATOM     12  O   UNL     1       5.934   6.897  17.818  0.00  0.00    +0.000 OA
BRANCH  11  13
ATOM     13  O   UNL     1       6.693   4.849  18.518  0.00  0.00    +0.000 OA
ATOM     14  C   UNL     1       7.564   5.501  19.447  0.00  0.00    +0.000 C 
ENDBRANCH  11  13
ENDBRANCH   8  11
ENDBRANCH   1   8
BRANCH   6  15
ATOM     15  C   UNL     1       2.553   6.067  18.084  0.00  0.00    +0.000 C 
ATOM     16  C   UNL     1       2.342   7.250  18.118  0.00  0.00    +0.000 C 
BRANCH  16  17
ATOM     17  C   UNL     1       2.045   8.741  18.221  0.00  0.00    +0.000 C 
ATOM     18  C   UNL     1       1.759   9.903  18.334  0.00  0.00    +0.000 C 
BRANCH  18  19
ATOM     19  C   UNL     1       1.379  11.277  18.452  0.00  0.00    +0.000 A 
ATOM     20  C   UNL     1       2.371  12.245  18.234  0.00  0.00    +0.000 A 
ATOM     21  C   UNL     1       2.062  13.603  18.288  0.00  0.00    +0.000 A 
ATOM     22  C   UNL     1       0.762  14.005  18.567  0.00  0.00    +0.000 A 
ATOM     23  C   UNL     1      -0.225  13.048  18.804  0.00  0.00    +0.000 A 
ATOM     24  C   UNL     1       0.067  11.669  18.759  0.00  0.00    +0.000 A 
BRANCH  24  25
ATOM     25  C   UNL     1      -1.062  10.707  19.048  0.00  0.00    +0.000 C 
ATOM     26  F   UNL     1      -0.844   9.799  20.035  0.00  0.00    +0.000 F 
ATOM     27  F   UNL     1      -2.206  11.363  19.407  0.00  0.00    +0.000 F 
ATOM     28  F   UNL     1      -1.399   9.972  17.948  0.00  0.00    +0.000 F 
ENDBRANCH  24  25
ENDBRANCH  18  19
ENDBRANCH  16  17
ENDBRANCH   6  15
TORSDOF 8
ENDMDL
