MODEL 1
REMARK VINA RESULT:      -7.7      0.000      0.000
REMARK  Name = 
REMARK  9 active torsions:
REMARK  status: ('A' for Active; 'I' for Inactive)
REMARK    1  A    between atoms: C_1  and  C_2
REMARK    2  A    between atoms: C_2  and  C_3
REMARK    3  A    between atoms: C_2  and  C_4
REMARK    4  A    between atoms: C_4  and  C_5
REMARK    5  A    between atoms: C_5  and  N_6
REMARK    6  A    between atoms: C_7  and  C_9
REMARK    7  A    between atoms: C_13  and  C_14
REMARK    8  A    between atoms: N_19  and  C_20
REMARK    9  A    between atoms: C_20  and  C_21
REMARK                            x       y       z     vdW  Elec       q    Type
REMARK                         _______ _______ _______ _____ _____    ______ ____
ROOT
ATOM      1  C   UNL     1       6.973   5.606  17.126  0.00  0.00    +0.000 A 
ATOM      2  N   UNL     1       7.402   5.535  15.816  0.00  0.00    +0.000 N 
ATOM      3  C   UNL     1       6.657   4.612  15.156  0.00  0.00    +0.000 A 
ATOM      4  N   UNL     1       5.742   4.096  15.941  0.00  0.00    +0.000 NA
ATOM      5  C   UNL     1       5.935   4.677  17.193  0.00  0.00    +0.000 A 
ATOM      6  H   UNL     1       8.162   6.086  15.439  0.00  0.00    +0.000 HD
ENDROOT
BRANCH   5   7
ATOM      7  C   UNL     1       5.106   4.344  18.364  0.00  0.00    +0.000 C 
ATOM      8  O   UNL     1       5.260   3.266  18.943  0.00  0.00    +0.000 OA
ATOM      9  N   UNL     1       4.128   5.247  18.781  0.00  0.00    +0.000 N 
ATOM     10  C   UNL     1       3.833   6.527  18.128  0.00  0.00    +0.000 C 
ATOM     11  C   UNL     1       2.330   6.877  18.168  0.00  0.00    +0.000 C 
ATOM     12  N   UNL     1       1.695   6.753  19.498  0.00  0.00    +0.000 NA
ATOM     13  C   UNL     1       1.967   5.390  20.008  0.00  0.00    +0.000 C 
ATOM     14  C   UNL     1       3.458   5.017  20.064  0.00  0.00    +0.000 C 
BRANCH  12  15
ATOM     15  C   UNL     1       2.185   7.823  20.385  0.00  0.00    +0.000 C 
BRANCH  15  16
ATOM     16  C   UNL     1       1.133   8.816  20.816  0.00  0.00    +0.000 A 
ATOM     17  C   UNL     1       0.777   8.921  22.169  0.00  0.00    +0.000 A 
ATOM     18  C   UNL     1      -0.174   9.855  22.581  0.00  0.00    +0.000 A 
ATOM     19  C   UNL     1      -0.778  10.692  21.645  0.00  0.00    +0.000 A 
ATOM     20  C   UNL     1      -0.433  10.595  20.298  0.00  0.00    +0.000 A 
ATOM     21  C   UNL     1       0.518   9.664  19.882  0.00  0.00    +0.000 A 
ENDBRANCH  15  16
ENDBRANCH  12  15
ENDBRANCH   5   7
BRANCH   1  23
ATOM     22  N   UNL     1       7.807   7.781  17.684  0.00  0.00    +0.000 N 
ATOM     23  C   UNL     1       7.635   6.481  18.068  0.00  0.00    +0.000 C 
ATOM     24  O   UNL     1       8.002   6.062  19.168  0.00  0.00    +0.000 OA
ATOM     25  H   UNL     1       7.707   8.004  16.696  0.00  0.00    +0.000 HD
BRANCH  22  26
ATOM     26  C   UNL     1       8.480   8.761  18.505  0.00  0.00    +0.000 C 
BRANCH  26  27
ATOM     27  C   UNL     1       8.526  10.130  17.821  0.00  0.00    +0.000 C 
BRANCH  27  29
ATOM     28  C   UNL     1       9.185  12.577  18.121  0.00  0.00    +0.000 C 
ATOM     29  C   UNL     1       9.538  11.123  18.434  0.00  0.00    +0.000 C 
ATOM     30  C   UNL     1       9.614  10.921  19.949  0.00  0.00    +0.000 C 
ENDBRANCH  27  29
ENDBRANCH  26  27
ENDBRANCH  22  26
ENDBRANCH   1  23
TORSDOF 7
ENDMDL
MODEL 2
REMARK VINA RESULT:      -7.4      0.577      1.248
REMARK  Name = 
REMARK  9 active torsions:
REMARK  status: ('A' for Active; 'I' for Inactive)
REMARK    1  A    between atoms: C_1  and  C_2
REMARK    2  A    between atoms: C_2  and  C_3
REMARK    3  A    between atoms: C_2  and  C_4
REMARK    4  A    between atoms: C_4  and  C_5
REMARK    5  A    between atoms: C_5  and  N_6
REMARK    6  A    between atoms: C_7  and  C_9
REMARK    7  A    between atoms: C_13  and  C_14
REMARK    8  A    between atoms: N_19  and  C_20
REMARK    9  A    between atoms: C_20  and  C_21
REMARK                            x       y       z     vdW  Elec       q    Type
REMARK                         _______ _______ _______ _____ _____    ______ ____
ROOT
ATOM      1  C   UNL     1       7.142   5.829  17.000  0.00  0.00    +0.000 A 
ATOM      2  N   UNL     1       7.601   5.851  15.699  0.00  0.00    +0.000 N 
ATOM      3  C   UNL     1       6.941   4.906  14.982  0.00  0.00    +0.000 A 
ATOM      4  N   UNL     1       6.052   4.288  15.721  0.00  0.00    +0.000 NA
ATOM      5  C   UNL     1       6.175   4.824  17.001  0.00  0.00    +0.000 A 
ATOM      6  H   UNL     1       8.326   6.473  15.365  0.00  0.00    +0.000 HD
ENDROOT
BRANCH   5   7
ATOM      7  C   UNL     1       5.350   4.377  18.137  0.00  0.00    +0.000 C 
ATOM      8  O   UNL     1       5.577   3.292  18.676  0.00  0.00    +0.000 OA
ATOM      9  N   UNL     1       4.293   5.181  18.565  0.00  0.00    +0.000 N 
ATOM     10  C   UNL     1       3.910   6.460  17.955  0.00  0.00    +0.000 C 
ATOM     11  C   UNL     1       2.383   6.686  17.971  0.00  0.00    +0.000 C 
ATOM     12  N   UNL     1       1.731   6.456  19.278  0.00  0.00    +0.000 NA
ATOM     13  C   UNL     1       2.101   5.100  19.740  0.00  0.00    +0.000 C 
ATOM     14  C   UNL     1       3.615   4.845  19.819  0.00  0.00    +0.000 C 
BRANCH  12  15
ATOM     15  C   UNL     1       2.113   7.524  20.219  0.00  0.00    +0.000 C 
BRANCH  15  16
ATOM     16  C   UNL     1       1.210   8.733  20.201  0.00  0.00    +0.000 A 
ATOM     17  C   UNL     1       1.228   9.609  19.105  0.00  0.00    +0.000 A 
ATOM     18  C   UNL     1       0.377  10.713  19.065  0.00  0.00    +0.000 A 
ATOM     19  C   UNL     1      -0.501  10.952  20.120  0.00  0.00    +0.000 A 
ATOM     20  C   UNL     1      -0.528  10.090  21.215  0.00  0.00    +0.000 A 
ATOM     21  C   UNL     1       0.321   8.984  21.257  0.00  0.00    +0.000 A 
ENDBRANCH  15  16
ENDBRANCH  12  15
ENDBRANCH   5   7
BRANCH   1  23
ATOM     22  N   UNL     1       7.978   7.990  17.606  0.00  0.00    +0.000 N 
ATOM     23  C   UNL     1       7.717   6.707  17.996  0.00  0.00    +0.000 C 
ATOM     24  O   UNL     1       7.936   6.305  19.140  0.00  0.00    +0.000 OA
ATOM     25  H   UNL     1       8.003   8.191  16.610  0.00  0.00    +0.000 HD
BRANCH  22  26
ATOM     26  C   UNL     1       8.581   8.969  18.481  0.00  0.00    +0.000 C 
BRANCH  26  27
ATOM     27  C   UNL     1       8.477  10.382  17.899  0.00  0.00    +0.000 C 
BRANCH  27  29
ATOM     28  C   UNL     1       9.448  11.150  20.130  0.00  0.00    +0.000 C 
ATOM     29  C   UNL     1       9.319  11.446  18.636  0.00  0.00    +0.000 C 
ATOM     30  C   UNL     1      10.710  11.541  18.003  0.00  0.00    +0.000 C 
ENDBRANCH  27  29
ENDBRANCH  26  27
ENDBRANCH  22  26
ENDBRANCH   1  23
TORSDOF 7
ENDMDL
MODEL 3
REMARK VINA RESULT:      -7.3      4.640      9.843
REMARK  Name = 
REMARK  9 active torsions:
REMARK  status: ('A' for Active; 'I' for Inactive)
REMARK    1  A    between atoms: C_1  and  C_2
REMARK    2  A    between atoms: C_2  and  C_3
REMARK    3  A    between atoms: C_2  and  C_4
REMARK    4  A    between atoms: C_4  and  C_5
REMARK    5  A    between atoms: C_5  and  N_6
REMARK    6  A    between atoms: C_7  and  C_9
REMARK    7  A    between atoms: C_13  and  C_14
REMARK    8  A    between atoms: N_19  and  C_20
REMARK    9  A    between atoms: C_20  and  C_21
REMARK                            x       y       z     vdW  Elec       q    Type
REMARK                         _______ _______ _______ _____ _____    ______ ____
ROOT
ATOM      1  C   UNL     1      -1.102  11.760  18.330  0.00  0.00    +0.000 A 
ATOM      2  N   UNL     1      -0.860  13.010  17.798  0.00  0.00    +0.000 N 
ATOM      3  C   UNL     1       0.284  13.504  18.334  0.00  0.00    +0.000 A 
ATOM      4  N   UNL     1       0.829  12.643  19.159  0.00  0.00    +0.000 NA
ATOM      5  C   UNL     1      -0.034  11.550  19.201  0.00  0.00    +0.000 A 
ATOM      6  H   UNL     1      -1.465  13.466  17.127  0.00  0.00    +0.000 HD
ENDROOT
BRANCH   5   7
ATOM      7  C   UNL     1       0.221  10.363  20.037  0.00  0.00    +0.000 C 
ATOM      8  O   UNL     1      -0.120  10.357  21.221  0.00  0.00    +0.000 OA
ATOM      9  N   UNL     1       0.880   9.270  19.476  0.00  0.00    +0.000 N 
ATOM     10  C   UNL     1       1.372   9.202  18.095  0.00  0.00    +0.000 C 
ATOM     11  C   UNL     1       2.693   8.412  17.977  0.00  0.00    +0.000 C 
ATOM     12  N   UNL     1       2.695   7.095  18.651  0.00  0.00    +0.000 NA
ATOM     13  C   UNL     1       2.290   7.303  20.059  0.00  0.00    +0.000 C 
ATOM     14  C   UNL     1       0.939   8.018  20.235  0.00  0.00    +0.000 C 
BRANCH  12  15
ATOM     15  C   UNL     1       1.822   6.160  17.919  0.00  0.00    +0.000 C 
BRANCH  15  16
ATOM     16  C   UNL     1       2.249   4.713  17.989  0.00  0.00    +0.000 A 
ATOM     17  C   UNL     1       1.389   3.752  18.542  0.00  0.00    +0.000 A 
ATOM     18  C   UNL     1       1.762   2.408  18.585  0.00  0.00    +0.000 A 
ATOM     19  C   UNL     1       2.998   2.014  18.077  0.00  0.00    +0.000 A 
ATOM     20  C   UNL     1       3.860   2.960  17.527  0.00  0.00    +0.000 A 
ATOM     21  C   UNL     1       3.490   4.304  17.481  0.00  0.00    +0.000 A 
ENDBRANCH  15  16
ENDBRANCH  12  15
ENDBRANCH   5   7
BRANCH   1  23
ATOM     22  N   UNL     1      -3.434  11.756  17.784  0.00  0.00    +0.000 N 
ATOM     23  C   UNL     1      -2.294  11.025  17.964  0.00  0.00    +0.000 C 
ATOM     24  O   UNL     1      -2.258   9.803  17.809  0.00  0.00    +0.000 OA
ATOM     25  H   UNL     1      -3.458  12.703  18.154  0.00  0.00    +0.000 HD
BRANCH  22  26
ATOM     26  C   UNL     1      -4.706  11.157  17.450  0.00  0.00    +0.000 C 
BRANCH  26  27
ATOM     27  C   UNL     1      -5.876  12.045  17.882  0.00  0.00    +0.000 C 
BRANCH  27  29
ATOM     28  C   UNL     1      -6.701   9.883  18.955  0.00  0.00    +0.000 C 
ATOM     29  C   UNL     1      -6.820  11.407  18.924  0.00  0.00    +0.000 C 
ATOM     30  C   UNL     1      -6.527  11.979  20.313  0.00  0.00    +0.000 C 
ENDBRANCH  27  29
ENDBRANCH  26  27
ENDBRANCH  22  26
ENDBRANCH   1  23
TORSDOF 7
ENDMDL
MODEL 4
REMARK VINA RESULT:      -7.2      4.837      9.953
REMARK  Name = 
REMARK  9 active torsions:
REMARK  status: ('A' for Active; 'I' for Inactive)
REMARK    1  A    between atoms: C_1  and  C_2
REMARK    2  A    between atoms: C_2  and  C_3
REMARK    3  A    between atoms: C_2  and  C_4
REMARK    4  A    between atoms: C_4  and  C_5
REMARK    5  A    between atoms: C_5  and  N_6
REMARK    6  A    between atoms: C_7  and  C_9
REMARK    7  A    between atoms: C_13  and  C_14
REMARK    8  A    between atoms: N_19  and  C_20
REMARK    9  A    between atoms: C_20  and  C_21
REMARK                            x       y       z     vdW  Elec       q    Type
REMARK                         _______ _______ _______ _____ _____    ______ ____
ROOT
ATOM      1  C   UNL     1      -1.068  11.901  18.437  0.00  0.00    +0.000 A 
ATOM      2  N   UNL     1      -0.796  13.121  17.853  0.00  0.00    +0.000 N 
ATOM      3  C   UNL     1       0.422  13.549  18.271  0.00  0.00    +0.000 A 
ATOM      4  N   UNL     1       0.984  12.671  19.066  0.00  0.00    +0.000 NA
ATOM      5  C   UNL     1       0.060  11.638  19.214  0.00  0.00    +0.000 A 
ATOM      6  H   UNL     1      -1.430  13.603  17.228  0.00  0.00    +0.000 HD
ENDROOT
BRANCH   5   7
ATOM      7  C   UNL     1       0.314  10.455  20.054  0.00  0.00    +0.000 C 
ATOM      8  O   UNL     1       0.001  10.465  21.246  0.00  0.00    +0.000 OA
ATOM      9  N   UNL     1       0.940   9.345  19.488  0.00  0.00    +0.000 N 
ATOM     10  C   UNL     1       1.398   9.257  18.096  0.00  0.00    +0.000 C 
ATOM     11  C   UNL     1       2.701   8.442  17.955  0.00  0.00    +0.000 C 
ATOM     12  N   UNL     1       2.696   7.131  18.640  0.00  0.00    +0.000 NA
ATOM     13  C   UNL     1       2.328   7.358  20.055  0.00  0.00    +0.000 C 
ATOM     14  C   UNL     1       0.996   8.098  20.256  0.00  0.00    +0.000 C 
BRANCH  12  15
ATOM     15  C   UNL     1       1.790   6.206  17.937  0.00  0.00    +0.000 C 
BRANCH  15  16
ATOM     16  C   UNL     1       2.242   4.765  17.931  0.00  0.00    +0.000 A 
ATOM     17  C   UNL     1       1.360   3.749  18.331  0.00  0.00    +0.000 A 
ATOM     18  C   UNL     1       1.758   2.412  18.301  0.00  0.00    +0.000 A 
ATOM     19  C   UNL     1       3.041   2.079  17.873  0.00  0.00    +0.000 A 
ATOM     20  C   UNL     1       3.926   3.080  17.475  0.00  0.00    +0.000 A 
ATOM     21  C   UNL     1       3.531   4.417  17.501  0.00  0.00    +0.000 A 
ENDBRANCH  15  16
ENDBRANCH  12  15
ENDBRANCH   5   7
BRANCH   1  23
ATOM     22  N   UNL     1      -3.462  11.965  18.452  0.00  0.00    +0.000 N 
ATOM     23  C   UNL     1      -2.333  11.240  18.200  0.00  0.00    +0.000 C 
ATOM     24  O   UNL     1      -2.370  10.084  17.772  0.00  0.00    +0.000 OA
ATOM     25  H   UNL     1      -3.373  12.805  19.019  0.00  0.00    +0.000 HD
BRANCH  22  26
ATOM     26  C   UNL     1      -4.793  11.428  18.294  0.00  0.00    +0.000 C 
BRANCH  26  27
ATOM     27  C   UNL     1      -5.504  12.034  17.080  0.00  0.00    +0.000 C 
BRANCH  27  29
ATOM     28  C   UNL     1      -7.305  12.448  18.839  0.00  0.00    +0.000 C 
ATOM     29  C   UNL     1      -6.936  12.541  17.359  0.00  0.00    +0.000 C 
ATOM     30  C   UNL     1      -7.081  13.986  16.877  0.00  0.00    +0.000 C 
ENDBRANCH  27  29
ENDBRANCH  26  27
ENDBRANCH  22  26
ENDBRANCH   1  23
TORSDOF 7
ENDMDL
MODEL 5
REMARK VINA RESULT:      -7.2      2.882      8.182
REMARK  Name = 
REMARK  9 active torsions:
REMARK  status: ('A' for Active; 'I' for Inactive)
REMARK    1  A    between atoms: C_1  and  C_2
REMARK    2  A    between atoms: C_2  and  C_3
REMARK    3  A    between atoms: C_2  and  C_4
REMARK    4  A    between atoms: C_4  and  C_5
REMARK    5  A    between atoms: C_5  and  N_6
REMARK    6  A    between atoms: C_7  and  C_9
REMARK    7  A    between atoms: C_13  and  C_14
REMARK    8  A    between atoms: N_19  and  C_20
REMARK    9  A    between atoms: C_20  and  C_21
REMARK                            x       y       z     vdW  Elec       q    Type
REMARK                         _______ _______ _______ _____ _____    ______ ____
ROOT
ATOM      1  C   UNL     1       3.186   4.705  19.634  0.00  0.00    +0.000 A 
ATOM      2  N   UNL     1       2.338   3.725  20.107  0.00  0.00    +0.000 N 
ATOM      3  C   UNL     1       3.022   2.557  20.203  0.00  0.00    +0.000 A 
ATOM      4  N   UNL     1       4.277   2.715  19.855  0.00  0.00    +0.000 NA
ATOM      5  C   UNL     1       4.404   4.046  19.463  0.00  0.00    +0.000 A 
ATOM      6  H   UNL     1       1.362   3.879  20.326  0.00  0.00    +0.000 HD
ENDROOT
BRANCH   5   7
ATOM      7  C   UNL     1       5.673   4.620  18.984  0.00  0.00    +0.000 C 
ATOM      8  O   UNL     1       6.493   5.064  19.789  0.00  0.00    +0.000 OA
ATOM      9  N   UNL     1       5.912   4.681  17.611  0.00  0.00    +0.000 N 
ATOM     10  C   UNL     1       4.978   4.229  16.573  0.00  0.00    +0.000 C 
ATOM     11  C   UNL     1       5.027   5.113  15.310  0.00  0.00    +0.000 C 
ATOM     12  N   UNL     1       6.384   5.376  14.783  0.00  0.00    +0.000 NA
ATOM     13  C   UNL     1       7.202   5.929  15.886  0.00  0.00    +0.000 C 
ATOM     14  C   UNL     1       7.253   5.047  17.145  0.00  0.00    +0.000 C 
BRANCH  12  15
ATOM     15  C   UNL     1       6.939   4.141  14.200  0.00  0.00    +0.000 C 
BRANCH  15  16
ATOM     16  C   UNL     1       6.130   3.562  13.064  0.00  0.00    +0.000 A 
ATOM     17  C   UNL     1       4.857   4.076  12.773  0.00  0.00    +0.000 A 
ATOM     18  C   UNL     1       4.114   3.568  11.707  0.00  0.00    +0.000 A 
ATOM     19  C   UNL     1       4.636   2.541  10.923  0.00  0.00    +0.000 A 
ATOM     20  C   UNL     1       5.899   2.022  11.204  0.00  0.00    +0.000 A 
ATOM     21  C   UNL     1       6.645   2.529  12.267  0.00  0.00    +0.000 A 
ENDBRANCH  15  16
ENDBRANCH  12  15
ENDBRANCH   5   7
BRANCH   1  23
ATOM     22  N   UNL     1       2.200   6.723  20.464  0.00  0.00    +0.000 N 
ATOM     23  C   UNL     1       2.696   6.043  19.388  0.00  0.00    +0.000 C 
ATOM     24  O   UNL     1       2.750   6.538  18.260  0.00  0.00    +0.000 OA
ATOM     25  H   UNL     1       1.962   6.190  21.297  0.00  0.00    +0.000 HD
BRANCH  22  26
ATOM     26  C   UNL     1       1.646   8.054  20.366  0.00  0.00    +0.000 C 
BRANCH  26  27
ATOM     27  C   UNL     1       0.618   8.318  21.470  0.00  0.00    +0.000 C 
BRANCH  27  29
ATOM     28  C   UNL     1      -0.401  10.467  20.549  0.00  0.00    +0.000 C 
ATOM     29  C   UNL     1       0.317   9.810  21.727  0.00  0.00    +0.000 C 
ATOM     30  C   UNL     1      -0.524   9.962  22.997  0.00  0.00    +0.000 C 
ENDBRANCH  27  29
ENDBRANCH  26  27
ENDBRANCH  22  26
ENDBRANCH   1  23
TORSDOF 7
ENDMDL
MODEL 6
REMARK VINA RESULT:      -7.1      4.692      9.741
REMARK  Name = 
REMARK  9 active torsions:
REMARK  status: ('A' for Active; 'I' for Inactive)
REMARK    1  A    between atoms: C_1  and  C_2
REMARK    2  A    between atoms: C_2  and  C_3
REMARK    3  A    between atoms: C_2  and  C_4
REMARK    4  A    between atoms: C_4  and  C_5
REMARK    5  A    between atoms: C_5  and  N_6
REMARK    6  A    between atoms: C_7  and  C_9
REMARK    7  A    between atoms: C_13  and  C_14
REMARK    8  A    between atoms: N_19  and  C_20
REMARK    9  A    between atoms: C_20  and  C_21
REMARK                            x       y       z     vdW  Elec       q    Type
REMARK                         _______ _______ _______ _____ _____    ______ ____
ROOT
ATOM      1  C   UNL     1      -0.740  11.825  18.585  0.00  0.00    +0.000 A 
ATOM      2  N   UNL     1      -0.453  13.032  17.982  0.00  0.00    +0.000 N 
ATOM      3  C   UNL     1       0.800  13.415  18.335  0.00  0.00    +0.000 A 
ATOM      4  N   UNL     1       1.369  12.518  19.104  0.00  0.00    +0.000 NA
ATOM      5  C   UNL     1       0.415  11.521  19.305  0.00  0.00    +0.000 A 
ATOM      6  H   UNL     1      -1.099  13.536  17.388  0.00  0.00    +0.000 HD
ENDROOT
BRANCH   5   7
ATOM      7  C   UNL     1       0.666  10.331  20.136  0.00  0.00    +0.000 C 
ATOM      8  O   UNL     1       0.437  10.364  21.346  0.00  0.00    +0.000 OA
ATOM      9  N   UNL     1       1.197   9.188  19.538  0.00  0.00    +0.000 N 
ATOM     10  C   UNL     1       1.552   9.069  18.119  0.00  0.00    +0.000 C 
ATOM     11  C   UNL     1       2.800   8.188  17.896  0.00  0.00    +0.000 C 
ATOM     12  N   UNL     1       2.777   6.884  18.592  0.00  0.00    +0.000 NA
ATOM     13  C   UNL     1       2.519   7.137  20.028  0.00  0.00    +0.000 C 
ATOM     14  C   UNL     1       1.242   7.945  20.313  0.00  0.00    +0.000 C 
BRANCH  12  15
ATOM     15  C   UNL     1       1.779   6.001  17.962  0.00  0.00    +0.000 C 
BRANCH  15  16
ATOM     16  C   UNL     1       1.976   4.530  18.239  0.00  0.00    +0.000 A 
ATOM     17  C   UNL     1       2.951   3.805  17.537  0.00  0.00    +0.000 A 
ATOM     18  C   UNL     1       3.160   2.452  17.806  0.00  0.00    +0.000 A 
ATOM     19  C   UNL     1       2.396   1.811  18.778  0.00  0.00    +0.000 A 
ATOM     20  C   UNL     1       1.423   2.521  19.481  0.00  0.00    +0.000 A 
ATOM     21  C   UNL     1       1.213   3.874  19.216  0.00  0.00    +0.000 A 
ENDBRANCH  15  16
ENDBRANCH  12  15
ENDBRANCH   5   7
BRANCH   1  23
ATOM     22  N   UNL     1      -3.128  12.013  18.613  0.00  0.00    +0.000 N 
ATOM     23  C   UNL     1      -2.040  11.211  18.416  0.00  0.00    +0.000 C 
ATOM     24  O   UNL     1      -2.140  10.027  18.090  0.00  0.00    +0.000 OA
ATOM     25  H   UNL     1      -2.990  12.893  19.105  0.00  0.00    +0.000 HD
BRANCH  22  26
ATOM     26  C   UNL     1      -4.487  11.533  18.512  0.00  0.00    +0.000 C 
BRANCH  26  27
ATOM     27  C   UNL     1      -5.132  11.948  17.187  0.00  0.00    +0.000 C 
BRANCH  27  29
ATOM     28  C   UNL     1      -7.189  12.117  18.687  0.00  0.00    +0.000 C 
ATOM     29  C   UNL     1      -6.610  12.382  17.298  0.00  0.00    +0.000 C 
ATOM     30  C   UNL     1      -6.743  13.868  16.954  0.00  0.00    +0.000 C 
ENDBRANCH  27  29
ENDBRANCH  26  27
ENDBRANCH  22  26
ENDBRANCH   1  23
TORSDOF 7
ENDMDL
MODEL 7
REMARK VINA RESULT:      -7.1      2.884      8.165
REMARK  Name = 
REMARK  9 active torsions:
REMARK  status: ('A' for Active; 'I' for Inactive)
REMARK    1  A    between atoms: C_1  and  C_2
REMARK    2  A    between atoms: C_2  and  C_3
REMARK    3  A    between atoms: C_2  and  C_4
REMARK    4  A    between atoms: C_4  and  C_5
REMARK    5  A    between atoms: C_5  and  N_6
REMARK    6  A    between atoms: C_7  and  C_9
REMARK    7  A    between atoms: C_13  and  C_14
REMARK    8  A    between atoms: N_19  and  C_20
REMARK    9  A    between atoms: C_20  and  C_21
REMARK                            x       y       z     vdW  Elec       q    Type
REMARK                         _______ _______ _______ _____ _____    ______ ____
ROOT
ATOM      1  C   UNL     1       3.351   4.265  19.706  0.00  0.00    +0.000 A 
ATOM      2  N   UNL     1       2.683   3.194  20.264  0.00  0.00    +0.000 N 
ATOM      3  C   UNL     1       3.556   2.169  20.434  0.00  0.00    +0.000 A 
ATOM      4  N   UNL     1       4.764   2.510  20.054  0.00  0.00    +0.000 NA
ATOM      5  C   UNL     1       4.662   3.811  19.564  0.00  0.00    +0.000 A 
ATOM      6  H   UNL     1       1.696   3.197  20.487  0.00  0.00    +0.000 HD
ENDROOT
BRANCH   5   7
ATOM      7  C   UNL     1       5.813   4.553  19.022  0.00  0.00    +0.000 C 
ATOM      8  O   UNL     1       6.604   5.109  19.787  0.00  0.00    +0.000 OA
ATOM      9  N   UNL     1       5.970   4.644  17.639  0.00  0.00    +0.000 N 
ATOM     10  C   UNL     1       5.054   4.064  16.649  0.00  0.00    +0.000 C 
ATOM     11  C   UNL     1       4.916   4.944  15.389  0.00  0.00    +0.000 C 
ATOM     12  N   UNL     1       6.194   5.390  14.794  0.00  0.00    +0.000 NA
ATOM     13  C   UNL     1       6.984   6.053  15.856  0.00  0.00    +0.000 C 
ATOM     14  C   UNL     1       7.221   5.190  17.106  0.00  0.00    +0.000 C 
BRANCH  12  15
ATOM     15  C   UNL     1       6.883   4.243  14.177  0.00  0.00    +0.000 C 
BRANCH  15  16
ATOM     16  C   UNL     1       6.143   3.610  13.023  0.00  0.00    +0.000 A 
ATOM     17  C   UNL     1       6.739   2.574  12.288  0.00  0.00    +0.000 A 
ATOM     18  C   UNL     1       6.052   1.963  11.239  0.00  0.00    +0.000 A 
ATOM     19  C   UNL     1       4.763   2.381  10.915  0.00  0.00    +0.000 A 
ATOM     20  C   UNL     1       4.162   3.410  11.638  0.00  0.00    +0.000 A 
ATOM     21  C   UNL     1       4.845   4.022  12.688  0.00  0.00    +0.000 A 
ENDBRANCH  15  16
ENDBRANCH  12  15
ENDBRANCH   5   7
BRANCH   1  23
ATOM     22  N   UNL     1       2.647   6.474  20.307  0.00  0.00    +0.000 N 
ATOM     23  C   UNL     1       2.639   5.479  19.371  0.00  0.00    +0.000 C 
ATOM     24  O   UNL     1       2.076   5.600  18.281  0.00  0.00    +0.000 OA
ATOM     25  H   UNL     1       2.913   6.233  21.258  0.00  0.00    +0.000 HD
BRANCH  22  26
ATOM     26  C   UNL     1       1.953   7.728  20.127  0.00  0.00    +0.000 C 
BRANCH  26  27
ATOM     27  C   UNL     1       1.062   8.056  21.328  0.00  0.00    +0.000 C 
BRANCH  27  29
ATOM     28  C   UNL     1      -0.384   9.922  22.296  0.00  0.00    +0.000 C 
ATOM     29  C   UNL     1      -0.034   9.107  21.051  0.00  0.00    +0.000 C 
ATOM     30  C   UNL     1       0.415  10.045  19.927  0.00  0.00    +0.000 C 
ENDBRANCH  27  29
ENDBRANCH  26  27
ENDBRANCH  22  26
ENDBRANCH   1  23
TORSDOF 7
ENDMDL
MODEL 8
REMARK VINA RESULT:      -7.1      2.979      5.514
REMARK  Name = 
REMARK  9 active torsions:
REMARK  status: ('A' for Active; 'I' for Inactive)
REMARK    1  A    between atoms: C_1  and  C_2
REMARK    2  A    between atoms: C_2  and  C_3
REMARK    3  A    between atoms: C_2  and  C_4
REMARK    4  A    between atoms: C_4  and  C_5
REMARK    5  A    between atoms: C_5  and  N_6
REMARK    6  A    between atoms: C_7  and  C_9
REMARK    7  A    between atoms: C_13  and  C_14
REMARK    8  A    between atoms: N_19  and  C_20
REMARK    9  A    between atoms: C_20  and  C_21
REMARK                            x       y       z     vdW  Elec       q    Type
REMARK                         _______ _______ _______ _____ _____    ______ ____
ROOT
ATOM      1  C   UNL     1       3.397   5.559  19.587  0.00  0.00    +0.000 A 
ATOM      2  N   UNL     1       3.230   4.390  20.301  0.00  0.00    +0.000 N 
ATOM      3  C   UNL     1       2.056   4.450  20.979  0.00  0.00    +0.000 A 
ATOM      4  N   UNL     1       1.423   5.571  20.728  0.00  0.00    +0.000 NA
ATOM      5  C   UNL     1       2.254   6.302  19.881  0.00  0.00    +0.000 A 
ATOM      6  H   UNL     1       3.901   3.633  20.310  0.00  0.00    +0.000 HD
ENDROOT
BRANCH   5   7
ATOM      7  C   UNL     1       1.901   7.641  19.378  0.00  0.00    +0.000 C 
ATOM      8  O   UNL     1       2.121   7.936  18.201  0.00  0.00    +0.000 OA
ATOM      9  N   UNL     1       1.351   8.572  20.258  0.00  0.00    +0.000 N 
ATOM     10  C   UNL     1       1.102   8.335  21.685  0.00  0.00    +0.000 C 
ATOM     11  C   UNL     1       1.336   9.597  22.542  0.00  0.00    +0.000 C 
ATOM     12  N   UNL     1       0.677  10.823  22.042  0.00  0.00    +0.000 NA
ATOM     13  C   UNL     1       1.087  11.018  20.633  0.00  0.00    +0.000 C 
ATOM     14  C   UNL     1       0.804   9.818  19.715  0.00  0.00    +0.000 C 
BRANCH  12  15
ATOM     15  C   UNL     1      -0.781  10.713  22.221  0.00  0.00    +0.000 C 
BRANCH  15  16
ATOM     16  C   UNL     1      -1.444  11.952  22.774  0.00  0.00    +0.000 A 
ATOM     17  C   UNL     1      -2.737  11.877  23.315  0.00  0.00    +0.000 A 
ATOM     18  C   UNL     1      -3.346  13.010  23.854  0.00  0.00    +0.000 A 
ATOM     19  C   UNL     1      -2.669  14.227  23.859  0.00  0.00    +0.000 A 
ATOM     20  C   UNL     1      -1.385  14.314  23.324  0.00  0.00    +0.000 A 
ATOM     21  C   UNL     1      -0.772  13.183  22.785  0.00  0.00    +0.000 A 
ENDBRANCH  15  16
ENDBRANCH  12  15
ENDBRANCH   5   7
BRANCH   1  23
ATOM     22  N   UNL     1       4.451   6.443  17.626  0.00  0.00    +0.000 N 
ATOM     23  C   UNL     1       4.598   5.780  18.812  0.00  0.00    +0.000 C 
ATOM     24  O   UNL     1       5.695   5.400  19.226  0.00  0.00    +0.000 OA
ATOM     25  H   UNL     1       3.516   6.515  17.232  0.00  0.00    +0.000 HD
BRANCH  22  26
ATOM     26  C   UNL     1       5.554   6.707  16.731  0.00  0.00    +0.000 C 
BRANCH  26  27
ATOM     27  C   UNL     1       5.385   5.970  15.399  0.00  0.00    +0.000 C 
BRANCH  27  29
ATOM     28  C   UNL     1       7.198   4.387  16.246  0.00  0.00    +0.000 C 
ATOM     29  C   UNL     1       6.561   5.044  15.021  0.00  0.00    +0.000 C 
ATOM     30  C   UNL     1       6.084   3.967  14.043  0.00  0.00    +0.000 C 
ENDBRANCH  27  29
ENDBRANCH  26  27
ENDBRANCH  22  26
ENDBRANCH   1  23
TORSDOF 7
ENDMDL
MODEL 9
REMARK VINA RESULT:      -6.9      4.621      9.736
REMARK  Name = 
REMARK  9 active torsions:
REMARK  status: ('A' for Active; 'I' for Inactive)
REMARK    1  A    between atoms: C_1  and  C_2
REMARK    2  A    between atoms: C_2  and  C_3
REMARK    3  A    between atoms: C_2  and  C_4
REMARK    4  A    between atoms: C_4  and  C_5
REMARK    5  A    between atoms: C_5  and  N_6
REMARK    6  A    between atoms: C_7  and  C_9
REMARK    7  A    between atoms: C_13  and  C_14
REMARK    8  A    between atoms: N_19  and  C_20
REMARK    9  A    between atoms: C_20  and  C_21
REMARK                            x       y       z     vdW  Elec       q    Type
REMARK                         _______ _______ _______ _____ _____    ______ ____
ROOT
ATOM      1  C   UNL     1      -1.068  11.904  18.428  0.00  0.00    +0.000 A 
ATOM      2  N   UNL     1      -0.825  13.127  17.835  0.00  0.00    +0.000 N 
ATOM      3  C   UNL     1       0.393  13.575  18.230  0.00  0.00    +0.000 A 
ATOM      4  N   UNL     1       0.982  12.708  19.018  0.00  0.00    +0.000 NA
ATOM      5  C   UNL     1       0.077  11.662  19.186  0.00  0.00    +0.000 A 
ATOM      6  H   UNL     1      -1.477  13.596  17.220  0.00  0.00    +0.000 HD
ENDROOT
BRANCH   5   7
ATOM      7  C   UNL     1       0.363  10.485  20.025  0.00  0.00    +0.000 C 
ATOM      8  O   UNL     1       0.089  10.502  21.227  0.00  0.00    +0.000 OA
ATOM      9  N   UNL     1       0.977   9.374  19.447  0.00  0.00    +0.000 N 
ATOM     10  C   UNL     1       1.390   9.279  18.041  0.00  0.00    +0.000 C 
ATOM     11  C   UNL     1       2.692   8.469  17.864  0.00  0.00    +0.000 C 
ATOM     12  N   UNL     1       2.715   7.163  18.558  0.00  0.00    +0.000 NA
ATOM     13  C   UNL     1       2.392   7.398  19.983  0.00  0.00    +0.000 C 
ATOM     14  C   UNL     1       1.063   8.134  20.222  0.00  0.00    +0.000 C 
BRANCH  12  15
ATOM     15  C   UNL     1       1.791   6.228  17.891  0.00  0.00    +0.000 C 
BRANCH  15  16
ATOM     16  C   UNL     1       2.242   4.787  17.895  0.00  0.00    +0.000 A 
ATOM     17  C   UNL     1       3.548   4.457  17.504  0.00  0.00    +0.000 A 
ATOM     18  C   UNL     1       3.983   3.132  17.532  0.00  0.00    +0.000 A 
ATOM     19  C   UNL     1       3.116   2.124  17.951  0.00  0.00    +0.000 A 
ATOM     20  C   UNL     1       1.816   2.441  18.340  0.00  0.00    +0.000 A 
ATOM     21  C   UNL     1       1.378   3.765  18.315  0.00  0.00    +0.000 A 
ENDBRANCH  15  16
ENDBRANCH  12  15
ENDBRANCH   5   7
BRANCH   1  23
ATOM     22  N   UNL     1      -3.448  12.003  18.176  0.00  0.00    +0.000 N 
ATOM     23  C   UNL     1      -2.327  11.223  18.216  0.00  0.00    +0.000 C 
ATOM     24  O   UNL     1      -2.364  10.001  18.060  0.00  0.00    +0.000 OA
ATOM     25  H   UNL     1      -3.385  12.949  18.544  0.00  0.00    +0.000 HD
BRANCH  22  26
ATOM     26  C   UNL     1      -4.776  11.461  18.004  0.00  0.00    +0.000 C 
BRANCH  26  27
ATOM     27  C   UNL     1      -5.583  11.529  19.304  0.00  0.00    +0.000 C 
BRANCH  27  29
ATOM     28  C   UNL     1      -7.008  13.474  20.136  0.00  0.00    +0.000 C 
ATOM     29  C   UNL     1      -5.594  12.915  19.985  0.00  0.00    +0.000 C 
ATOM     30  C   UNL     1      -4.921  12.827  21.357  0.00  0.00    +0.000 C 
ENDBRANCH  27  29
ENDBRANCH  26  27
ENDBRANCH  22  26
ENDBRANCH   1  23
TORSDOF 7
ENDMDL
