MODEL 1
REMARK VINA RESULT:      -6.7      0.000      0.000
REMARK  Name = 
REMARK  6 active torsions:
REMARK  status: ('A' for Active; 'I' for Inactive)
REMARK    1  A    between atoms: C_1  and  O_2
REMARK    2  A    between atoms: O_2  and  C_3
REMARK    3  A    between atoms: C_7  and  S_8
REMARK    4  A    between atoms: S_8  and  C_9
REMARK    5  A    between atoms: C_13  and  N_14
REMARK    6  A    between atoms: C_15  and  C_16
REMARK                            x       y       z     vdW  Elec       q    Type
REMARK                         _______ _______ _______ _____ _____    ______ ____
ROOT
ATOM      1  C   UNL     1       3.318   4.736  18.474  0.00  0.00    +0.000 A 
ATOM      2  C   UNL     1       2.956   6.013  18.929  0.00  0.00    +0.000 A 
ATOM      3  C   UNL     1       2.137   6.161  20.045  0.00  0.00    +0.000 A 
ATOM      4  C   UNL     1       1.675   5.035  20.724  0.00  0.00    +0.000 A 
ATOM      5  C   UNL     1       2.062   3.745  20.333  0.00  0.00    +0.000 A 
ATOM      6  C   UNL     1       2.866   3.599  19.178  0.00  0.00    +0.000 A 
ENDROOT
BRANCH   5   7
ATOM      7  N   UNL     1       1.447   2.656  20.978  0.00  0.00    +0.000 N 
ATOM      8  H   UNL     1       0.853   2.088  20.379  0.00  0.00    +0.000 HD
ATOM      9  H   UNL     1       1.005   2.855  21.873  0.00  0.00    +0.000 HD
ENDBRANCH   5   7
BRANCH   6  10
ATOM     10  C   UNL     1       3.256   2.280  18.761  0.00  0.00    +0.000 C 
ATOM     11  N   UNL     1       3.612   1.231  18.413  0.00  0.00    +0.000 NA
ENDBRANCH   6  10
BRANCH   1  12
ATOM     12  S   UNL     1       4.408   4.661  17.045  0.00  0.00    +0.000 S 
BRANCH  12  17
ATOM     13  C   UNL     1       7.321   7.457  17.646  0.00  0.00    +0.000 A 
ATOM     14  C   UNL     1       8.076   6.870  18.663  0.00  0.00    +0.000 A 
ATOM     15  C   UNL     1       7.717   5.631  19.190  0.00  0.00    +0.000 A 
ATOM     16  C   UNL     1       6.602   4.961  18.689  0.00  0.00    +0.000 A 
ATOM     17  C   UNL     1       5.848   5.525  17.656  0.00  0.00    +0.000 A 
ATOM     18  C   UNL     1       6.199   6.786  17.149  0.00  0.00    +0.000 A 
BRANCH  13  20
ATOM     19  C   UNL     1       8.494   9.459  18.181  0.00  0.00    +0.000 C 
ATOM     20  O   UNL     1       7.786   8.675  17.231  0.00  0.00    +0.000 OA
ENDBRANCH  13  20
ENDBRANCH  12  17
ENDBRANCH   1  12
TORSDOF 5
ENDMDL
MODEL 2
REMARK VINA RESULT:      -6.7      3.127      5.068
REMARK  Name = 
REMARK  6 active torsions:
REMARK  status: ('A' for Active; 'I' for Inactive)
REMARK    1  A    between atoms: C_1  and  O_2
REMARK    2  A    between atoms: O_2  and  C_3
REMARK    3  A    between atoms: C_7  and  S_8
REMARK    4  A    between atoms: S_8  and  C_9
REMARK    5  A    between atoms: C_13  and  N_14
REMARK    6  A    between atoms: C_15  and  C_16
REMARK                            x       y       z     vdW  Elec       q    Type
REMARK                         _______ _______ _______ _____ _____    ______ ____
ROOT
ATOM      1  C   UNL     1       3.483   5.015  18.095  0.00  0.00    +0.000 A 
ATOM      2  C   UNL     1       2.201   4.517  17.819  0.00  0.00    +0.000 A 
ATOM      3  C   UNL     1       1.805   3.272  18.302  0.00  0.00    +0.000 A 
ATOM      4  C   UNL     1       2.684   2.513  19.072  0.00  0.00    +0.000 A 
ATOM      5  C   UNL     1       3.953   3.002  19.415  0.00  0.00    +0.000 A 
ATOM      6  C   UNL     1       4.362   4.252  18.894  0.00  0.00    +0.000 A 
ENDROOT
BRANCH   5   7
ATOM      7  N   UNL     1       4.833   2.124  20.075  0.00  0.00    +0.000 N 
ATOM      8  H   UNL     1       4.485   1.176  20.186  0.00  0.00    +0.000 HD
ATOM      9  H   UNL     1       5.260   2.475  20.930  0.00  0.00    +0.000 HD
ENDBRANCH   5   7
BRANCH   6  10
ATOM     10  C   UNL     1       5.666   4.756  19.229  0.00  0.00    +0.000 C 
ATOM     11  N   UNL     1       6.717   5.139  19.538  0.00  0.00    +0.000 NA
ENDBRANCH   6  10
BRANCH   1  12
ATOM     12  S   UNL     1       3.877   6.648  17.453  0.00  0.00    +0.000 S 
BRANCH  12  17
ATOM     13  C   UNL     1       1.458   8.218  20.342  0.00  0.00    +0.000 A 
ATOM     14  C   UNL     1       0.875   9.296  19.673  0.00  0.00    +0.000 A 
ATOM     15  C   UNL     1       1.206   9.573  18.348  0.00  0.00    +0.000 A 
ATOM     16  C   UNL     1       2.116   8.759  17.676  0.00  0.00    +0.000 A 
ATOM     17  C   UNL     1       2.693   7.663  18.324  0.00  0.00    +0.000 A 
ATOM     18  C   UNL     1       2.377   7.407  19.667  0.00  0.00    +0.000 A 
BRANCH  13  20
ATOM     19  C   UNL     1       0.818   9.256  22.388  0.00  0.00    +0.000 C 
ATOM     20  O   UNL     1       1.046   8.071  21.638  0.00  0.00    +0.000 OA
ENDBRANCH  13  20
ENDBRANCH  12  17
ENDBRANCH   1  12
TORSDOF 5
ENDMDL
MODEL 3
REMARK VINA RESULT:      -6.6      3.110      4.961
REMARK  Name = 
REMARK  6 active torsions:
REMARK  status: ('A' for Active; 'I' for Inactive)
REMARK    1  A    between atoms: C_1  and  O_2
REMARK    2  A    between atoms: O_2  and  C_3
REMARK    3  A    between atoms: C_7  and  S_8
REMARK    4  A    between atoms: S_8  and  C_9
REMARK    5  A    between atoms: C_13  and  N_14
REMARK    6  A    between atoms: C_15  and  C_16
REMARK                            x       y       z     vdW  Elec       q    Type
REMARK                         _______ _______ _______ _____ _____    ______ ____
ROOT
ATOM      1  C   UNL     1       3.393   4.939  18.080  0.00  0.00    +0.000 A 
ATOM      2  C   UNL     1       2.141   4.384  17.777  0.00  0.00    +0.000 A 
ATOM      3  C   UNL     1       1.801   3.112  18.230  0.00  0.00    +0.000 A 
ATOM      4  C   UNL     1       2.706   2.381  18.996  0.00  0.00    +0.000 A 
ATOM      5  C   UNL     1       3.945   2.925  19.367  0.00  0.00    +0.000 A 
ATOM      6  C   UNL     1       4.298   4.205  18.876  0.00  0.00    +0.000 A 
ENDROOT
BRANCH   5   7
ATOM      7  N   UNL     1       4.859   2.079  20.022  0.00  0.00    +0.000 N 
ATOM      8  H   UNL     1       5.134   1.258  19.490  0.00  0.00    +0.000 HD
ATOM      9  H   UNL     1       4.646   1.851  20.990  0.00  0.00    +0.000 HD
ENDBRANCH   5   7
BRANCH   6  10
ATOM     10  C   UNL     1       5.572   4.765  19.239  0.00  0.00    +0.000 C 
ATOM     11  N   UNL     1       6.578   5.244  19.561  0.00  0.00    +0.000 NA
ENDBRANCH   6  10
BRANCH   1  12
ATOM     12  S   UNL     1       3.713   6.602  17.475  0.00  0.00    +0.000 S 
BRANCH  12  17
ATOM     13  C   UNL     1       1.159   9.469  18.859  0.00  0.00    +0.000 A 
ATOM     14  C   UNL     1       0.921   9.036  20.165  0.00  0.00    +0.000 A 
ATOM     15  C   UNL     1       1.517   7.872  20.646  0.00  0.00    +0.000 A 
ATOM     16  C   UNL     1       2.371   7.139  19.824  0.00  0.00    +0.000 A 
ATOM     17  C   UNL     1       2.636   7.570  18.522  0.00  0.00    +0.000 A 
ATOM     18  C   UNL     1       2.010   8.728  18.034  0.00  0.00    +0.000 A 
BRANCH  13  20
ATOM     19  C   UNL     1      -0.454  11.121  19.444  0.00  0.00    +0.000 C 
ATOM     20  O   UNL     1       0.503  10.622  18.521  0.00  0.00    +0.000 OA
ENDBRANCH  13  20
ENDBRANCH  12  17
ENDBRANCH   1  12
TORSDOF 5
ENDMDL
MODEL 4
REMARK VINA RESULT:      -6.5      2.361      3.522
REMARK  Name = 
REMARK  6 active torsions:
REMARK  status: ('A' for Active; 'I' for Inactive)
REMARK    1  A    between atoms: C_1  and  O_2
REMARK    2  A    between atoms: O_2  and  C_3
REMARK    3  A    between atoms: C_7  and  S_8
REMARK    4  A    between atoms: S_8  and  C_9
REMARK    5  A    between atoms: C_13  and  N_14
REMARK    6  A    between atoms: C_15  and  C_16
REMARK                            x       y       z     vdW  Elec       q    Type
REMARK                         _______ _______ _______ _____ _____    ______ ____
ROOT
ATOM      1  C   UNL     1       2.746   4.510  18.258  0.00  0.00    +0.000 A 
ATOM      2  C   UNL     1       2.899   3.388  17.430  0.00  0.00    +0.000 A 
ATOM      3  C   UNL     1       2.337   2.164  17.783  0.00  0.00    +0.000 A 
ATOM      4  C   UNL     1       1.609   2.048  18.966  0.00  0.00    +0.000 A 
ATOM      5  C   UNL     1       1.386   3.161  19.790  0.00  0.00    +0.000 A 
ATOM      6  C   UNL     1       1.988   4.393  19.443  0.00  0.00    +0.000 A 
ENDROOT
BRANCH   5   7
ATOM      7  N   UNL     1       0.764   2.938  21.033  0.00  0.00    +0.000 N 
ATOM      8  H   UNL     1       0.185   2.103  21.075  0.00  0.00    +0.000 HD
ATOM      9  H   UNL     1       0.302   3.742  21.454  0.00  0.00    +0.000 HD
ENDBRANCH   5   7
BRANCH   6  10
ATOM     10  C   UNL     1       1.778   5.536  20.290  0.00  0.00    +0.000 C 
ATOM     11  N   UNL     1       1.609   6.432  21.008  0.00  0.00    +0.000 NA
ENDBRANCH   6  10
BRANCH   1  12
ATOM     12  S   UNL     1       3.483   6.048  17.688  0.00  0.00    +0.000 S 
BRANCH  12  17
ATOM     13  C   UNL     1       6.598   4.925  15.300  0.00  0.00    +0.000 A 
ATOM     14  C   UNL     1       7.591   4.640  16.240  0.00  0.00    +0.000 A 
ATOM     15  C   UNL     1       7.343   4.788  17.603  0.00  0.00    +0.000 A 
ATOM     16  C   UNL     1       6.088   5.212  18.037  0.00  0.00    +0.000 A 
ATOM     17  C   UNL     1       5.077   5.481  17.111  0.00  0.00    +0.000 A 
ATOM     18  C   UNL     1       5.342   5.357  15.738  0.00  0.00    +0.000 A 
BRANCH  13  20
ATOM     19  C   UNL     1       6.243   3.807  13.227  0.00  0.00    +0.000 C 
ATOM     20  O   UNL     1       6.984   4.741  14.000  0.00  0.00    +0.000 OA
ENDBRANCH  13  20
ENDBRANCH  12  17
ENDBRANCH   1  12
TORSDOF 5
ENDMDL
MODEL 5
REMARK VINA RESULT:      -6.4      3.090      5.620
REMARK  Name = 
REMARK  6 active torsions:
REMARK  status: ('A' for Active; 'I' for Inactive)
REMARK    1  A    between atoms: C_1  and  O_2
REMARK    2  A    between atoms: O_2  and  C_3
REMARK    3  A    between atoms: C_7  and  S_8
REMARK    4  A    between atoms: S_8  and  C_9
REMARK    5  A    between atoms: C_13  and  N_14
REMARK    6  A    between atoms: C_15  and  C_16
REMARK                            x       y       z     vdW  Elec       q    Type
REMARK                         _______ _______ _______ _____ _____    ______ ____
ROOT
ATOM      1  C   UNL     1       5.306   4.089  17.769  0.00  0.00    +0.000 A 
ATOM      2  C   UNL     1       4.687   3.815  16.541  0.00  0.00    +0.000 A 
ATOM      3  C   UNL     1       5.072   4.490  15.386  0.00  0.00    +0.000 A 
ATOM      4  C   UNL     1       6.086   5.445  15.444  0.00  0.00    +0.000 A 
ATOM      5  C   UNL     1       6.767   5.705  16.642  0.00  0.00    +0.000 A 
ATOM      6  C   UNL     1       6.348   5.040  17.819  0.00  0.00    +0.000 A 
ENDROOT
BRANCH   5   7
ATOM      7  N   UNL     1       7.679   6.777  16.654  0.00  0.00    +0.000 N 
ATOM      8  H   UNL     1       8.284   6.829  15.839  0.00  0.00    +0.000 HD
ATOM      9  H   UNL     1       8.195   6.917  17.520  0.00  0.00    +0.000 HD
ENDBRANCH   5   7
BRANCH   6  10
ATOM     10  C   UNL     1       7.030   5.311  19.055  0.00  0.00    +0.000 C 
ATOM     11  N   UNL     1       7.575   5.573  20.045  0.00  0.00    +0.000 NA
ENDBRANCH   6  10
BRANCH   1  12
ATOM     12  S   UNL     1       4.755   3.133  19.189  0.00  0.00    +0.000 S 
BRANCH  12  17
ATOM     13  C   UNL     1       2.210   6.214  20.019  0.00  0.00    +0.000 A 
ATOM     14  C   UNL     1       1.101   5.539  20.533  0.00  0.00    +0.000 A 
ATOM     15  C   UNL     1       1.098   4.149  20.630  0.00  0.00    +0.000 A 
ATOM     16  C   UNL     1       2.216   3.422  20.225  0.00  0.00    +0.000 A 
ATOM     17  C   UNL     1       3.342   4.084  19.727  0.00  0.00    +0.000 A 
ATOM     18  C   UNL     1       3.328   5.482  19.606  0.00  0.00    +0.000 A 
BRANCH  13  20
ATOM     19  C   UNL     1       2.133   8.196  18.700  0.00  0.00    +0.000 C 
ATOM     20  O   UNL     1       2.071   7.574  19.976  0.00  0.00    +0.000 OA
ENDBRANCH  13  20
ENDBRANCH  12  17
ENDBRANCH   1  12
TORSDOF 5
ENDMDL
MODEL 6
REMARK VINA RESULT:      -6.3      1.765      2.437
REMARK  Name = 
REMARK  6 active torsions:
REMARK  status: ('A' for Active; 'I' for Inactive)
REMARK    1  A    between atoms: C_1  and  O_2
REMARK    2  A    between atoms: O_2  and  C_3
REMARK    3  A    between atoms: C_7  and  S_8
REMARK    4  A    between atoms: S_8  and  C_9
REMARK    5  A    between atoms: C_13  and  N_14
REMARK    6  A    between atoms: C_15  and  C_16
REMARK                            x       y       z     vdW  Elec       q    Type
REMARK                         _______ _______ _______ _____ _____    ______ ____
ROOT
ATOM      1  C   UNL     1       3.510   4.476  18.568  0.00  0.00    +0.000 A 
ATOM      2  C   UNL     1       3.403   3.204  19.149  0.00  0.00    +0.000 A 
ATOM      3  C   UNL     1       2.635   3.011  20.295  0.00  0.00    +0.000 A 
ATOM      4  C   UNL     1       1.960   4.086  20.869  0.00  0.00    +0.000 A 
ATOM      5  C   UNL     1       1.997   5.360  20.285  0.00  0.00    +0.000 A 
ATOM      6  C   UNL     1       2.807   5.557  19.141  0.00  0.00    +0.000 A 
ENDROOT
BRANCH   5   7
ATOM      7  N   UNL     1       1.408   6.422  20.996  0.00  0.00    +0.000 N 
ATOM      8  H   UNL     1       0.913   6.146  21.839  0.00  0.00    +0.000 HD
ATOM      9  H   UNL     1       0.875   7.090  20.444  0.00  0.00    +0.000 HD
ENDBRANCH   5   7
BRANCH   6  10
ATOM     10  C   UNL     1       2.863   6.864  18.542  0.00  0.00    +0.000 C 
ATOM     11  N   UNL     1       2.907   7.936  18.100  0.00  0.00    +0.000 NA
ENDBRANCH   6  10
BRANCH   1  12
ATOM     12  S   UNL     1       4.499   4.605  17.071  0.00  0.00    +0.000 S 
BRANCH  12  17
ATOM     13  C   UNL     1       7.368   7.453  17.632  0.00  0.00    +0.000 A 
ATOM     14  C   UNL     1       8.135   6.890  18.654  0.00  0.00    +0.000 A 
ATOM     15  C   UNL     1       7.797   5.651  19.196  0.00  0.00    +0.000 A 
ATOM     16  C   UNL     1       6.692   4.958  18.706  0.00  0.00    +0.000 A 
ATOM     17  C   UNL     1       5.927   5.498  17.669  0.00  0.00    +0.000 A 
ATOM     18  C   UNL     1       6.256   6.759  17.147  0.00  0.00    +0.000 A 
BRANCH  13  20
ATOM     19  C   UNL     1       8.464   9.502  18.156  0.00  0.00    +0.000 C 
ATOM     20  O   UNL     1       7.813   8.674  17.203  0.00  0.00    +0.000 OA
ENDBRANCH  13  20
ENDBRANCH  12  17
ENDBRANCH   1  12
TORSDOF 5
ENDMDL
MODEL 7
REMARK VINA RESULT:      -6.3      3.270      6.151
REMARK  Name = 
REMARK  6 active torsions:
REMARK  status: ('A' for Active; 'I' for Inactive)
REMARK    1  A    between atoms: C_1  and  O_2
REMARK    2  A    between atoms: O_2  and  C_3
REMARK    3  A    between atoms: C_7  and  S_8
REMARK    4  A    between atoms: S_8  and  C_9
REMARK    5  A    between atoms: C_13  and  N_14
REMARK    6  A    between atoms: C_15  and  C_16
REMARK                            x       y       z     vdW  Elec       q    Type
REMARK                         _______ _______ _______ _____ _____    ______ ____
ROOT
ATOM      1  C   UNL     1       5.106   6.052  16.876  0.00  0.00    +0.000 A 
ATOM      2  C   UNL     1       4.937   6.007  15.485  0.00  0.00    +0.000 A 
ATOM      3  C   UNL     1       5.846   5.322  14.682  0.00  0.00    +0.000 A 
ATOM      4  C   UNL     1       6.932   4.669  15.262  0.00  0.00    +0.000 A 
ATOM      5  C   UNL     1       7.102   4.645  16.654  0.00  0.00    +0.000 A 
ATOM      6  C   UNL     1       6.194   5.370  17.461  0.00  0.00    +0.000 A 
ENDROOT
BRANCH   5   7
ATOM      7  N   UNL     1       8.293   4.087  17.156  0.00  0.00    +0.000 N 
ATOM      8  H   UNL     1       8.252   3.806  18.132  0.00  0.00    +0.000 HD
ATOM      9  H   UNL     1       9.150   4.591  16.941  0.00  0.00    +0.000 HD
ENDBRANCH   5   7
BRANCH   6  10
ATOM     10  C   UNL     1       6.369   5.363  18.889  0.00  0.00    +0.000 C 
ATOM     11  N   UNL     1       6.467   5.368  20.045  0.00  0.00    +0.000 NA
ENDBRANCH   6  10
BRANCH   1  12
ATOM     12  S   UNL     1       3.853   6.933  17.819  0.00  0.00    +0.000 S 
BRANCH  12  17
ATOM     13  C   UNL     1       2.083   4.265  20.351  0.00  0.00    +0.000 A 
ATOM     14  C   UNL     1       1.332   3.487  19.468  0.00  0.00    +0.000 A 
ATOM     15  C   UNL     1       1.339   3.757  18.101  0.00  0.00    +0.000 A 
ATOM     16  C   UNL     1       2.113   4.804  17.604  0.00  0.00    +0.000 A 
ATOM     17  C   UNL     1       2.887   5.579  18.473  0.00  0.00    +0.000 A 
ATOM     18  C   UNL     1       2.854   5.320  19.851  0.00  0.00    +0.000 A 
BRANCH  13  20
ATOM     19  C   UNL     1       1.767   2.510  21.930  0.00  0.00    +0.000 C 
ATOM     20  O   UNL     1       1.976   3.890  21.662  0.00  0.00    +0.000 OA
ENDBRANCH  13  20
ENDBRANCH  12  17
ENDBRANCH   1  12
TORSDOF 5
ENDMDL
MODEL 8
REMARK VINA RESULT:      -6.2      2.339      3.017
REMARK  Name = 
REMARK  6 active torsions:
REMARK  status: ('A' for Active; 'I' for Inactive)
REMARK    1  A    between atoms: C_1  and  O_2
REMARK    2  A    between atoms: O_2  and  C_3
REMARK    3  A    between atoms: C_7  and  S_8
REMARK    4  A    between atoms: S_8  and  C_9
REMARK    5  A    between atoms: C_13  and  N_14
REMARK    6  A    between atoms: C_15  and  C_16
REMARK                            x       y       z     vdW  Elec       q    Type
REMARK                         _______ _______ _______ _____ _____    ______ ____
ROOT
ATOM      1  C   UNL     1       4.254   4.863  19.469  0.00  0.00    +0.000 A 
ATOM      2  C   UNL     1       3.459   6.009  19.324  0.00  0.00    +0.000 A 
ATOM      3  C   UNL     1       2.100   5.971  19.625  0.00  0.00    +0.000 A 
ATOM      4  C   UNL     1       1.521   4.789  20.081  0.00  0.00    +0.000 A 
ATOM      5  C   UNL     1       2.294   3.638  20.292  0.00  0.00    +0.000 A 
ATOM      6  C   UNL     1       3.668   3.673  19.952  0.00  0.00    +0.000 A 
ENDROOT
BRANCH   5   7
ATOM      7  N   UNL     1       1.618   2.448  20.618  0.00  0.00    +0.000 N 
ATOM      8  H   UNL     1       1.876   2.045  21.515  0.00  0.00    +0.000 HD
ATOM      9  H   UNL     1       1.570   1.744  19.885  0.00  0.00    +0.000 HD
ENDBRANCH   5   7
BRANCH   6  10
ATOM     10  C   UNL     1       4.467   2.494  20.152  0.00  0.00    +0.000 C 
ATOM     11  N   UNL     1       5.078   1.526  20.337  0.00  0.00    +0.000 NA
ENDBRANCH   6  10
BRANCH   1  12
ATOM     12  S   UNL     1       6.003   5.033  19.087  0.00  0.00    +0.000 S 
BRANCH  12  17
ATOM     13  C   UNL     1       7.034   5.053  15.137  0.00  0.00    +0.000 A 
ATOM     14  C   UNL     1       6.002   4.305  14.567  0.00  0.00    +0.000 A 
ATOM     15  C   UNL     1       4.986   3.776  15.361  0.00  0.00    +0.000 A 
ATOM     16  C   UNL     1       4.989   4.007  16.736  0.00  0.00    +0.000 A 
ATOM     17  C   UNL     1       6.004   4.771  17.319  0.00  0.00    +0.000 A 
ATOM     18  C   UNL     1       7.039   5.277  16.518  0.00  0.00    +0.000 A 
BRANCH  13  20
ATOM     19  C   UNL     1       7.783   5.142  12.878  0.00  0.00    +0.000 C 
ATOM     20  O   UNL     1       7.964   5.503  14.240  0.00  0.00    +0.000 OA
ENDBRANCH  13  20
ENDBRANCH  12  17
ENDBRANCH   1  12
TORSDOF 5
ENDMDL
MODEL 9
REMARK VINA RESULT:      -6.2      2.551      3.579
REMARK  Name = 
REMARK  6 active torsions:
REMARK  status: ('A' for Active; 'I' for Inactive)
REMARK    1  A    between atoms: C_1  and  O_2
REMARK    2  A    between atoms: O_2  and  C_3
REMARK    3  A    between atoms: C_7  and  S_8
REMARK    4  A    between atoms: S_8  and  C_9
REMARK    5  A    between atoms: C_13  and  N_14
REMARK    6  A    between atoms: C_15  and  C_16
REMARK                            x       y       z     vdW  Elec       q    Type
REMARK                         _______ _______ _______ _____ _____    ______ ____
ROOT
ATOM      1  C   UNL     1       2.591   5.685  18.485  0.00  0.00    +0.000 A 
ATOM      2  C   UNL     1       2.679   6.735  17.559  0.00  0.00    +0.000 A 
ATOM      3  C   UNL     1       2.394   8.043  17.942  0.00  0.00    +0.000 A 
ATOM      4  C   UNL     1       2.023   8.318  19.257  0.00  0.00    +0.000 A 
ATOM      5  C   UNL     1       1.979   7.303  20.224  0.00  0.00    +0.000 A 
ATOM      6  C   UNL     1       2.238   5.971  19.821  0.00  0.00    +0.000 A 
ENDROOT
BRANCH   5   7
ATOM      7  N   UNL     1       1.464   7.631  21.491  0.00  0.00    +0.000 N 
ATOM      8  H   UNL     1       1.129   6.838  22.032  0.00  0.00    +0.000 HD
ATOM      9  H   UNL     1       0.814   8.414  21.523  0.00  0.00    +0.000 HD
ENDBRANCH   5   7
BRANCH   6  10
ATOM     10  C   UNL     1       2.181   4.921  20.802  0.00  0.00    +0.000 C 
ATOM     11  N   UNL     1       2.120   4.046  21.562  0.00  0.00    +0.000 NA
ENDBRANCH   6  10
BRANCH   1  12
ATOM     12  S   UNL     1       3.016   4.041  17.892  0.00  0.00    +0.000 S 
BRANCH  12  17
ATOM     13  C   UNL     1       6.468   4.357  15.736  0.00  0.00    +0.000 A 
ATOM     14  C   UNL     1       7.399   4.669  16.729  0.00  0.00    +0.000 A 
ATOM     15  C   UNL     1       7.003   4.798  18.059  0.00  0.00    +0.000 A 
ATOM     16  C   UNL     1       5.668   4.600  18.407  0.00  0.00    +0.000 A 
ATOM     17  C   UNL     1       4.728   4.266  17.429  0.00  0.00    +0.000 A 
ATOM     18  C   UNL     1       5.128   4.165  16.087  0.00  0.00    +0.000 A 
BRANCH  13  20
ATOM     19  C   UNL     1       6.137   3.818  13.440  0.00  0.00    +0.000 C 
ATOM     20  O   UNL     1       6.997   4.269  14.477  0.00  0.00    +0.000 OA
ENDBRANCH  13  20
ENDBRANCH  12  17
ENDBRANCH   1  12
TORSDOF 5
ENDMDL
