MODEL 1
REMARK VINA RESULT:      -6.1      0.000      0.000
REMARK  Name = 
REMARK  22 active torsions:
REMARK  status: ('A' for Active; 'I' for Inactive)
REMARK    1  A    between atoms: C_1  and  O_2
REMARK    2  A    between atoms: O_2  and  C_3
REMARK    3  A    between atoms: C_5  and  C_6
REMARK    4  A    between atoms: C_7  and  C_8
REMARK    5  A    between atoms: C_8  and  O_10
REMARK    6  A    between atoms: O_10  and  C_11
REMARK    7  A    between atoms: C_11  and  C_12
REMARK    8  A    between atoms: C_12  and  C_13
REMARK    9  A    between atoms: C_13  and  C_14
REMARK   10  A    between atoms: C_14  and  C_15
REMARK   11  A    between atoms: C_15  and  C_16
REMARK   12  A    between atoms: C_16  and  O_17
REMARK   13  A    between atoms: O_17  and  N_18
REMARK   14  A    between atoms: C_23  and  O_24
REMARK   15  A    between atoms: O_24  and  C_25
REMARK   16  A    between atoms: C_25  and  C_26
REMARK   17  A    between atoms: C_26  and  C_27
REMARK   18  A    between atoms: C_27  and  C_28
REMARK   19  A    between atoms: C_28  and  C_29
REMARK   20  A    between atoms: C_29  and  C_30
REMARK   21  A    between atoms: C_30  and  O_31
REMARK   22  A    between atoms: O_31  and  N_32
REMARK                            x       y       z     vdW  Elec       q    Type
REMARK                         _______ _______ _______ _____ _____    ______ ____
ROOT
ATOM      1  C   UNL     1       1.068   8.868  20.573  0.00  0.00    +0.000 A 
ATOM      2  C   UNL     1       1.283   7.538  20.955  0.00  0.00    +0.000 A 
ATOM      3  C   UNL     1       1.891   6.600  20.121  0.00  0.00    +0.000 A 
ATOM      4  C   UNL     1       2.297   7.011  18.850  0.00  0.00    +0.000 A 
ATOM      5  C   UNL     1       2.103   8.338  18.441  0.00  0.00    +0.000 A 
ATOM      6  C   UNL     1       1.527   9.285  19.300  0.00  0.00    +0.000 A 
ENDROOT
BRANCH   3   7
ATOM      7  C   UNL     1       2.203   5.248  20.618  0.00  0.00    +0.000 C 
ATOM      8  C   UNL     1       1.320   4.241  20.721  0.00  0.00    +0.000 C 
BRANCH   8   9
ATOM      9  C   UNL     1       1.760   2.911  21.191  0.00  0.00    +0.000 C 
ATOM     10  O   UNL     1       1.427   2.395  22.244  0.00  0.00    +0.000 OA
BRANCH   9  11
ATOM     11  O   UNL     1       2.692   2.447  20.320  0.00  0.00    +0.000 OA
BRANCH  11  12
ATOM     12  C   UNL     1       2.154   1.939  19.089  0.00  0.00    +0.000 C 
BRANCH  12  13
ATOM     13  C   UNL     1       3.049   2.150  17.870  0.00  0.00    +0.000 C 
BRANCH  13  14
ATOM     14  C   UNL     1       2.715   3.467  17.166  0.00  0.00    +0.000 C 
BRANCH  14  15
ATOM     15  C   UNL     1       3.941   4.380  17.051  0.00  0.00    +0.000 C 
BRANCH  15  16
ATOM     16  C   UNL     1       4.922   4.134  18.194  0.00  0.00    +0.000 C 
BRANCH  16  17
ATOM     17  C   UNL     1       6.325   4.641  17.873  0.00  0.00    +0.000 C 
BRANCH  17  18
ATOM     18  O   UNL     1       6.234   6.037  17.644  0.00  0.00    +0.000 OA
BRANCH  18  19
ATOM     19  N   UNL     1       7.484   6.685  17.753  0.00  0.00    +0.000 N 
ATOM     20  O   UNL     1       8.089   6.570  18.816  0.00  0.00    +0.000 OA
ATOM     21  O   UNL     1       7.807   7.297  16.720  0.00  0.00    +0.000 OA
ENDBRANCH  18  19
ENDBRANCH  17  18
ENDBRANCH  16  17
ENDBRANCH  15  16
ENDBRANCH  14  15
ENDBRANCH  13  14
ENDBRANCH  12  13
ENDBRANCH  11  12
ENDBRANCH   9  11
ENDBRANCH   8   9
ENDBRANCH   3   7
BRANCH   1  23
ATOM     22  C   UNL     1      -0.176   9.282  22.611  0.00  0.00    +0.000 C 
ATOM     23  O   UNL     1       0.473   9.758  21.426  0.00  0.00    +0.000 OA
ENDBRANCH   1  23
BRANCH   6  24
ATOM     24  O   UNL     1       1.469  10.553  18.745  0.00  0.00    +0.000 OA
BRANCH  24  25
ATOM     25  C   UNL     1       0.145  11.050  18.590  0.00  0.00    +0.000 C 
BRANCH  25  26
ATOM     26  C   UNL     1       0.070  12.579  18.611  0.00  0.00    +0.000 C 
BRANCH  26  27
ATOM     27  C   UNL     1       1.078  13.080  19.654  0.00  0.00    +0.000 C 
BRANCH  27  28
ATOM     28  C   UNL     1       0.507  13.100  21.063  0.00  0.00    +0.000 C 
BRANCH  28  29
ATOM     29  C   UNL     1      -0.978  13.470  21.066  0.00  0.00    +0.000 C 
BRANCH  29  30
ATOM     30  C   UNL     1      -1.709  12.705  22.165  0.00  0.00    +0.000 C 
BRANCH  30  31
ATOM     31  O   UNL     1      -1.065  12.966  23.407  0.00  0.00    +0.000 OA
BRANCH  31  32
ATOM     32  N   UNL     1      -1.538  14.155  24.015  0.00  0.00    +0.000 N 
ATOM     33  O   UNL     1      -2.749  14.244  24.219  0.00  0.00    +0.000 OA
ATOM     34  O   UNL     1      -0.639  14.954  24.264  0.00  0.00    +0.000 OA
ENDBRANCH  31  32
ENDBRANCH  30  31
ENDBRANCH  29  30
ENDBRANCH  28  29
ENDBRANCH  27  28
ENDBRANCH  26  27
ENDBRANCH  25  26
ENDBRANCH  24  25
ENDBRANCH   6  24
TORSDOF 21
ENDMDL
MODEL 2
REMARK VINA RESULT:      -5.9      3.099      3.540
REMARK  Name = 
REMARK  22 active torsions:
REMARK  status: ('A' for Active; 'I' for Inactive)
REMARK    1  A    between atoms: C_1  and  O_2
REMARK    2  A    between atoms: O_2  and  C_3
REMARK    3  A    between atoms: C_5  and  C_6
REMARK    4  A    between atoms: C_7  and  C_8
REMARK    5  A    between atoms: C_8  and  O_10
REMARK    6  A    between atoms: O_10  and  C_11
REMARK    7  A    between atoms: C_11  and  C_12
REMARK    8  A    between atoms: C_12  and  C_13
REMARK    9  A    between atoms: C_13  and  C_14
REMARK   10  A    between atoms: C_14  and  C_15
REMARK   11  A    between atoms: C_15  and  C_16
REMARK   12  A    between atoms: C_16  and  O_17
REMARK   13  A    between atoms: O_17  and  N_18
REMARK   14  A    between atoms: C_23  and  O_24
REMARK   15  A    between atoms: O_24  and  C_25
REMARK   16  A    between atoms: C_25  and  C_26
REMARK   17  A    between atoms: C_26  and  C_27
REMARK   18  A    between atoms: C_27  and  C_28
REMARK   19  A    between atoms: C_28  and  C_29
REMARK   20  A    between atoms: C_29  and  C_30
REMARK   21  A    between atoms: C_30  and  O_31
REMARK   22  A    between atoms: O_31  and  N_32
REMARK                            x       y       z     vdW  Elec       q    Type
REMARK                         _______ _______ _______ _____ _____    ______ ____
ROOT
ATOM      1  C   UNL     1       0.885   9.369  20.829  0.00  0.00    +0.000 A 
ATOM      2  C   UNL     1       1.125   8.029  21.158  0.00  0.00    +0.000 A 
ATOM      3  C   UNL     1       1.674   7.116  20.257  0.00  0.00    +0.000 A 
ATOM      4  C   UNL     1       1.992   7.563  18.974  0.00  0.00    +0.000 A 
ATOM      5  C   UNL     1       1.771   8.901  18.617  0.00  0.00    +0.000 A 
ATOM      6  C   UNL     1       1.256   9.823  19.540  0.00  0.00    +0.000 A 
ENDROOT
BRANCH   3   7
ATOM      7  C   UNL     1       2.019   5.751  20.693  0.00  0.00    +0.000 C 
ATOM      8  C   UNL     1       1.256   4.662  20.497  0.00  0.00    +0.000 C 
BRANCH   8   9
ATOM      9  C   UNL     1       1.728   3.334  20.939  0.00  0.00    +0.000 C 
ATOM     10  O   UNL     1       1.079   2.545  21.604  0.00  0.00    +0.000 OA
BRANCH   9  11
ATOM     11  O   UNL     1       3.037   3.220  20.595  0.00  0.00    +0.000 OA
BRANCH  11  12
ATOM     12  C   UNL     1       3.266   2.563  19.339  0.00  0.00    +0.000 C 
BRANCH  12  13
ATOM     13  C   UNL     1       4.019   3.404  18.311  0.00  0.00    +0.000 C 
BRANCH  13  14
ATOM     14  C   UNL     1       5.285   4.011  18.921  0.00  0.00    +0.000 C 
BRANCH  14  15
ATOM     15  C   UNL     1       5.223   5.543  18.955  0.00  0.00    +0.000 C 
BRANCH  15  16
ATOM     16  C   UNL     1       5.077   6.122  17.551  0.00  0.00    +0.000 C 
BRANCH  16  17
ATOM     17  C   UNL     1       6.422   6.499  16.936  0.00  0.00    +0.000 C 
BRANCH  17  18
ATOM     18  O   UNL     1       6.463   5.953  15.628  0.00  0.00    +0.000 OA
BRANCH  18  19
ATOM     19  N   UNL     1       6.968   4.634  15.609  0.00  0.00    +0.000 N 
ATOM     20  O   UNL     1       6.458   3.845  14.817  0.00  0.00    +0.000 OA
ATOM     21  O   UNL     1       7.891   4.455  16.422  0.00  0.00    +0.000 OA
ENDBRANCH  18  19
ENDBRANCH  17  18
ENDBRANCH  16  17
ENDBRANCH  15  16
ENDBRANCH  14  15
ENDBRANCH  13  14
ENDBRANCH  12  13
ENDBRANCH  11  12
ENDBRANCH   9  11
ENDBRANCH   8   9
ENDBRANCH   3   7
BRANCH   1  23
ATOM     22  C   UNL     1      -0.367   9.719  22.875  0.00  0.00    +0.000 C 
ATOM     23  O   UNL     1       0.349  10.233  21.746  0.00  0.00    +0.000 OA
ENDBRANCH   1  23
BRANCH   6  24
ATOM     24  O   UNL     1       1.160  11.105  19.026  0.00  0.00    +0.000 OA
BRANCH  24  25
ATOM     25  C   UNL     1       2.167  11.416  18.071  0.00  0.00    +0.000 C 
BRANCH  25  26
ATOM     26  C   UNL     1       2.606  12.882  18.115  0.00  0.00    +0.000 C 
BRANCH  26  27
ATOM     27  C   UNL     1       1.698  13.610  19.115  0.00  0.00    +0.000 C 
BRANCH  27  28
ATOM     28  C   UNL     1       2.423  14.704  19.883  0.00  0.00    +0.000 C 
BRANCH  28  29
ATOM     29  C   UNL     1       1.649  16.024  19.851  0.00  0.00    +0.000 C 
BRANCH  29  30
ATOM     30  C   UNL     1       1.781  16.680  18.480  0.00  0.00    +0.000 C 
BRANCH  30  31
ATOM     31  O   UNL     1       1.094  17.926  18.505  0.00  0.00    +0.000 OA
BRANCH  31  32
ATOM     32  N   UNL     1       0.345  18.148  17.323  0.00  0.00    +0.000 N 
ATOM     33  O   UNL     1       0.943  18.609  16.352  0.00  0.00    +0.000 OA
ATOM     34  O   UNL     1      -0.837  17.833  17.442  0.00  0.00    +0.000 OA
ENDBRANCH  31  32
ENDBRANCH  30  31
ENDBRANCH  29  30
ENDBRANCH  28  29
ENDBRANCH  27  28
ENDBRANCH  26  27
ENDBRANCH  25  26
ENDBRANCH  24  25
ENDBRANCH   6  24
TORSDOF 21
ENDMDL
MODEL 3
REMARK VINA RESULT:      -5.8      1.461      1.852
REMARK  Name = 
REMARK  22 active torsions:
REMARK  status: ('A' for Active; 'I' for Inactive)
REMARK    1  A    between atoms: C_1  and  O_2
REMARK    2  A    between atoms: O_2  and  C_3
REMARK    3  A    between atoms: C_5  and  C_6
REMARK    4  A    between atoms: C_7  and  C_8
REMARK    5  A    between atoms: C_8  and  O_10
REMARK    6  A    between atoms: O_10  and  C_11
REMARK    7  A    between atoms: C_11  and  C_12
REMARK    8  A    between atoms: C_12  and  C_13
REMARK    9  A    between atoms: C_13  and  C_14
REMARK   10  A    between atoms: C_14  and  C_15
REMARK   11  A    between atoms: C_15  and  C_16
REMARK   12  A    between atoms: C_16  and  O_17
REMARK   13  A    between atoms: O_17  and  N_18
REMARK   14  A    between atoms: C_23  and  O_24
REMARK   15  A    between atoms: O_24  and  C_25
REMARK   16  A    between atoms: C_25  and  C_26
REMARK   17  A    between atoms: C_26  and  C_27
REMARK   18  A    between atoms: C_27  and  C_28
REMARK   19  A    between atoms: C_28  and  C_29
REMARK   20  A    between atoms: C_29  and  C_30
REMARK   21  A    between atoms: C_30  and  O_31
REMARK   22  A    between atoms: O_31  and  N_32
REMARK                            x       y       z     vdW  Elec       q    Type
REMARK                         _______ _______ _______ _____ _____    ______ ____
ROOT
ATOM      1  C   UNL     1       0.462   8.749  20.831  0.00  0.00    +0.000 A 
ATOM      2  C   UNL     1       0.711   7.402  21.124  0.00  0.00    +0.000 A 
ATOM      3  C   UNL     1       1.583   6.613  20.374  0.00  0.00    +0.000 A 
ATOM      4  C   UNL     1       2.229   7.197  19.283  0.00  0.00    +0.000 A 
ATOM      5  C   UNL     1       2.007   8.545  18.968  0.00  0.00    +0.000 A 
ATOM      6  C   UNL     1       1.159   9.342  19.752  0.00  0.00    +0.000 A 
ENDROOT
BRANCH   3   7
ATOM      7  C   UNL     1       1.902   5.239  20.799  0.00  0.00    +0.000 C 
ATOM      8  C   UNL     1       1.141   4.158  20.553  0.00  0.00    +0.000 C 
BRANCH   8   9
ATOM      9  C   UNL     1       1.587   2.820  20.990  0.00  0.00    +0.000 C 
ATOM     10  O   UNL     1       1.917   2.528  22.127  0.00  0.00    +0.000 OA
BRANCH   9  11
ATOM     11  O   UNL     1       1.694   2.034  19.888  0.00  0.00    +0.000 OA
BRANCH  11  12
ATOM     12  C   UNL     1       1.202   2.635  18.680  0.00  0.00    +0.000 C 
BRANCH  12  13
ATOM     13  C   UNL     1       2.286   3.027  17.679  0.00  0.00    +0.000 C 
BRANCH  13  14
ATOM     14  C   UNL     1       3.640   2.435  18.077  0.00  0.00    +0.000 C 
BRANCH  14  15
ATOM     15  C   UNL     1       4.506   3.449  18.833  0.00  0.00    +0.000 C 
BRANCH  15  16
ATOM     16  C   UNL     1       5.058   4.516  17.892  0.00  0.00    +0.000 C 
BRANCH  16  17
ATOM     17  C   UNL     1       6.063   5.434  18.582  0.00  0.00    +0.000 C 
BRANCH  17  18
ATOM     18  O   UNL     1       7.277   5.364  17.852  0.00  0.00    +0.000 OA
BRANCH  18  19
ATOM     19  N   UNL     1       7.285   6.225  16.733  0.00  0.00    +0.000 N 
ATOM     20  O   UNL     1       7.517   5.724  15.636  0.00  0.00    +0.000 OA
ATOM     21  O   UNL     1       7.045   7.408  17.028  0.00  0.00    +0.000 OA
ENDBRANCH  18  19
ENDBRANCH  17  18
ENDBRANCH  16  17
ENDBRANCH  15  16
ENDBRANCH  14  15
ENDBRANCH  13  14
ENDBRANCH  12  13
ENDBRANCH  11  12
ENDBRANCH   9  11
ENDBRANCH   8   9
ENDBRANCH   3   7
BRANCH   1  23
ATOM     22  C   UNL     1       0.096  10.192  22.744  0.00  0.00    +0.000 C 
ATOM     23  O   UNL     1      -0.398   9.489  21.597  0.00  0.00    +0.000 OA
ENDBRANCH   1  23
BRANCH   6  24
ATOM     24  O   UNL     1       1.108  10.658  19.322  0.00  0.00    +0.000 OA
BRANCH  24  25
ATOM     25  C   UNL     1      -0.095  10.991  18.639  0.00  0.00    +0.000 C 
BRANCH  25  26
ATOM     26  C   UNL     1      -0.636  12.374  19.012  0.00  0.00    +0.000 C 
BRANCH  26  27
ATOM     27  C   UNL     1      -2.090  12.197  19.471  0.00  0.00    +0.000 C 
BRANCH  27  28
ATOM     28  C   UNL     1      -2.281  12.492  20.951  0.00  0.00    +0.000 C 
BRANCH  28  29
ATOM     29  C   UNL     1      -2.590  13.970  21.197  0.00  0.00    +0.000 C 
BRANCH  29  30
ATOM     30  C   UNL     1      -3.520  14.121  22.397  0.00  0.00    +0.000 C 
BRANCH  30  31
ATOM     31  O   UNL     1      -3.409  12.957  23.208  0.00  0.00    +0.000 OA
BRANCH  31  32
ATOM     32  N   UNL     1      -4.673  12.467  23.618  0.00  0.00    +0.000 N 
ATOM     33  O   UNL     1      -5.599  12.542  22.809  0.00  0.00    +0.000 OA
ATOM     34  O   UNL     1      -4.663  12.019  24.762  0.00  0.00    +0.000 OA
ENDBRANCH  31  32
ENDBRANCH  30  31
ENDBRANCH  29  30
ENDBRANCH  28  29
ENDBRANCH  27  28
ENDBRANCH  26  27
ENDBRANCH  25  26
ENDBRANCH  24  25
ENDBRANCH   6  24
TORSDOF 21
ENDMDL
MODEL 4
REMARK VINA RESULT:      -5.7      2.876      4.307
REMARK  Name = 
REMARK  22 active torsions:
REMARK  status: ('A' for Active; 'I' for Inactive)
REMARK    1  A    between atoms: C_1  and  O_2
REMARK    2  A    between atoms: O_2  and  C_3
REMARK    3  A    between atoms: C_5  and  C_6
REMARK    4  A    between atoms: C_7  and  C_8
REMARK    5  A    between atoms: C_8  and  O_10
REMARK    6  A    between atoms: O_10  and  C_11
REMARK    7  A    between atoms: C_11  and  C_12
REMARK    8  A    between atoms: C_12  and  C_13
REMARK    9  A    between atoms: C_13  and  C_14
REMARK   10  A    between atoms: C_14  and  C_15
REMARK   11  A    between atoms: C_15  and  C_16
REMARK   12  A    between atoms: C_16  and  O_17
REMARK   13  A    between atoms: O_17  and  N_18
REMARK   14  A    between atoms: C_23  and  O_24
REMARK   15  A    between atoms: O_24  and  C_25
REMARK   16  A    between atoms: C_25  and  C_26
REMARK   17  A    between atoms: C_26  and  C_27
REMARK   18  A    between atoms: C_27  and  C_28
REMARK   19  A    between atoms: C_28  and  C_29
REMARK   20  A    between atoms: C_29  and  C_30
REMARK   21  A    between atoms: C_30  and  O_31
REMARK   22  A    between atoms: O_31  and  N_32
REMARK                            x       y       z     vdW  Elec       q    Type
REMARK                         _______ _______ _______ _____ _____    ______ ____
ROOT
ATOM      1  C   UNL     1       2.128   8.388  18.740  0.00  0.00    +0.000 A 
ATOM      2  C   UNL     1       2.114   7.042  19.128  0.00  0.00    +0.000 A 
ATOM      3  C   UNL     1       1.499   6.599  20.299  0.00  0.00    +0.000 A 
ATOM      4  C   UNL     1       0.877   7.543  21.116  0.00  0.00    +0.000 A 
ATOM      5  C   UNL     1       0.867   8.897  20.751  0.00  0.00    +0.000 A 
ATOM      6  C   UNL     1       1.453   9.329  19.552  0.00  0.00    +0.000 A 
ENDROOT
BRANCH   3   7
ATOM      7  C   UNL     1       1.408   5.158  20.596  0.00  0.00    +0.000 C 
ATOM      8  C   UNL     1       2.415   4.401  21.065  0.00  0.00    +0.000 C 
BRANCH   8   9
ATOM      9  C   UNL     1       2.192   2.973  21.371  0.00  0.00    +0.000 C 
ATOM     10  O   UNL     1       1.677   2.547  22.390  0.00  0.00    +0.000 OA
BRANCH   9  11
ATOM     11  O   UNL     1       2.781   2.240  20.392  0.00  0.00    +0.000 OA
BRANCH  11  12
ATOM     12  C   UNL     1       1.881   1.776  19.373  0.00  0.00    +0.000 C 
BRANCH  12  13
ATOM     13  C   UNL     1       1.986   2.524  18.046  0.00  0.00    +0.000 C 
BRANCH  13  14
ATOM     14  C   UNL     1       3.447   2.818  17.697  0.00  0.00    +0.000 C 
BRANCH  14  15
ATOM     15  C   UNL     1       3.627   4.237  17.144  0.00  0.00    +0.000 C 
BRANCH  15  16
ATOM     16  C   UNL     1       4.629   4.259  15.994  0.00  0.00    +0.000 C 
BRANCH  16  17
ATOM     17  C   UNL     1       5.921   4.982  16.365  0.00  0.00    +0.000 C 
BRANCH  17  18
ATOM     18  O   UNL     1       6.683   4.106  17.179  0.00  0.00    +0.000 OA
BRANCH  18  19
ATOM     19  N   UNL     1       7.737   4.769  17.845  0.00  0.00    +0.000 N 
ATOM     20  O   UNL     1       7.541   5.928  18.200  0.00  0.00    +0.000 OA
ATOM     21  O   UNL     1       8.747   4.058  17.985  0.00  0.00    +0.000 OA
ENDBRANCH  18  19
ENDBRANCH  17  18
ENDBRANCH  16  17
ENDBRANCH  15  16
ENDBRANCH  14  15
ENDBRANCH  13  14
ENDBRANCH  12  13
ENDBRANCH  11  12
ENDBRANCH   9  11
ENDBRANCH   8   9
ENDBRANCH   3   7
BRANCH   1  23
ATOM     22  C   UNL     1       3.802   7.989  17.033  0.00  0.00    +0.000 C 
ATOM     23  O   UNL     1       2.739   8.779  17.578  0.00  0.00    +0.000 OA
ENDBRANCH   1  23
BRANCH   6  24
ATOM     24  O   UNL     1       1.295  10.688  19.335  0.00  0.00    +0.000 OA
BRANCH  24  25
ATOM     25  C   UNL     1       0.894  11.411  20.493  0.00  0.00    +0.000 C 
BRANCH  25  26
ATOM     26  C   UNL     1      -0.335  12.293  20.256  0.00  0.00    +0.000 C 
BRANCH  26  27
ATOM     27  C   UNL     1      -0.406  12.597  18.753  0.00  0.00    +0.000 C 
BRANCH  27  28
ATOM     28  C   UNL     1      -1.733  12.191  18.131  0.00  0.00    +0.000 C 
BRANCH  28  29
ATOM     29  C   UNL     1      -1.877  10.670  18.051  0.00  0.00    +0.000 C 
BRANCH  29  30
ATOM     30  C   UNL     1      -2.956  10.295  17.040  0.00  0.00    +0.000 C 
BRANCH  30  31
ATOM     31  O   UNL     1      -2.328   9.755  15.884  0.00  0.00    +0.000 OA
BRANCH  31  32
ATOM     32  N   UNL     1      -3.044  10.049  14.698  0.00  0.00    +0.000 N 
ATOM     33  O   UNL     1      -2.494   9.793  13.626  0.00  0.00    +0.000 OA
ATOM     34  O   UNL     1      -4.152  10.531  14.917  0.00  0.00    +0.000 OA
ENDBRANCH  31  32
ENDBRANCH  30  31
ENDBRANCH  29  30
ENDBRANCH  28  29
ENDBRANCH  27  28
ENDBRANCH  26  27
ENDBRANCH  25  26
ENDBRANCH  24  25
ENDBRANCH   6  24
TORSDOF 21
ENDMDL
MODEL 5
REMARK VINA RESULT:      -5.7      3.446      4.795
REMARK  Name = 
REMARK  22 active torsions:
REMARK  status: ('A' for Active; 'I' for Inactive)
REMARK    1  A    between atoms: C_1  and  O_2
REMARK    2  A    between atoms: O_2  and  C_3
REMARK    3  A    between atoms: C_5  and  C_6
REMARK    4  A    between atoms: C_7  and  C_8
REMARK    5  A    between atoms: C_8  and  O_10
REMARK    6  A    between atoms: O_10  and  C_11
REMARK    7  A    between atoms: C_11  and  C_12
REMARK    8  A    between atoms: C_12  and  C_13
REMARK    9  A    between atoms: C_13  and  C_14
REMARK   10  A    between atoms: C_14  and  C_15
REMARK   11  A    between atoms: C_15  and  C_16
REMARK   12  A    between atoms: C_16  and  O_17
REMARK   13  A    between atoms: O_17  and  N_18
REMARK   14  A    between atoms: C_23  and  O_24
REMARK   15  A    between atoms: O_24  and  C_25
REMARK   16  A    between atoms: C_25  and  C_26
REMARK   17  A    between atoms: C_26  and  C_27
REMARK   18  A    between atoms: C_27  and  C_28
REMARK   19  A    between atoms: C_28  and  C_29
REMARK   20  A    between atoms: C_29  and  C_30
REMARK   21  A    between atoms: C_30  and  O_31
REMARK   22  A    between atoms: O_31  and  N_32
REMARK                            x       y       z     vdW  Elec       q    Type
REMARK                         _______ _______ _______ _____ _____    ______ ____
ROOT
ATOM      1  C   UNL     1       1.342   8.711  20.580  0.00  0.00    +0.000 A 
ATOM      2  C   UNL     1       1.650   7.352  20.431  0.00  0.00    +0.000 A 
ATOM      3  C   UNL     1       2.006   6.788  19.207  0.00  0.00    +0.000 A 
ATOM      4  C   UNL     1       2.053   7.617  18.086  0.00  0.00    +0.000 A 
ATOM      5  C   UNL     1       1.759   8.983  18.203  0.00  0.00    +0.000 A 
ATOM      6  C   UNL     1       1.440   9.551  19.445  0.00  0.00    +0.000 A 
ENDROOT
BRANCH   3   7
ATOM      7  C   UNL     1       2.438   5.381  19.130  0.00  0.00    +0.000 C 
ATOM      8  C   UNL     1       2.894   4.656  20.167  0.00  0.00    +0.000 C 
BRANCH   8   9
ATOM      9  C   UNL     1       3.255   3.236  19.979  0.00  0.00    +0.000 C 
ATOM     10  O   UNL     1       3.548   2.463  20.875  0.00  0.00    +0.000 OA
BRANCH   9  11
ATOM     11  O   UNL     1       3.336   2.999  18.644  0.00  0.00    +0.000 OA
BRANCH  11  12
ATOM     12  C   UNL     1       4.499   3.553  18.012  0.00  0.00    +0.000 C 
BRANCH  12  13
ATOM     13  C   UNL     1       4.397   3.680  16.493  0.00  0.00    +0.000 C 
BRANCH  13  14
ATOM     14  C   UNL     1       5.768   3.963  15.874  0.00  0.00    +0.000 C 
BRANCH  14  15
ATOM     15  C   UNL     1       5.950   5.451  15.550  0.00  0.00    +0.000 C 
BRANCH  15  16
ATOM     16  C   UNL     1       5.372   6.333  16.653  0.00  0.00    +0.000 C 
BRANCH  16  17
ATOM     17  C   UNL     1       6.451   7.119  17.392  0.00  0.00    +0.000 C 
BRANCH  17  18
ATOM     18  O   UNL     1       7.493   6.215  17.718  0.00  0.00    +0.000 OA
BRANCH  18  19
ATOM     19  N   UNL     1       7.339   5.655  19.005  0.00  0.00    +0.000 N 
ATOM     20  O   UNL     1       6.269   5.844  19.579  0.00  0.00    +0.000 OA
ATOM     21  O   UNL     1       8.341   5.026  19.385  0.00  0.00    +0.000 OA
ENDBRANCH  18  19
ENDBRANCH  17  18
ENDBRANCH  16  17
ENDBRANCH  15  16
ENDBRANCH  14  15
ENDBRANCH  13  14
ENDBRANCH  12  13
ENDBRANCH  11  12
ENDBRANCH   9  11
ENDBRANCH   8   9
ENDBRANCH   3   7
BRANCH   1  23
ATOM     22  C   UNL     1      -0.323   9.034  22.311  0.00  0.00    +0.000 C 
ATOM     23  O   UNL     1       1.002   9.226  21.802  0.00  0.00    +0.000 OA
ENDBRANCH   1  23
BRANCH   6  24
ATOM     24  O   UNL     1       1.236  10.919  19.376  0.00  0.00    +0.000 OA
BRANCH  24  25
ATOM     25  C   UNL     1       0.140  11.294  18.549  0.00  0.00    +0.000 C 
BRANCH  25  26
ATOM     26  C   UNL     1      -1.221  10.978  19.175  0.00  0.00    +0.000 C 
BRANCH  26  27
ATOM     27  C   UNL     1      -2.011  10.130  18.168  0.00  0.00    +0.000 C 
BRANCH  27  28
ATOM     28  C   UNL     1      -3.420  10.650  17.936  0.00  0.00    +0.000 C 
BRANCH  28  29
ATOM     29  C   UNL     1      -3.667  10.975  16.462  0.00  0.00    +0.000 C 
BRANCH  29  30
ATOM     30  C   UNL     1      -3.320   9.771  15.591  0.00  0.00    +0.000 C 
BRANCH  30  31
ATOM     31  O   UNL     1      -2.527  10.215  14.496  0.00  0.00    +0.000 OA
BRANCH  31  32
ATOM     32  N   UNL     1      -3.044   9.785  13.250  0.00  0.00    +0.000 N 
ATOM     33  O   UNL     1      -4.269   9.773  13.119  0.00  0.00    +0.000 OA
ATOM     34  O   UNL     1      -2.166   9.476  12.449  0.00  0.00    +0.000 OA
ENDBRANCH  31  32
ENDBRANCH  30  31
ENDBRANCH  29  30
ENDBRANCH  28  29
ENDBRANCH  27  28
ENDBRANCH  26  27
ENDBRANCH  25  26
ENDBRANCH  24  25
ENDBRANCH   6  24
TORSDOF 21
ENDMDL
MODEL 6
REMARK VINA RESULT:      -5.7      4.757     10.465
REMARK  Name = 
REMARK  22 active torsions:
REMARK  status: ('A' for Active; 'I' for Inactive)
REMARK    1  A    between atoms: C_1  and  O_2
REMARK    2  A    between atoms: O_2  and  C_3
REMARK    3  A    between atoms: C_5  and  C_6
REMARK    4  A    between atoms: C_7  and  C_8
REMARK    5  A    between atoms: C_8  and  O_10
REMARK    6  A    between atoms: O_10  and  C_11
REMARK    7  A    between atoms: C_11  and  C_12
REMARK    8  A    between atoms: C_12  and  C_13
REMARK    9  A    between atoms: C_13  and  C_14
REMARK   10  A    between atoms: C_14  and  C_15
REMARK   11  A    between atoms: C_15  and  C_16
REMARK   12  A    between atoms: C_16  and  O_17
REMARK   13  A    between atoms: O_17  and  N_18
REMARK   14  A    between atoms: C_23  and  O_24
REMARK   15  A    between atoms: O_24  and  C_25
REMARK   16  A    between atoms: C_25  and  C_26
REMARK   17  A    between atoms: C_26  and  C_27
REMARK   18  A    between atoms: C_27  and  C_28
REMARK   19  A    between atoms: C_28  and  C_29
REMARK   20  A    between atoms: C_29  and  C_30
REMARK   21  A    between atoms: C_30  and  O_31
REMARK   22  A    between atoms: O_31  and  N_32
REMARK                            x       y       z     vdW  Elec       q    Type
REMARK                         _______ _______ _______ _____ _____    ______ ____
ROOT
ATOM      1  C   UNL     1       6.745   6.707  16.920  0.00  0.00    +0.000 A 
ATOM      2  C   UNL     1       7.416   7.879  17.291  0.00  0.00    +0.000 A 
ATOM      3  C   UNL     1       8.193   7.972  18.445  0.00  0.00    +0.000 A 
ATOM      4  C   UNL     1       8.300   6.847  19.262  0.00  0.00    +0.000 A 
ATOM      5  C   UNL     1       7.648   5.655  18.913  0.00  0.00    +0.000 A 
ATOM      6  C   UNL     1       6.900   5.557  17.731  0.00  0.00    +0.000 A 
ENDROOT
BRANCH   3   7
ATOM      7  C   UNL     1       8.975   9.190  18.723  0.00  0.00    +0.000 C 
ATOM      8  C   UNL     1       8.796  10.377  18.119  0.00  0.00    +0.000 C 
BRANCH   8   9
ATOM      9  C   UNL     1       9.612  11.544  18.514  0.00  0.00    +0.000 C 
ATOM     10  O   UNL     1      10.766  11.740  18.173  0.00  0.00    +0.000 OA
BRANCH   9  11
ATOM     11  O   UNL     1       8.901  12.263  19.420  0.00  0.00    +0.000 OA
BRANCH  11  12
ATOM     12  C   UNL     1       8.853  13.673  19.154  0.00  0.00    +0.000 C 
BRANCH  12  13
ATOM     13  C   UNL     1       8.287  14.041  17.784  0.00  0.00    +0.000 C 
BRANCH  13  14
ATOM     14  C   UNL     1       7.231  15.142  17.906  0.00  0.00    +0.000 C 
BRANCH  14  15
ATOM     15  C   UNL     1       5.808  14.572  17.879  0.00  0.00    +0.000 C 
BRANCH  15  16
ATOM     16  C   UNL     1       4.799  15.576  18.430  0.00  0.00    +0.000 C 
BRANCH  16  17
ATOM     17  C   UNL     1       3.581  15.731  17.523  0.00  0.00    +0.000 C 
BRANCH  17  18
ATOM     18  O   UNL     1       3.299  17.116  17.418  0.00  0.00    +0.000 OA
BRANCH  18  19
ATOM     19  N   UNL     1       1.938  17.410  17.655  0.00  0.00    +0.000 N 
ATOM     20  O   UNL     1       1.288  16.591  18.300  0.00  0.00    +0.000 OA
ATOM     21  O   UNL     1       1.582  18.493  17.162  0.00  0.00    +0.000 OA
ENDBRANCH  18  19
ENDBRANCH  17  18
ENDBRANCH  16  17
ENDBRANCH  15  16
ENDBRANCH  14  15
ENDBRANCH  13  14
ENDBRANCH  12  13
ENDBRANCH  11  12
ENDBRANCH   9  11
ENDBRANCH   8   9
ENDBRANCH   3   7
BRANCH   1  23
ATOM     22  C   UNL     1       4.618   7.044  15.809  0.00  0.00    +0.000 C 
ATOM     23  O   UNL     1       5.996   6.657  15.774  0.00  0.00    +0.000 OA
ENDBRANCH   1  23
BRANCH   6  24
ATOM     24  O   UNL     1       6.377   4.291  17.526  0.00  0.00    +0.000 OA
BRANCH  24  25
ATOM     25  C   UNL     1       5.418   3.903  18.502  0.00  0.00    +0.000 C 
BRANCH  25  26
ATOM     26  C   UNL     1       4.140   4.746  18.458  0.00  0.00    +0.000 C 
BRANCH  26  27
ATOM     27  C   UNL     1       3.099   3.972  17.639  0.00  0.00    +0.000 C 
BRANCH  27  28
ATOM     28  C   UNL     1       3.203   2.466  17.825  0.00  0.00    +0.000 C 
BRANCH  28  29
ATOM     29  C   UNL     1       2.225   1.959  18.886  0.00  0.00    +0.000 C 
BRANCH  29  30
ATOM     30  C   UNL     1       1.105   2.973  19.098  0.00  0.00    +0.000 C 
BRANCH  30  31
ATOM     31  O   UNL     1       0.762   2.989  20.479  0.00  0.00    +0.000 OA
BRANCH  31  32
ATOM     32  N   UNL     1       1.670   3.759  21.247  0.00  0.00    +0.000 N 
ATOM     33  O   UNL     1       2.281   3.182  22.146  0.00  0.00    +0.000 OA
ATOM     34  O   UNL     1       1.720   4.933  20.890  0.00  0.00    +0.000 OA
ENDBRANCH  31  32
ENDBRANCH  30  31
ENDBRANCH  29  30
ENDBRANCH  28  29
ENDBRANCH  27  28
ENDBRANCH  26  27
ENDBRANCH  25  26
ENDBRANCH  24  25
ENDBRANCH   6  24
TORSDOF 21
ENDMDL
MODEL 7
REMARK VINA RESULT:      -5.6      4.791      8.168
REMARK  Name = 
REMARK  22 active torsions:
REMARK  status: ('A' for Active; 'I' for Inactive)
REMARK    1  A    between atoms: C_1  and  O_2
REMARK    2  A    between atoms: O_2  and  C_3
REMARK    3  A    between atoms: C_5  and  C_6
REMARK    4  A    between atoms: C_7  and  C_8
REMARK    5  A    between atoms: C_8  and  O_10
REMARK    6  A    between atoms: O_10  and  C_11
REMARK    7  A    between atoms: C_11  and  C_12
REMARK    8  A    between atoms: C_12  and  C_13
REMARK    9  A    between atoms: C_13  and  C_14
REMARK   10  A    between atoms: C_14  and  C_15
REMARK   11  A    between atoms: C_15  and  C_16
REMARK   12  A    between atoms: C_16  and  O_17
REMARK   13  A    between atoms: O_17  and  N_18
REMARK   14  A    between atoms: C_23  and  O_24
REMARK   15  A    between atoms: O_24  and  C_25
REMARK   16  A    between atoms: C_25  and  C_26
REMARK   17  A    between atoms: C_26  and  C_27
REMARK   18  A    between atoms: C_27  and  C_28
REMARK   19  A    between atoms: C_28  and  C_29
REMARK   20  A    between atoms: C_29  and  C_30
REMARK   21  A    between atoms: C_30  and  O_31
REMARK   22  A    between atoms: O_31  and  N_32
REMARK                            x       y       z     vdW  Elec       q    Type
REMARK                         _______ _______ _______ _____ _____    ______ ____
ROOT
ATOM      1  C   UNL     1       6.800   5.565  16.271  0.00  0.00    +0.000 A 
ATOM      2  C   UNL     1       5.735   4.731  16.632  0.00  0.00    +0.000 A 
ATOM      3  C   UNL     1       5.060   4.849  17.847  0.00  0.00    +0.000 A 
ATOM      4  C   UNL     1       5.473   5.841  18.737  0.00  0.00    +0.000 A 
ATOM      5  C   UNL     1       6.531   6.698  18.401  0.00  0.00    +0.000 A 
ATOM      6  C   UNL     1       7.178   6.598  17.161  0.00  0.00    +0.000 A 
ENDROOT
BRANCH   3   7
ATOM      7  C   UNL     1       3.869   4.027  18.124  0.00  0.00    +0.000 C 
ATOM      8  C   UNL     1       3.673   2.776  17.673  0.00  0.00    +0.000 C 
BRANCH   8   9
ATOM      9  C   UNL     1       2.456   2.030  18.055  0.00  0.00    +0.000 C 
ATOM     10  O   UNL     1       1.432   1.976  17.396  0.00  0.00    +0.000 OA
BRANCH   9  11
ATOM     11  O   UNL     1       2.639   1.549  19.311  0.00  0.00    +0.000 OA
BRANCH  11  12
ATOM     12  C   UNL     1       2.511   2.533  20.349  0.00  0.00    +0.000 C 
BRANCH  12  13
ATOM     13  C   UNL     1       1.075   2.957  20.650  0.00  0.00    +0.000 C 
BRANCH  13  14
ATOM     14  C   UNL     1       0.889   4.459  20.422  0.00  0.00    +0.000 C 
BRANCH  14  15
ATOM     15  C   UNL     1       2.200   5.231  20.612  0.00  0.00    +0.000 C 
BRANCH  15  16
ATOM     16  C   UNL     1       1.947   6.732  20.724  0.00  0.00    +0.000 C 
BRANCH  16  17
ATOM     17  C   UNL     1       2.159   7.456  19.397  0.00  0.00    +0.000 C 
BRANCH  17  18
ATOM     18  O   UNL     1       1.473   8.694  19.470  0.00  0.00    +0.000 OA
BRANCH  18  19
ATOM     19  N   UNL     1       1.311   9.298  18.204  0.00  0.00    +0.000 N 
ATOM     20  O   UNL     1       2.237   9.189  17.404  0.00  0.00    +0.000 OA
ATOM     21  O   UNL     1       0.215   9.869  18.074  0.00  0.00    +0.000 OA
ENDBRANCH  18  19
ENDBRANCH  17  18
ENDBRANCH  16  17
ENDBRANCH  15  16
ENDBRANCH  14  15
ENDBRANCH  13  14
ENDBRANCH  12  13
ENDBRANCH  11  12
ENDBRANCH   9  11
ENDBRANCH   8   9
ENDBRANCH   3   7
BRANCH   1  23
ATOM     22  C   UNL     1       6.804   4.663  14.021  0.00  0.00    +0.000 C 
ATOM     23  O   UNL     1       7.432   5.417  15.065  0.00  0.00    +0.000 OA
ENDBRANCH   1  23
BRANCH   6  24
ATOM     24  O   UNL     1       8.158   7.561  16.985  0.00  0.00    +0.000 OA
BRANCH  24  25
ATOM     25  C   UNL     1       8.419   8.333  18.152  0.00  0.00    +0.000 C 
BRANCH  25  26
ATOM     26  C   UNL     1       8.563   9.830  17.863  0.00  0.00    +0.000 C 
BRANCH  26  27
ATOM     27  C   UNL     1       9.314  10.461  19.043  0.00  0.00    +0.000 C 
BRANCH  27  28
ATOM     28  C   UNL     1       9.644  11.928  18.816  0.00  0.00    +0.000 C 
BRANCH  28  29
ATOM     29  C   UNL     1      10.551  12.121  17.599  0.00  0.00    +0.000 C 
BRANCH  29  30
ATOM     30  C   UNL     1      11.210  13.497  17.645  0.00  0.00    +0.000 C 
BRANCH  30  31
ATOM     31  O   UNL     1      10.255  14.442  18.114  0.00  0.00    +0.000 OA
BRANCH  31  32
ATOM     32  N   UNL     1      10.540  15.756  17.669  0.00  0.00    +0.000 N 
ATOM     33  O   UNL     1      10.980  15.884  16.525  0.00  0.00    +0.000 OA
ATOM     34  O   UNL     1      10.296  16.610  18.517  0.00  0.00    +0.000 OA
ENDBRANCH  31  32
ENDBRANCH  30  31
ENDBRANCH  29  30
ENDBRANCH  28  29
ENDBRANCH  27  28
ENDBRANCH  26  27
ENDBRANCH  25  26
ENDBRANCH  24  25
ENDBRANCH   6  24
TORSDOF 21
ENDMDL
MODEL 8
REMARK VINA RESULT:      -5.6      1.803      2.709
REMARK  Name = 
REMARK  22 active torsions:
REMARK  status: ('A' for Active; 'I' for Inactive)
REMARK    1  A    between atoms: C_1  and  O_2
REMARK    2  A    between atoms: O_2  and  C_3
REMARK    3  A    between atoms: C_5  and  C_6
REMARK    4  A    between atoms: C_7  and  C_8
REMARK    5  A    between atoms: C_8  and  O_10
REMARK    6  A    between atoms: O_10  and  C_11
REMARK    7  A    between atoms: C_11  and  C_12
REMARK    8  A    between atoms: C_12  and  C_13
REMARK    9  A    between atoms: C_13  and  C_14
REMARK   10  A    between atoms: C_14  and  C_15
REMARK   11  A    between atoms: C_15  and  C_16
REMARK   12  A    between atoms: C_16  and  O_17
REMARK   13  A    between atoms: O_17  and  N_18
REMARK   14  A    between atoms: C_23  and  O_24
REMARK   15  A    between atoms: O_24  and  C_25
REMARK   16  A    between atoms: C_25  and  C_26
REMARK   17  A    between atoms: C_26  and  C_27
REMARK   18  A    between atoms: C_27  and  C_28
REMARK   19  A    between atoms: C_28  and  C_29
REMARK   20  A    between atoms: C_29  and  C_30
REMARK   21  A    between atoms: C_30  and  O_31
REMARK   22  A    between atoms: O_31  and  N_32
REMARK                            x       y       z     vdW  Elec       q    Type
REMARK                         _______ _______ _______ _____ _____    ______ ____
ROOT
ATOM      1  C   UNL     1       2.273   8.207  18.494  0.00  0.00    +0.000 A 
ATOM      2  C   UNL     1       2.472   6.959  19.098  0.00  0.00    +0.000 A 
ATOM      3  C   UNL     1       1.945   6.631  20.346  0.00  0.00    +0.000 A 
ATOM      4  C   UNL     1       1.190   7.593  21.018  0.00  0.00    +0.000 A 
ATOM      5  C   UNL     1       0.965   8.849  20.436  0.00  0.00    +0.000 A 
ATOM      6  C   UNL     1       1.466   9.158  19.163  0.00  0.00    +0.000 A 
ENDROOT
BRANCH   3   7
ATOM      7  C   UNL     1       2.081   5.264  20.879  0.00  0.00    +0.000 C 
ATOM      8  C   UNL     1       1.260   4.239  20.595  0.00  0.00    +0.000 C 
BRANCH   8   9
ATOM      9  C   UNL     1       1.524   2.897  21.154  0.00  0.00    +0.000 C 
ATOM     10  O   UNL     1       1.270   2.551  22.295  0.00  0.00    +0.000 OA
BRANCH   9  11
ATOM     11  O   UNL     1       2.215   2.187  20.226  0.00  0.00    +0.000 OA
BRANCH  11  12
ATOM     12  C   UNL     1       1.527   2.013  18.977  0.00  0.00    +0.000 C 
BRANCH  12  13
ATOM     13  C   UNL     1       2.245   2.610  17.769  0.00  0.00    +0.000 C 
BRANCH  13  14
ATOM     14  C   UNL     1       3.763   2.467  17.908  0.00  0.00    +0.000 C 
BRANCH  14  15
ATOM     15  C   UNL     1       4.417   3.771  18.381  0.00  0.00    +0.000 C 
BRANCH  15  16
ATOM     16  C   UNL     1       4.803   4.657  17.200  0.00  0.00    +0.000 C 
BRANCH  16  17
ATOM     17  C   UNL     1       5.780   3.966  16.253  0.00  0.00    +0.000 C 
BRANCH  17  18
ATOM     18  O   UNL     1       7.090   4.197  16.746  0.00  0.00    +0.000 OA
BRANCH  18  19
ATOM     19  N   UNL     1       7.340   5.564  16.994  0.00  0.00    +0.000 N 
ATOM     20  O   UNL     1       7.412   6.311  16.022  0.00  0.00    +0.000 OA
ATOM     21  O   UNL     1       7.451   5.826  18.204  0.00  0.00    +0.000 OA
ENDBRANCH  18  19
ENDBRANCH  17  18
ENDBRANCH  16  17
ENDBRANCH  15  16
ENDBRANCH  14  15
ENDBRANCH  13  14
ENDBRANCH  12  13
ENDBRANCH  11  12
ENDBRANCH   9  11
ENDBRANCH   8   9
ENDBRANCH   3   7
BRANCH   1  23
ATOM     22  C   UNL     1       3.982   7.797  16.824  0.00  0.00    +0.000 C 
ATOM     23  O   UNL     1       2.806   8.487  17.263  0.00  0.00    +0.000 OA
ENDBRANCH   1  23
BRANCH   6  24
ATOM     24  O   UNL     1       1.097  10.421  18.730  0.00  0.00    +0.000 OA
BRANCH  24  25
ATOM     25  C   UNL     1      -0.138  10.874  19.273  0.00  0.00    +0.000 C 
BRANCH  25  26
ATOM     26  C   UNL     1      -0.572  12.236  18.724  0.00  0.00    +0.000 C 
BRANCH  26  27
ATOM     27  C   UNL     1      -2.011  12.490  19.195  0.00  0.00    +0.000 C 
BRANCH  27  28
ATOM     28  C   UNL     1      -2.166  12.377  20.703  0.00  0.00    +0.000 C 
BRANCH  28  29
ATOM     29  C   UNL     1      -3.587  12.725  21.152  0.00  0.00    +0.000 C 
BRANCH  29  30
ATOM     30  C   UNL     1      -3.645  12.846  22.672  0.00  0.00    +0.000 C 
BRANCH  30  31
ATOM     31  O   UNL     1      -4.898  13.414  23.035  0.00  0.00    +0.000 OA
BRANCH  31  32
ATOM     32  N   UNL     1      -5.737  12.483  23.696  0.00  0.00    +0.000 N 
ATOM     33  O   UNL     1      -6.779  12.157  23.126  0.00  0.00    +0.000 OA
ATOM     34  O   UNL     1      -5.286  12.119  24.778  0.00  0.00    +0.000 OA
ENDBRANCH  31  32
ENDBRANCH  30  31
ENDBRANCH  29  30
ENDBRANCH  28  29
ENDBRANCH  27  28
ENDBRANCH  26  27
ENDBRANCH  25  26
ENDBRANCH  24  25
ENDBRANCH   6  24
TORSDOF 21
ENDMDL
MODEL 9
REMARK VINA RESULT:      -5.5      3.555      9.989
REMARK  Name = 
REMARK  22 active torsions:
REMARK  status: ('A' for Active; 'I' for Inactive)
REMARK    1  A    between atoms: C_1  and  O_2
REMARK    2  A    between atoms: O_2  and  C_3
REMARK    3  A    between atoms: C_5  and  C_6
REMARK    4  A    between atoms: C_7  and  C_8
REMARK    5  A    between atoms: C_8  and  O_10
REMARK    6  A    between atoms: O_10  and  C_11
REMARK    7  A    between atoms: C_11  and  C_12
REMARK    8  A    between atoms: C_12  and  C_13
REMARK    9  A    between atoms: C_13  and  C_14
REMARK   10  A    between atoms: C_14  and  C_15
REMARK   11  A    between atoms: C_15  and  C_16
REMARK   12  A    between atoms: C_16  and  O_17
REMARK   13  A    between atoms: O_17  and  N_18
REMARK   14  A    between atoms: C_23  and  O_24
REMARK   15  A    between atoms: O_24  and  C_25
REMARK   16  A    between atoms: C_25  and  C_26
REMARK   17  A    between atoms: C_26  and  C_27
REMARK   18  A    between atoms: C_27  and  C_28
REMARK   19  A    between atoms: C_28  and  C_29
REMARK   20  A    between atoms: C_29  and  C_30
REMARK   21  A    between atoms: C_30  and  O_31
REMARK   22  A    between atoms: O_31  and  N_32
REMARK                            x       y       z     vdW  Elec       q    Type
REMARK                         _______ _______ _______ _____ _____    ______ ____
ROOT
ATOM      1  C   UNL     1       2.457   6.616  19.641  0.00  0.00    +0.000 A 
ATOM      2  C   UNL     1       1.739   7.505  20.451  0.00  0.00    +0.000 A 
ATOM      3  C   UNL     1       1.345   8.771  20.019  0.00  0.00    +0.000 A 
ATOM      4  C   UNL     1       1.688   9.164  18.725  0.00  0.00    +0.000 A 
ATOM      5  C   UNL     1       2.400   8.294  17.887  0.00  0.00    +0.000 A 
ATOM      6  C   UNL     1       2.758   7.007  18.314  0.00  0.00    +0.000 A 
ENDROOT
BRANCH   3   7
ATOM      7  C   UNL     1       0.486   9.617  20.868  0.00  0.00    +0.000 C 
ATOM      8  C   UNL     1       0.633  10.942  21.035  0.00  0.00    +0.000 C 
BRANCH   8   9
ATOM      9  C   UNL     1      -0.320  11.695  21.877  0.00  0.00    +0.000 C 
ATOM     10  O   UNL     1      -0.613  11.413  23.026  0.00  0.00    +0.000 OA
BRANCH   9  11
ATOM     11  O   UNL     1      -0.899  12.648  21.103  0.00  0.00    +0.000 OA
BRANCH  11  12
ATOM     12  C   UNL     1      -1.935  12.162  20.236  0.00  0.00    +0.000 C 
BRANCH  12  13
ATOM     13  C   UNL     1      -1.567  12.141  18.755  0.00  0.00    +0.000 C 
BRANCH  13  14
ATOM     14  C   UNL     1      -1.801  10.754  18.151  0.00  0.00    +0.000 C 
BRANCH  14  15
ATOM     15  C   UNL     1      -2.519  10.835  16.799  0.00  0.00    +0.000 C 
BRANCH  15  16
ATOM     16  C   UNL     1      -3.911  11.443  16.947  0.00  0.00    +0.000 C 
BRANCH  16  17
ATOM     17  C   UNL     1      -4.744  10.731  18.009  0.00  0.00    +0.000 C 
BRANCH  17  18
ATOM     18  O   UNL     1      -6.104  11.062  17.781  0.00  0.00    +0.000 OA
BRANCH  18  19
ATOM     19  N   UNL     1      -6.934  10.719  18.870  0.00  0.00    +0.000 N 
ATOM     20  O   UNL     1      -6.973   9.536  19.199  0.00  0.00    +0.000 OA
ATOM     21  O   UNL     1      -7.523  11.697  19.360  0.00  0.00    +0.000 OA
ENDBRANCH  18  19
ENDBRANCH  17  18
ENDBRANCH  16  17
ENDBRANCH  15  16
ENDBRANCH  14  15
ENDBRANCH  13  14
ENDBRANCH  12  13
ENDBRANCH  11  12
ENDBRANCH   9  11
ENDBRANCH   8   9
ENDBRANCH   3   7
BRANCH   1  23
ATOM     22  C   UNL     1       2.023   4.732  21.103  0.00  0.00    +0.000 C 
ATOM     23  O   UNL     1       2.819   5.378  20.103  0.00  0.00    +0.000 OA
ENDBRANCH   1  23
BRANCH   6  24
ATOM     24  O   UNL     1       3.405   6.273  17.334  0.00  0.00    +0.000 OA
BRANCH  24  25
ATOM     25  C   UNL     1       4.520   6.944  16.759  0.00  0.00    +0.000 C 
BRANCH  25  26
ATOM     26  C   UNL     1       5.417   6.019  15.931  0.00  0.00    +0.000 C 
BRANCH  26  27
ATOM     27  C   UNL     1       5.054   4.572  16.293  0.00  0.00    +0.000 C 
BRANCH  27  28
ATOM     28  C   UNL     1       5.699   4.109  17.590  0.00  0.00    +0.000 C 
BRANCH  28  29
ATOM     29  C   UNL     1       4.678   3.463  18.529  0.00  0.00    +0.000 C 
BRANCH  29  30
ATOM     30  C   UNL     1       3.874   2.402  17.785  0.00  0.00    +0.000 C 
BRANCH  30  31
ATOM     31  O   UNL     1       2.600   2.944  17.457  0.00  0.00    +0.000 OA
BRANCH  31  32
ATOM     32  N   UNL     1       1.599   2.555  18.380  0.00  0.00    +0.000 N 
ATOM     33  O   UNL     1       1.887   1.672  19.189  0.00  0.00    +0.000 OA
ATOM     34  O   UNL     1       0.551   3.179  18.239  0.00  0.00    +0.000 OA
ENDBRANCH  31  32
ENDBRANCH  30  31
ENDBRANCH  29  30
ENDBRANCH  28  29
ENDBRANCH  27  28
ENDBRANCH  26  27
ENDBRANCH  25  26
ENDBRANCH  24  25
ENDBRANCH   6  24
TORSDOF 21
ENDMDL
