MODEL 1
REMARK VINA RESULT:      -8.9      0.000      0.000
REMARK  Name = 
REMARK  3 active torsions:
REMARK  status: ('A' for Active; 'I' for Inactive)
REMARK    1  A    between atoms: C_4  and  C_5
REMARK    2  A    between atoms: C_8  and  N_9
REMARK    3  A    between atoms: C_16  and  C_17
REMARK                            x       y       z     vdW  Elec       q    Type
REMARK                         _______ _______ _______ _____ _____    ______ ____
ROOT
ATOM      1  O   UNL     1       1.946   3.524  21.945  0.00  0.00    +0.000 OA
ATOM      2  C   UNL     1       2.334   4.243  21.033  0.00  0.00    +0.000 A 
ATOM      3  C   UNL     1       1.865   5.641  20.844  0.00  0.00    +0.000 A 
ATOM      4  C   UNL     1       2.352   6.361  19.820  0.00  0.00    +0.000 A 
ATOM      5  N   UNL     1       3.277   5.859  18.925  0.00  0.00    +0.000 N 
ATOM      6  C   UNL     1       3.736   4.586  19.022  0.00  0.00    +0.000 A 
ATOM      7  C   UNL     1       4.618   3.802  18.306  0.00  0.00    +0.000 A 
ATOM      8  C   UNL     1       4.617   2.570  19.012  0.00  0.00    +0.000 A 
ATOM      9  N   UNL     1       3.809   2.564  20.074  0.00  0.00    +0.000 NA
ATOM     10  N   UNL     1       3.266   3.808  20.070  0.00  0.00    +0.000 N 
ATOM     11  H   UNL     1       3.628   6.513  18.228  0.00  0.00    +0.000 HD
ENDROOT
BRANCH   7  12
ATOM     12  C   UNL     1       5.353   4.175  17.107  0.00  0.00    +0.000 A 
ATOM     13  C   UNL     1       6.696   4.568  17.203  0.00  0.00    +0.000 A 
ATOM     14  C   UNL     1       7.436   4.875  16.055  0.00  0.00    +0.000 A 
ATOM     15  C   UNL     1       6.832   4.803  14.803  0.00  0.00    +0.000 A 
ATOM     16 CL   UNL     1       7.742   5.160  13.388  0.00  0.00    +0.000 Cl
ATOM     17  C   UNL     1       5.497   4.426  14.689  0.00  0.00    +0.000 A 
ATOM     18  C   UNL     1       4.765   4.101  15.835  0.00  0.00    +0.000 A 
ENDBRANCH   7  12
BRANCH   4  19
ATOM     19  C   UNL     1       1.891   7.740  19.610  0.00  0.00    +0.000 A 
ATOM     20  C   UNL     1       2.072   8.365  18.370  0.00  0.00    +0.000 A 
ATOM     21  C   UNL     1       1.611   9.670  18.161  0.00  0.00    +0.000 A 
ATOM     22  C   UNL     1       0.968  10.350  19.203  0.00  0.00    +0.000 A 
ATOM     23  C   UNL     1       0.790   9.737  20.450  0.00  0.00    +0.000 A 
ATOM     24  C   UNL     1       1.252   8.432  20.650  0.00  0.00    +0.000 A 
BRANCH  22  25
ATOM     25  N   UNL     1       0.468  11.713  18.984  0.00  0.00    +0.000 N 
ATOM     26  O   UNL     1       1.282  12.644  19.059  0.00  0.00    +0.000 OA
ATOM     27  O   UNL     1      -0.737  11.851  18.731  0.00  0.00    +0.000 OA
ENDBRANCH  22  25
ENDBRANCH   4  19
TORSDOF 3
ENDMDL
MODEL 2
REMARK VINA RESULT:      -8.9      0.138      1.132
REMARK  Name = 
REMARK  3 active torsions:
REMARK  status: ('A' for Active; 'I' for Inactive)
REMARK    1  A    between atoms: C_4  and  C_5
REMARK    2  A    between atoms: C_8  and  N_9
REMARK    3  A    between atoms: C_16  and  C_17
REMARK                            x       y       z     vdW  Elec       q    Type
REMARK                         _______ _______ _______ _____ _____    ______ ____
ROOT
ATOM      1  O   UNL     1       1.844   3.532  21.953  0.00  0.00    +0.000 OA
ATOM      2  C   UNL     1       2.268   4.230  21.040  0.00  0.00    +0.000 A 
ATOM      3  C   UNL     1       1.823   5.631  20.813  0.00  0.00    +0.000 A 
ATOM      4  C   UNL     1       2.350   6.326  19.792  0.00  0.00    +0.000 A 
ATOM      5  N   UNL     1       3.294   5.798  18.934  0.00  0.00    +0.000 N 
ATOM      6  C   UNL     1       3.735   4.521  19.067  0.00  0.00    +0.000 A 
ATOM      7  C   UNL     1       4.628   3.714  18.392  0.00  0.00    +0.000 A 
ATOM      8  C   UNL     1       4.590   2.495  19.119  0.00  0.00    +0.000 A 
ATOM      9  N   UNL     1       3.751   2.518  20.156  0.00  0.00    +0.000 NA
ATOM     10  N   UNL     1       3.223   3.768  20.114  0.00  0.00    +0.000 N 
ATOM     11  H   UNL     1       3.674   6.435  18.237  0.00  0.00    +0.000 HD
ENDROOT
BRANCH   7  12
ATOM     12  C   UNL     1       5.403   4.057  17.209  0.00  0.00    +0.000 A 
ATOM     13  C   UNL     1       4.811   3.981  15.939  0.00  0.00    +0.000 A 
ATOM     14  C   UNL     1       5.522   4.361  14.794  0.00  0.00    +0.000 A 
ATOM     15  C   UNL     1       6.834   4.808  14.912  0.00  0.00    +0.000 A 
ATOM     16 CL   UNL     1       7.705   5.294  13.511  0.00  0.00    +0.000 Cl
ATOM     17  C   UNL     1       7.442   4.879  16.163  0.00  0.00    +0.000 A 
ATOM     18  C   UNL     1       6.724   4.517  17.307  0.00  0.00    +0.000 A 
ENDBRANCH   7  12
BRANCH   4  19
ATOM     19  C   UNL     1       1.912   7.707  19.544  0.00  0.00    +0.000 A 
ATOM     20  C   UNL     1       2.096   8.291  18.285  0.00  0.00    +0.000 A 
ATOM     21  C   UNL     1       1.657   9.598  18.041  0.00  0.00    +0.000 A 
ATOM     22  C   UNL     1       1.033  10.320  19.066  0.00  0.00    +0.000 A 
ATOM     23  C   UNL     1       0.852   9.747  20.332  0.00  0.00    +0.000 A 
ATOM     24  C   UNL     1       1.292   8.440  20.567  0.00  0.00    +0.000 A 
BRANCH  22  25
ATOM     25  N   UNL     1       0.557  11.685  18.809  0.00  0.00    +0.000 N 
ATOM     26  O   UNL     1      -0.666  11.858  18.704  0.00  0.00    +0.000 OA
ATOM     27  O   UNL     1       1.405  12.584  18.718  0.00  0.00    +0.000 OA
ENDBRANCH  22  25
ENDBRANCH   4  19
TORSDOF 3
ENDMDL
MODEL 3
REMARK VINA RESULT:      -8.9      0.210      1.359
REMARK  Name = 
REMARK  3 active torsions:
REMARK  status: ('A' for Active; 'I' for Inactive)
REMARK    1  A    between atoms: C_4  and  C_5
REMARK    2  A    between atoms: C_8  and  N_9
REMARK    3  A    between atoms: C_16  and  C_17
REMARK                            x       y       z     vdW  Elec       q    Type
REMARK                         _______ _______ _______ _____ _____    ______ ____
ROOT
ATOM      1  O   UNL     1       1.844   3.538  21.958  0.00  0.00    +0.000 OA
ATOM      2  C   UNL     1       2.267   4.236  21.045  0.00  0.00    +0.000 A 
ATOM      3  C   UNL     1       1.817   5.635  20.814  0.00  0.00    +0.000 A 
ATOM      4  C   UNL     1       2.342   6.330  19.793  0.00  0.00    +0.000 A 
ATOM      5  N   UNL     1       3.290   5.803  18.937  0.00  0.00    +0.000 N 
ATOM      6  C   UNL     1       3.735   4.528  19.073  0.00  0.00    +0.000 A 
ATOM      7  C   UNL     1       4.632   3.723  18.401  0.00  0.00    +0.000 A 
ATOM      8  C   UNL     1       4.597   2.505  19.131  0.00  0.00    +0.000 A 
ATOM      9  N   UNL     1       3.757   2.527  20.166  0.00  0.00    +0.000 NA
ATOM     10  N   UNL     1       3.225   3.775  20.121  0.00  0.00    +0.000 N 
ATOM     11  H   UNL     1       3.668   6.440  18.239  0.00  0.00    +0.000 HD
ENDROOT
BRANCH   7  12
ATOM     12  C   UNL     1       5.407   4.066  17.218  0.00  0.00    +0.000 A 
ATOM     13  C   UNL     1       4.816   3.990  15.948  0.00  0.00    +0.000 A 
ATOM     14  C   UNL     1       5.527   4.371  14.804  0.00  0.00    +0.000 A 
ATOM     15  C   UNL     1       6.839   4.818  14.922  0.00  0.00    +0.000 A 
ATOM     16 CL   UNL     1       7.710   5.305  13.522  0.00  0.00    +0.000 Cl
ATOM     17  C   UNL     1       7.446   4.889  16.173  0.00  0.00    +0.000 A 
ATOM     18  C   UNL     1       6.728   4.527  17.317  0.00  0.00    +0.000 A 
ENDBRANCH   7  12
BRANCH   4  19
ATOM     19  C   UNL     1       1.900   7.709  19.542  0.00  0.00    +0.000 A 
ATOM     20  C   UNL     1       1.267   8.442  20.554  0.00  0.00    +0.000 A 
ATOM     21  C   UNL     1       0.867   9.763  20.324  0.00  0.00    +0.000 A 
ATOM     22  C   UNL     1       1.102  10.349  19.074  0.00  0.00    +0.000 A 
ATOM     23  C   UNL     1       1.726   9.621  18.053  0.00  0.00    +0.000 A 
ATOM     24  C   UNL     1       2.125   8.301  18.291  0.00  0.00    +0.000 A 
BRANCH  22  25
ATOM     25  N   UNL     1       0.699  11.740  18.834  0.00  0.00    +0.000 N 
ATOM     26  O   UNL     1       1.561  12.525  18.414  0.00  0.00    +0.000 OA
ATOM     27  O   UNL     1      -0.481  12.046  19.061  0.00  0.00    +0.000 OA
ENDBRANCH  22  25
ENDBRANCH   4  19
TORSDOF 3
ENDMDL
MODEL 4
REMARK VINA RESULT:      -8.5      4.153      7.144
REMARK  Name = 
REMARK  3 active torsions:
REMARK  status: ('A' for Active; 'I' for Inactive)
REMARK    1  A    between atoms: C_4  and  C_5
REMARK    2  A    between atoms: C_8  and  N_9
REMARK    3  A    between atoms: C_16  and  C_17
REMARK                            x       y       z     vdW  Elec       q    Type
REMARK                         _______ _______ _______ _____ _____    ______ ____
ROOT
ATOM      1  O   UNL     1       3.768   2.123  20.405  0.00  0.00    +0.000 OA
ATOM      2  C   UNL     1       3.796   3.141  19.725  0.00  0.00    +0.000 A 
ATOM      3  C   UNL     1       4.628   3.279  18.500  0.00  0.00    +0.000 A 
ATOM      4  C   UNL     1       4.588   4.430  17.809  0.00  0.00    +0.000 A 
ATOM      5  N   UNL     1       3.804   5.503  18.186  0.00  0.00    +0.000 N 
ATOM      6  C   UNL     1       3.034   5.458  19.302  0.00  0.00    +0.000 A 
ATOM      7  C   UNL     1       2.178   6.332  19.942  0.00  0.00    +0.000 A 
ATOM      8  C   UNL     1       1.708   5.584  21.054  0.00  0.00    +0.000 A 
ATOM      9  N   UNL     1       2.217   4.352  21.122  0.00  0.00    +0.000 NA
ATOM     10  N   UNL     1       3.037   4.284  20.043  0.00  0.00    +0.000 N 
ATOM     11  H   UNL     1       3.800   6.300  17.553  0.00  0.00    +0.000 HD
ENDROOT
BRANCH   7  12
ATOM     12  C   UNL     1       1.861   7.697  19.551  0.00  0.00    +0.000 A 
ATOM     13  C   UNL     1       1.245   8.563  20.468  0.00  0.00    +0.000 A 
ATOM     14  C   UNL     1       0.985   9.896  20.130  0.00  0.00    +0.000 A 
ATOM     15  C   UNL     1       1.327  10.368  18.866  0.00  0.00    +0.000 A 
ATOM     16 CL   UNL     1       1.027  12.010  18.453  0.00  0.00    +0.000 Cl
ATOM     17  C   UNL     1       1.928   9.521  17.939  0.00  0.00    +0.000 A 
ATOM     18  C   UNL     1       2.205   8.195  18.285  0.00  0.00    +0.000 A 
ENDBRANCH   7  12
BRANCH   4  19
ATOM     19  C   UNL     1       5.413   4.589  16.604  0.00  0.00    +0.000 A 
ATOM     20  C   UNL     1       4.930   4.169  15.357  0.00  0.00    +0.000 A 
ATOM     21  C   UNL     1       5.705   4.341  14.205  0.00  0.00    +0.000 A 
ATOM     22  C   UNL     1       6.969   4.936  14.305  0.00  0.00    +0.000 A 
ATOM     23  C   UNL     1       7.465   5.351  15.548  0.00  0.00    +0.000 A 
ATOM     24  C   UNL     1       6.683   5.177  16.695  0.00  0.00    +0.000 A 
BRANCH  22  25
ATOM     25  N   UNL     1       7.778   5.134  13.096  0.00  0.00    +0.000 N 
ATOM     26  O   UNL     1       8.735   5.918  13.165  0.00  0.00    +0.000 OA
ATOM     27  O   UNL     1       7.460   4.501  12.079  0.00  0.00    +0.000 OA
ENDBRANCH  22  25
ENDBRANCH   4  19
TORSDOF 3
ENDMDL
MODEL 5
REMARK VINA RESULT:      -8.4      4.166      7.214
REMARK  Name = 
REMARK  3 active torsions:
REMARK  status: ('A' for Active; 'I' for Inactive)
REMARK    1  A    between atoms: C_4  and  C_5
REMARK    2  A    between atoms: C_8  and  N_9
REMARK    3  A    between atoms: C_16  and  C_17
REMARK                            x       y       z     vdW  Elec       q    Type
REMARK                         _______ _______ _______ _____ _____    ______ ____
ROOT
ATOM      1  O   UNL     1       3.734   2.068  20.307  0.00  0.00    +0.000 OA
ATOM      2  C   UNL     1       3.768   3.109  19.663  0.00  0.00    +0.000 A 
ATOM      3  C   UNL     1       4.595   3.282  18.439  0.00  0.00    +0.000 A 
ATOM      4  C   UNL     1       4.563   4.457  17.789  0.00  0.00    +0.000 A 
ATOM      5  N   UNL     1       3.791   5.524  18.207  0.00  0.00    +0.000 N 
ATOM      6  C   UNL     1       3.025   5.447  19.325  0.00  0.00    +0.000 A 
ATOM      7  C   UNL     1       2.180   6.306  19.998  0.00  0.00    +0.000 A 
ATOM      8  C   UNL     1       1.709   5.523  21.086  0.00  0.00    +0.000 A 
ATOM      9  N   UNL     1       2.206   4.286  21.109  0.00  0.00    +0.000 NA
ATOM     10  N   UNL     1       3.021   4.248  20.024  0.00  0.00    +0.000 N 
ATOM     11  H   UNL     1       3.792   6.342  17.602  0.00  0.00    +0.000 HD
ENDROOT
BRANCH   7  12
ATOM     12  C   UNL     1       1.875   7.686  19.657  0.00  0.00    +0.000 A 
ATOM     13  C   UNL     1       2.163   8.169  18.371  0.00  0.00    +0.000 A 
ATOM     14  C   UNL     1       1.824   9.477  18.005  0.00  0.00    +0.000 A 
ATOM     15  C   UNL     1       1.205  10.315  18.928  0.00  0.00    +0.000 A 
ATOM     16 CL   UNL     1       0.769  11.916  18.478  0.00  0.00    +0.000 Cl
ATOM     17  C   UNL     1       0.922   9.857  20.212  0.00  0.00    +0.000 A 
ATOM     18  C   UNL     1       1.244   8.544  20.570  0.00  0.00    +0.000 A 
ENDBRANCH   7  12
BRANCH   4  19
ATOM     19  C   UNL     1       5.385   4.650  16.586  0.00  0.00    +0.000 A 
ATOM     20  C   UNL     1       6.689   5.149  16.694  0.00  0.00    +0.000 A 
ATOM     21  C   UNL     1       7.481   5.311  15.551  0.00  0.00    +0.000 A 
ATOM     22  C   UNL     1       6.960   4.971  14.297  0.00  0.00    +0.000 A 
ATOM     23  C   UNL     1       5.653   4.479  14.177  0.00  0.00    +0.000 A 
ATOM     24  C   UNL     1       4.869   4.319  15.324  0.00  0.00    +0.000 A 
BRANCH  22  25
ATOM     25  N   UNL     1       7.793   5.123  13.097  0.00  0.00    +0.000 N 
ATOM     26  O   UNL     1       7.478   4.471  12.091  0.00  0.00    +0.000 OA
ATOM     27  O   UNL     1       8.758   5.898  13.160  0.00  0.00    +0.000 OA
ENDBRANCH  22  25
ENDBRANCH   4  19
TORSDOF 3
ENDMDL
MODEL 6
REMARK VINA RESULT:      -7.4      4.269      8.583
REMARK  Name = 
REMARK  3 active torsions:
REMARK  status: ('A' for Active; 'I' for Inactive)
REMARK    1  A    between atoms: C_4  and  C_5
REMARK    2  A    between atoms: C_8  and  N_9
REMARK    3  A    between atoms: C_16  and  C_17
REMARK                            x       y       z     vdW  Elec       q    Type
REMARK                         _______ _______ _______ _____ _____    ______ ____
ROOT
ATOM      1  O   UNL     1      -0.031  11.562  22.703  0.00  0.00    +0.000 OA
ATOM      2  C   UNL     1      -0.095  11.003  21.616  0.00  0.00    +0.000 A 
ATOM      3  C   UNL     1       0.850   9.935  21.194  0.00  0.00    +0.000 A 
ATOM      4  C   UNL     1       0.699   9.369  19.985  0.00  0.00    +0.000 A 
ATOM      5  N   UNL     1      -0.302   9.734  19.107  0.00  0.00    +0.000 N 
ATOM      6  C   UNL     1      -1.190  10.713  19.415  0.00  0.00    +0.000 A 
ATOM      7  C   UNL     1      -2.261  11.306  18.776  0.00  0.00    +0.000 A 
ATOM      8  C   UNL     1      -2.731  12.253  19.724  0.00  0.00    +0.000 A 
ATOM      9  N   UNL     1      -2.028  12.268  20.857  0.00  0.00    +0.000 NA
ATOM     10  N   UNL     1      -1.076  11.321  20.657  0.00  0.00    +0.000 N 
ATOM     11  H   UNL     1      -0.365   9.193  18.247  0.00  0.00    +0.000 HD
ENDROOT
BRANCH   7  12
ATOM     12  C   UNL     1      -2.759  11.015  17.440  0.00  0.00    +0.000 A 
ATOM     13  C   UNL     1      -2.047  10.142  16.603  0.00  0.00    +0.000 A 
ATOM     14  C   UNL     1      -2.540   9.805  15.336  0.00  0.00    +0.000 A 
ATOM     15  C   UNL     1      -3.741  10.349  14.894  0.00  0.00    +0.000 A 
ATOM     16 CL   UNL     1      -4.360   9.923  13.348  0.00  0.00    +0.000 Cl
ATOM     17  C   UNL     1      -4.455  11.226  15.706  0.00  0.00    +0.000 A 
ATOM     18  C   UNL     1      -3.972  11.547  16.979  0.00  0.00    +0.000 A 
ENDBRANCH   7  12
BRANCH   4  19
ATOM     19  C   UNL     1       1.631   8.321  19.547  0.00  0.00    +0.000 A 
ATOM     20  C   UNL     1       1.881   7.211  20.364  0.00  0.00    +0.000 A 
ATOM     21  C   UNL     1       2.750   6.201  19.936  0.00  0.00    +0.000 A 
ATOM     22  C   UNL     1       3.372   6.307  18.686  0.00  0.00    +0.000 A 
ATOM     23  C   UNL     1       3.135   7.418  17.865  0.00  0.00    +0.000 A 
ATOM     24  C   UNL     1       2.263   8.422  18.299  0.00  0.00    +0.000 A 
BRANCH  22  25
ATOM     25  N   UNL     1       4.271   5.241  18.226  0.00  0.00    +0.000 N 
ATOM     26  O   UNL     1       4.547   4.336  19.026  0.00  0.00    +0.000 OA
ATOM     27  O   UNL     1       4.698   5.308  17.064  0.00  0.00    +0.000 OA
ENDBRANCH  22  25
ENDBRANCH   4  19
TORSDOF 3
ENDMDL
MODEL 7
REMARK VINA RESULT:      -7.3      4.263      8.543
REMARK  Name = 
REMARK  3 active torsions:
REMARK  status: ('A' for Active; 'I' for Inactive)
REMARK    1  A    between atoms: C_4  and  C_5
REMARK    2  A    between atoms: C_8  and  N_9
REMARK    3  A    between atoms: C_16  and  C_17
REMARK                            x       y       z     vdW  Elec       q    Type
REMARK                         _______ _______ _______ _____ _____    ______ ____
ROOT
ATOM      1  O   UNL     1      -0.030  11.559  22.721  0.00  0.00    +0.000 OA
ATOM      2  C   UNL     1      -0.098  10.997  21.635  0.00  0.00    +0.000 A 
ATOM      3  C   UNL     1       0.837   9.918  21.218  0.00  0.00    +0.000 A 
ATOM      4  C   UNL     1       0.681   9.349  20.011  0.00  0.00    +0.000 A 
ATOM      5  N   UNL     1      -0.315   9.721  19.130  0.00  0.00    +0.000 N 
ATOM      6  C   UNL     1      -1.194  10.710  19.434  0.00  0.00    +0.000 A 
ATOM      7  C   UNL     1      -2.258  11.311  18.792  0.00  0.00    +0.000 A 
ATOM      8  C   UNL     1      -2.720  12.266  19.736  0.00  0.00    +0.000 A 
ATOM      9  N   UNL     1      -2.018  12.279  20.870  0.00  0.00    +0.000 NA
ATOM     10  N   UNL     1      -1.075  11.321  20.674  0.00  0.00    +0.000 N 
ATOM     11  H   UNL     1      -0.382   9.177  18.273  0.00  0.00    +0.000 HD
ENDROOT
BRANCH   7  12
ATOM     12  C   UNL     1      -2.757  11.020  17.456  0.00  0.00    +0.000 A 
ATOM     13  C   UNL     1      -2.039  10.159  16.613  0.00  0.00    +0.000 A 
ATOM     14  C   UNL     1      -2.532   9.822  15.347  0.00  0.00    +0.000 A 
ATOM     15  C   UNL     1      -3.741  10.355  14.911  0.00  0.00    +0.000 A 
ATOM     16 CL   UNL     1      -4.360   9.929  13.364  0.00  0.00    +0.000 Cl
ATOM     17  C   UNL     1      -4.462  11.220  15.729  0.00  0.00    +0.000 A 
ATOM     18  C   UNL     1      -3.978  11.541  17.002  0.00  0.00    +0.000 A 
ENDBRANCH   7  12
BRANCH   4  19
ATOM     19  C   UNL     1       1.604   8.291  19.577  0.00  0.00    +0.000 A 
ATOM     20  C   UNL     1       2.242   8.377  18.333  0.00  0.00    +0.000 A 
ATOM     21  C   UNL     1       3.140   7.382  17.929  0.00  0.00    +0.000 A 
ATOM     22  C   UNL     1       3.395   6.297  18.776  0.00  0.00    +0.000 A 
ATOM     23  C   UNL     1       2.755   6.197  20.019  0.00  0.00    +0.000 A 
ATOM     24  C   UNL     1       1.861   7.196  20.416  0.00  0.00    +0.000 A 
BRANCH  22  25
ATOM     25  N   UNL     1       4.349   5.259  18.363  0.00  0.00    +0.000 N 
ATOM     26  O   UNL     1       4.464   5.033  17.150  0.00  0.00    +0.000 OA
ATOM     27  O   UNL     1       4.986   4.675  19.252  0.00  0.00    +0.000 OA
ENDBRANCH  22  25
ENDBRANCH   4  19
TORSDOF 3
ENDMDL
MODEL 8
REMARK VINA RESULT:      -7.3      4.246      8.552
REMARK  Name = 
REMARK  3 active torsions:
REMARK  status: ('A' for Active; 'I' for Inactive)
REMARK    1  A    between atoms: C_4  and  C_5
REMARK    2  A    between atoms: C_8  and  N_9
REMARK    3  A    between atoms: C_16  and  C_17
REMARK                            x       y       z     vdW  Elec       q    Type
REMARK                         _______ _______ _______ _____ _____    ______ ____
ROOT
ATOM      1  O   UNL     1       0.071  11.650  22.639  0.00  0.00    +0.000 OA
ATOM      2  C   UNL     1      -0.019  11.045  21.578  0.00  0.00    +0.000 A 
ATOM      3  C   UNL     1       0.907   9.950  21.185  0.00  0.00    +0.000 A 
ATOM      4  C   UNL     1       0.727   9.334  20.004  0.00  0.00    +0.000 A 
ATOM      5  N   UNL     1      -0.286   9.674  19.129  0.00  0.00    +0.000 N 
ATOM      6  C   UNL     1      -1.158  10.675  19.411  0.00  0.00    +0.000 A 
ATOM      7  C   UNL     1      -2.234  11.252  18.767  0.00  0.00    +0.000 A 
ATOM      8  C   UNL     1      -2.676  12.244  19.682  0.00  0.00    +0.000 A 
ATOM      9  N   UNL     1      -1.952  12.299  20.801  0.00  0.00    +0.000 NA
ATOM     10  N   UNL     1      -1.015  11.334  20.624  0.00  0.00    +0.000 N 
ATOM     11  H   UNL     1      -0.370   9.097  18.295  0.00  0.00    +0.000 HD
ENDROOT
BRANCH   7  12
ATOM     12  C   UNL     1      -2.759  10.911  17.454  0.00  0.00    +0.000 A 
ATOM     13  C   UNL     1      -3.919  11.542  16.978  0.00  0.00    +0.000 A 
ATOM     14  C   UNL     1      -4.407  11.269  15.695  0.00  0.00    +0.000 A 
ATOM     15  C   UNL     1      -3.745  10.353  14.884  0.00  0.00    +0.000 A 
ATOM     16 CL   UNL     1      -4.330  10.029  13.299  0.00  0.00    +0.000 Cl
ATOM     17  C   UNL     1      -2.600   9.708  15.343  0.00  0.00    +0.000 A 
ATOM     18  C   UNL     1      -2.102   9.996  16.617  0.00  0.00    +0.000 A 
ENDBRANCH   7  12
BRANCH   4  19
ATOM     19  C   UNL     1       1.640   8.259  19.594  0.00  0.00    +0.000 A 
ATOM     20  C   UNL     1       2.294   8.321  18.357  0.00  0.00    +0.000 A 
ATOM     21  C   UNL     1       3.182   7.310  17.975  0.00  0.00    +0.000 A 
ATOM     22  C   UNL     1       3.414   6.231  18.838  0.00  0.00    +0.000 A 
ATOM     23  C   UNL     1       2.758   6.155  20.074  0.00  0.00    +0.000 A 
ATOM     24  C   UNL     1       1.873   7.171  20.449  0.00  0.00    +0.000 A 
BRANCH  22  25
ATOM     25  N   UNL     1       4.358   5.176  18.449  0.00  0.00    +0.000 N 
ATOM     26  O   UNL     1       5.139   4.755  19.313  0.00  0.00    +0.000 OA
ATOM     27  O   UNL     1       4.313   4.766  17.280  0.00  0.00    +0.000 OA
ENDBRANCH  22  25
ENDBRANCH   4  19
TORSDOF 3
ENDMDL
MODEL 9
REMARK VINA RESULT:      -7.1      4.129      8.573
REMARK  Name = 
REMARK  3 active torsions:
REMARK  status: ('A' for Active; 'I' for Inactive)
REMARK    1  A    between atoms: C_4  and  C_5
REMARK    2  A    between atoms: C_8  and  N_9
REMARK    3  A    between atoms: C_16  and  C_17
REMARK                            x       y       z     vdW  Elec       q    Type
REMARK                         _______ _______ _______ _____ _____    ______ ____
ROOT
ATOM      1  O   UNL     1      -0.069  11.423  23.042  0.00  0.00    +0.000 OA
ATOM      2  C   UNL     1      -0.137  10.829  21.973  0.00  0.00    +0.000 A 
ATOM      3  C   UNL     1       0.744   9.683  21.622  0.00  0.00    +0.000 A 
ATOM      4  C   UNL     1       0.592   9.084  20.430  0.00  0.00    +0.000 A 
ATOM      5  N   UNL     1      -0.352   9.485  19.505  0.00  0.00    +0.000 N 
ATOM      6  C   UNL     1      -1.178  10.534  19.747  0.00  0.00    +0.000 A 
ATOM      7  C   UNL     1      -2.183  11.175  19.051  0.00  0.00    +0.000 A 
ATOM      8  C   UNL     1      -2.615  12.187  19.948  0.00  0.00    +0.000 A 
ATOM      9  N   UNL     1      -1.950  12.196  21.104  0.00  0.00    +0.000 NA
ATOM     10  N   UNL     1      -1.062  11.179  20.970  0.00  0.00    +0.000 N 
ATOM     11  H   UNL     1      -0.424   8.918  18.663  0.00  0.00    +0.000 HD
ENDROOT
BRANCH   7  12
ATOM     12  C   UNL     1      -2.656  10.870  17.709  0.00  0.00    +0.000 A 
ATOM     13  C   UNL     1      -3.826  11.476  17.225  0.00  0.00    +0.000 A 
ATOM     14  C   UNL     1      -4.266  11.239  15.917  0.00  0.00    +0.000 A 
ATOM     15  C   UNL     1      -3.545  10.384  15.089  0.00  0.00    +0.000 A 
ATOM     16 CL   UNL     1      -4.071  10.105  13.476  0.00  0.00    +0.000 Cl
ATOM     17  C   UNL     1      -2.389   9.765  15.556  0.00  0.00    +0.000 A 
ATOM     18  C   UNL     1      -1.940  10.017  16.856  0.00  0.00    +0.000 A 
ENDBRANCH   7  12
BRANCH   4  19
ATOM     19  C   UNL     1       1.462   7.959  20.061  0.00  0.00    +0.000 A 
ATOM     20  C   UNL     1       1.515   6.814  20.866  0.00  0.00    +0.000 A 
ATOM     21  C   UNL     1       2.325   5.731  20.503  0.00  0.00    +0.000 A 
ATOM     22  C   UNL     1       3.085   5.801  19.329  0.00  0.00    +0.000 A 
ATOM     23  C   UNL     1       3.046   6.946  18.522  0.00  0.00    +0.000 A 
ATOM     24  C   UNL     1       2.233   8.022  18.891  0.00  0.00    +0.000 A 
BRANCH  22  25
ATOM     25  N   UNL     1       3.923   4.661  18.935  0.00  0.00    +0.000 N 
ATOM     26  O   UNL     1       3.361   3.576  18.730  0.00  0.00    +0.000 OA
ATOM     27  O   UNL     1       5.143   4.854  18.826  0.00  0.00    +0.000 OA
ENDBRANCH  22  25
ENDBRANCH   4  19
TORSDOF 3
ENDMDL
