MODEL 1
REMARK VINA RESULT:      -8.4      0.000      0.000
REMARK  Name = 
REMARK  10 active torsions:
REMARK  status: ('A' for Active; 'I' for Inactive)
REMARK    1  A    between atoms: C_1  and  C_2
REMARK    2  A    between atoms: C_2  and  C_3
REMARK    3  A    between atoms: C_8  and  N_9
REMARK    4  A    between atoms: N_12  and  C_13
REMARK    5  A    between atoms: C_13  and  C_14
REMARK    6  A    between atoms: C_14  and  O_15
REMARK    7  A    between atoms: C_14  and  C_16
REMARK    8  A    between atoms: C_16  and  C_17
REMARK    9  A    between atoms: C_17  and  N_18
REMARK   10  A    between atoms: C_19  and  C_21
REMARK                            x       y       z     vdW  Elec       q    Type
REMARK                         _______ _______ _______ _____ _____    ______ ____
ROOT
ATOM      1  C   UNL     1       1.261   3.621  19.755  0.00  0.00    +0.000 C 
ENDROOT
BRANCH   1   2
ATOM      2  O   UNL     1      -0.041   3.039  19.826  0.00  0.00    +0.000 OA
ATOM      3  H   UNL     1      -0.008   2.179  19.371  0.00  0.00    +0.000 HD
ENDBRANCH   1   2
BRANCH   1   4
ATOM      4  C   UNL     1       2.364   2.612  20.166  0.00  0.00    +0.000 C 
BRANCH   4   8
ATOM      5  N   UNL     1       4.405   4.074  17.509  0.00  0.00    +0.000 N 
ATOM      6  C   UNL     1       2.992   3.729  17.261  0.00  0.00    +0.000 C 
ATOM      7  C   UNL     1       2.634   2.294  17.734  0.00  0.00    +0.000 C 
ATOM      8  N   UNL     1       3.085   1.907  19.090  0.00  0.00    +0.000 NA
ATOM      9  C   UNL     1       4.538   2.225  19.171  0.00  0.00    +0.000 C 
ATOM     10  C   UNL     1       4.889   3.702  18.855  0.00  0.00    +0.000 C 
BRANCH   5  16
ATOM     11  C   UNL     1       6.273   5.508  16.646  0.00  0.00    +0.000 A 
ATOM     12  C   UNL     1       7.120   5.832  15.554  0.00  0.00    +0.000 A 
ATOM     13  C   UNL     1       7.036   5.112  14.389  0.00  0.00    +0.000 A 
ATOM     14  C   UNL     1       6.130   4.106  14.247  0.00  0.00    +0.000 A 
ATOM     15  C   UNL     1       5.257   3.780  15.262  0.00  0.00    +0.000 A 
ATOM     16  C   UNL     1       5.291   4.464  16.505  0.00  0.00    +0.000 A 
ATOM     17  O   UNL     1       6.193   3.514  13.025  0.00  0.00    +0.000 OA
ATOM     18  C   UNL     1       7.225   4.306  12.399  0.00  0.00    +0.000 C 
ATOM     19  O   UNL     1       7.796   5.297  13.278  0.00  0.00    +0.000 OA
BRANCH  11  21
ATOM     20  C   UNL     1       7.756   6.179  18.684  0.00  0.00    +0.000 C 
ATOM     21  C   UNL     1       6.442   6.327  17.918  0.00  0.00    +0.000 C 
ENDBRANCH  11  21
ENDBRANCH   5  16
ENDBRANCH   4   8
ENDBRANCH   1   4
BRANCH   1  22
ATOM     22  C   UNL     1       1.280   4.860  20.661  0.00  0.00    +0.000 C 
BRANCH  22  23
ATOM     23  C   UNL     1       2.414   5.817  20.300  0.00  0.00    +0.000 C 
BRANCH  23  24
ATOM     24  N   UNL     1       1.967   7.178  20.217  0.00  0.00    +0.000 N 
ATOM     25  C   UNL     1       2.037   7.903  19.045  0.00  0.00    +0.000 C 
ATOM     26  O   UNL     1       2.544   7.460  18.019  0.00  0.00    +0.000 OA
ATOM     27  H   UNL     1       1.441   7.555  20.992  0.00  0.00    +0.000 HD
BRANCH  25  28
ATOM     28  C   UNL     1       1.438   9.212  19.124  0.00  0.00    +0.000 A 
ATOM     29  C   UNL     1       1.663  10.355  18.382  0.00  0.00    +0.000 A 
ATOM     30  C   UNL     1       0.822  11.383  18.875  0.00  0.00    +0.000 A 
ATOM     31  C   UNL     1       0.631  12.730  18.522  0.00  0.00    +0.000 A 
ATOM     32  C   UNL     1      -0.301  13.492  19.230  0.00  0.00    +0.000 A 
ATOM     33  C   UNL     1      -1.033  12.927  20.270  0.00  0.00    +0.000 A 
ATOM     34  C   UNL     1      -0.863  11.585  20.636  0.00  0.00    +0.000 A 
ATOM     35  C   UNL     1       0.075  10.838  19.917  0.00  0.00    +0.000 A 
ATOM     36  N   UNL     1       0.457   9.521  20.040  0.00  0.00    +0.000 N 
ATOM     37  H   UNL     1       0.087   8.862  20.714  0.00  0.00    +0.000 HD
ENDBRANCH  25  28
ENDBRANCH  23  24
ENDBRANCH  22  23
ENDBRANCH   1  22
TORSDOF 9
ENDMDL
MODEL 2
REMARK VINA RESULT:      -8.0      0.908      1.314
REMARK  Name = 
REMARK  10 active torsions:
REMARK  status: ('A' for Active; 'I' for Inactive)
REMARK    1  A    between atoms: C_1  and  C_2
REMARK    2  A    between atoms: C_2  and  C_3
REMARK    3  A    between atoms: C_8  and  N_9
REMARK    4  A    between atoms: N_12  and  C_13
REMARK    5  A    between atoms: C_13  and  C_14
REMARK    6  A    between atoms: C_14  and  O_15
REMARK    7  A    between atoms: C_14  and  C_16
REMARK    8  A    between atoms: C_16  and  C_17
REMARK    9  A    between atoms: C_17  and  N_18
REMARK   10  A    between atoms: C_19  and  C_21
REMARK                            x       y       z     vdW  Elec       q    Type
REMARK                         _______ _______ _______ _____ _____    ______ ____
ROOT
ATOM      1  C   UNL     1       1.622   4.380  19.965  0.00  0.00    +0.000 C 
ENDROOT
BRANCH   1   2
ATOM      2  O   UNL     1       0.300   4.039  20.383  0.00  0.00    +0.000 OA
ATOM      3  H   UNL     1       0.280   3.081  20.552  0.00  0.00    +0.000 HD
ENDBRANCH   1   2
BRANCH   1   4
ATOM      4  C   UNL     1       2.660   3.324  20.424  0.00  0.00    +0.000 C 
BRANCH   4   8
ATOM      5  N   UNL     1       4.627   4.340  17.515  0.00  0.00    +0.000 N 
ATOM      6  C   UNL     1       3.180   4.082  17.385  0.00  0.00    +0.000 C 
ATOM      7  C   UNL     1       2.753   2.735  18.029  0.00  0.00    +0.000 C 
ATOM      8  N   UNL     1       3.259   2.457  19.393  0.00  0.00    +0.000 NA
ATOM      9  C   UNL     1       4.734   2.670  19.358  0.00  0.00    +0.000 C 
ATOM     10  C   UNL     1       5.168   4.075  18.865  0.00  0.00    +0.000 C 
BRANCH   5  16
ATOM     11  C   UNL     1       6.630   5.412  16.453  0.00  0.00    +0.000 A 
ATOM     12  C   UNL     1       7.419   5.568  15.283  0.00  0.00    +0.000 A 
ATOM     13  C   UNL     1       7.106   4.857  14.151  0.00  0.00    +0.000 A 
ATOM     14  C   UNL     1       6.029   4.026  14.117  0.00  0.00    +0.000 A 
ATOM     15  C   UNL     1       5.208   3.872  15.213  0.00  0.00    +0.000 A 
ATOM     16  C   UNL     1       5.473   4.556  16.428  0.00  0.00    +0.000 A 
ATOM     17  O   UNL     1       5.878   3.416  12.912  0.00  0.00    +0.000 OA
ATOM     18  C   UNL     1       6.971   4.004  12.176  0.00  0.00    +0.000 C 
ATOM     19  O   UNL     1       7.783   4.891  12.974  0.00  0.00    +0.000 OA
BRANCH  11  21
ATOM     20  C   UNL     1       7.522   7.645  17.466  0.00  0.00    +0.000 C 
ATOM     21  C   UNL     1       7.053   6.206  17.681  0.00  0.00    +0.000 C 
ENDBRANCH  11  21
ENDBRANCH   5  16
ENDBRANCH   4   8
ENDBRANCH   1   4
BRANCH   1  22
ATOM     22  C   UNL     1       1.958   5.767  20.531  0.00  0.00    +0.000 C 
BRANCH  22  23
ATOM     23  C   UNL     1       2.364   6.751  19.435  0.00  0.00    +0.000 C 
BRANCH  23  24
ATOM     24  N   UNL     1       1.790   8.051  19.637  0.00  0.00    +0.000 N 
ATOM     25  C   UNL     1       1.626   8.949  18.602  0.00  0.00    +0.000 C 
ATOM     26  O   UNL     1       2.018   8.725  17.460  0.00  0.00    +0.000 OA
ATOM     27  H   UNL     1       1.350   8.245  20.523  0.00  0.00    +0.000 HD
BRANCH  25  28
ATOM     28  C   UNL     1       0.931  10.155  18.971  0.00  0.00    +0.000 A 
ATOM     29  C   UNL     1      -0.319  10.344  19.529  0.00  0.00    +0.000 A 
ATOM     30  C   UNL     1      -0.538  11.736  19.679  0.00  0.00    +0.000 A 
ATOM     31  C   UNL     1      -1.611  12.500  20.171  0.00  0.00    +0.000 A 
ATOM     32  C   UNL     1      -1.505  13.893  20.178  0.00  0.00    +0.000 A 
ATOM     33  C   UNL     1      -0.355  14.518  19.707  0.00  0.00    +0.000 A 
ATOM     34  C   UNL     1       0.729  13.776  19.216  0.00  0.00    +0.000 A 
ATOM     35  C   UNL     1       0.605  12.384  19.216  0.00  0.00    +0.000 A 
ATOM     36  N   UNL     1       1.483  11.406  18.805  0.00  0.00    +0.000 N 
ATOM     37  H   UNL     1       2.405  11.568  18.420  0.00  0.00    +0.000 HD
ENDBRANCH  25  28
ENDBRANCH  23  24
ENDBRANCH  22  23
ENDBRANCH   1  22
TORSDOF 9
ENDMDL
MODEL 3
REMARK VINA RESULT:      -7.8      1.320      1.600
REMARK  Name = 
REMARK  10 active torsions:
REMARK  status: ('A' for Active; 'I' for Inactive)
REMARK    1  A    between atoms: C_1  and  C_2
REMARK    2  A    between atoms: C_2  and  C_3
REMARK    3  A    between atoms: C_8  and  N_9
REMARK    4  A    between atoms: N_12  and  C_13
REMARK    5  A    between atoms: C_13  and  C_14
REMARK    6  A    between atoms: C_14  and  O_15
REMARK    7  A    between atoms: C_14  and  C_16
REMARK    8  A    between atoms: C_16  and  C_17
REMARK    9  A    between atoms: C_17  and  N_18
REMARK   10  A    between atoms: C_19  and  C_21
REMARK                            x       y       z     vdW  Elec       q    Type
REMARK                         _______ _______ _______ _____ _____    ______ ____
ROOT
ATOM      1  C   UNL     1       1.995   2.813  21.422  0.00  0.00    +0.000 C 
ENDROOT
BRANCH   1   2
ATOM      2  O   UNL     1       3.114   2.126  21.986  0.00  0.00    +0.000 OA
ATOM      3  H   UNL     1       3.840   2.160  21.339  0.00  0.00    +0.000 HD
ENDBRANCH   1   2
BRANCH   1   4
ATOM      4  C   UNL     1       1.908   2.604  19.888  0.00  0.00    +0.000 C 
BRANCH   4   8
ATOM      5  N   UNL     1       4.184   4.015  17.399  0.00  0.00    +0.000 N 
ATOM      6  C   UNL     1       3.016   3.218  16.977  0.00  0.00    +0.000 C 
ATOM      7  C   UNL     1       2.898   1.876  17.748  0.00  0.00    +0.000 C 
ATOM      8  N   UNL     1       3.041   1.937  19.220  0.00  0.00    +0.000 NA
ATOM      9  C   UNL     1       4.298   2.687  19.502  0.00  0.00    +0.000 C 
ATOM     10  C   UNL     1       4.358   4.099  18.865  0.00  0.00    +0.000 C 
BRANCH   5  16
ATOM     11  C   UNL     1       6.265   5.318  16.889  0.00  0.00    +0.000 A 
ATOM     12  C   UNL     1       7.232   5.687  15.918  0.00  0.00    +0.000 A 
ATOM     13  C   UNL     1       7.167   5.154  14.654  0.00  0.00    +0.000 A 
ATOM     14  C   UNL     1       6.170   4.298  14.303  0.00  0.00    +0.000 A 
ATOM     15  C   UNL     1       5.184   3.941  15.196  0.00  0.00    +0.000 A 
ATOM     16  C   UNL     1       5.190   4.433  16.528  0.00  0.00    +0.000 A 
ATOM     17  O   UNL     1       6.270   3.881  13.012  0.00  0.00    +0.000 OA
ATOM     18  C   UNL     1       7.433   4.621  12.583  0.00  0.00    +0.000 C 
ATOM     19  O   UNL     1       8.034   5.400  13.638  0.00  0.00    +0.000 OA
BRANCH  11  21
ATOM     20  C   UNL     1       7.795   5.852  18.934  0.00  0.00    +0.000 C 
ATOM     21  C   UNL     1       6.416   5.922  18.278  0.00  0.00    +0.000 C 
ENDBRANCH  11  21
ENDBRANCH   5  16
ENDBRANCH   4   8
ENDBRANCH   1   4
BRANCH   1  22
ATOM     22  C   UNL     1       2.124   4.302  21.770  0.00  0.00    +0.000 C 
BRANCH  22  23
ATOM     23  C   UNL     1       1.921   5.197  20.549  0.00  0.00    +0.000 C 
BRANCH  23  24
ATOM     24  N   UNL     1       1.287   6.439  20.888  0.00  0.00    +0.000 N 
ATOM     25  C   UNL     1       1.694   7.642  20.348  0.00  0.00    +0.000 C 
ATOM     26  O   UNL     1       2.663   7.740  19.599  0.00  0.00    +0.000 OA
ATOM     27  H   UNL     1       0.422   6.406  21.405  0.00  0.00    +0.000 HD
BRANCH  25  28
ATOM     28  C   UNL     1       0.869   8.764  20.717  0.00  0.00    +0.000 A 
ATOM     29  C   UNL     1       0.427   9.844  19.977  0.00  0.00    +0.000 A 
ATOM     30  C   UNL     1      -0.346  10.679  20.820  0.00  0.00    +0.000 A 
ATOM     31  C   UNL     1      -1.025  11.894  20.620  0.00  0.00    +0.000 A 
ATOM     32  C   UNL     1      -1.709  12.474  21.691  0.00  0.00    +0.000 A 
ATOM     33  C   UNL     1      -1.721  11.859  22.939  0.00  0.00    +0.000 A 
ATOM     34  C   UNL     1      -1.056  10.645  23.160  0.00  0.00    +0.000 A 
ATOM     35  C   UNL     1      -0.375  10.080  22.077  0.00  0.00    +0.000 A 
ATOM     36  N   UNL     1       0.356   8.918  21.986  0.00  0.00    +0.000 N 
ATOM     37  H   UNL     1       0.515   8.262  22.742  0.00  0.00    +0.000 HD
ENDBRANCH  25  28
ENDBRANCH  23  24
ENDBRANCH  22  23
ENDBRANCH   1  22
TORSDOF 9
ENDMDL
MODEL 4
REMARK VINA RESULT:      -7.8      1.119      1.469
REMARK  Name = 
REMARK  10 active torsions:
REMARK  status: ('A' for Active; 'I' for Inactive)
REMARK    1  A    between atoms: C_1  and  C_2
REMARK    2  A    between atoms: C_2  and  C_3
REMARK    3  A    between atoms: C_8  and  N_9
REMARK    4  A    between atoms: N_12  and  C_13
REMARK    5  A    between atoms: C_13  and  C_14
REMARK    6  A    between atoms: C_14  and  O_15
REMARK    7  A    between atoms: C_14  and  C_16
REMARK    8  A    between atoms: C_16  and  C_17
REMARK    9  A    between atoms: C_17  and  N_18
REMARK   10  A    between atoms: C_19  and  C_21
REMARK                            x       y       z     vdW  Elec       q    Type
REMARK                         _______ _______ _______ _____ _____    ______ ____
ROOT
ATOM      1  C   UNL     1       1.612   3.918  19.857  0.00  0.00    +0.000 C 
ENDROOT
BRANCH   1   2
ATOM      2  O   UNL     1       0.307   3.773  20.419  0.00  0.00    +0.000 OA
ATOM      3  H   UNL     1       0.402   3.327  21.278  0.00  0.00    +0.000 HD
ENDBRANCH   1   2
BRANCH   1   4
ATOM      4  C   UNL     1       2.308   2.546  19.661  0.00  0.00    +0.000 C 
BRANCH   4   8
ATOM      5  N   UNL     1       4.559   3.872  17.104  0.00  0.00    +0.000 N 
ATOM      6  C   UNL     1       3.143   4.285  17.139  0.00  0.00    +0.000 C 
ATOM      7  C   UNL     1       2.171   3.080  17.255  0.00  0.00    +0.000 C 
ATOM      8  N   UNL     1       2.491   2.060  18.280  0.00  0.00    +0.000 NA
ATOM      9  C   UNL     1       3.915   1.671  18.074  0.00  0.00    +0.000 C 
ATOM     10  C   UNL     1       4.915   2.855  18.115  0.00  0.00    +0.000 C 
BRANCH   5  16
ATOM     11  C   UNL     1       6.584   5.041  16.197  0.00  0.00    +0.000 A 
ATOM     12  C   UNL     1       7.399   5.308  15.067  0.00  0.00    +0.000 A 
ATOM     13  C   UNL     1       7.114   4.711  13.863  0.00  0.00    +0.000 A 
ATOM     14  C   UNL     1       6.039   3.887  13.725  0.00  0.00    +0.000 A 
ATOM     15  C   UNL     1       5.194   3.629  14.781  0.00  0.00    +0.000 A 
ATOM     16  C   UNL     1       5.430   4.191  16.062  0.00  0.00    +0.000 A 
ATOM     17  O   UNL     1       5.917   3.397  12.462  0.00  0.00    +0.000 OA
ATOM     18  C   UNL     1       7.026   4.054  11.813  0.00  0.00    +0.000 C 
ATOM     19  O   UNL     1       7.818   4.858  12.711  0.00  0.00    +0.000 OA
BRANCH  11  21
ATOM     20  C   UNL     1       6.283   7.025  17.864  0.00  0.00    +0.000 C 
ATOM     21  C   UNL     1       6.977   5.711  17.506  0.00  0.00    +0.000 C 
ENDBRANCH  11  21
ENDBRANCH   5  16
ENDBRANCH   4   8
ENDBRANCH   1   4
BRANCH   1  22
ATOM     22  C   UNL     1       2.433   4.825  20.784  0.00  0.00    +0.000 C 
BRANCH  22  23
ATOM     23  C   UNL     1       2.851   6.122  20.095  0.00  0.00    +0.000 C 
BRANCH  23  24
ATOM     24  N   UNL     1       2.068   7.243  20.532  0.00  0.00    +0.000 N 
ATOM     25  C   UNL     1       1.757   8.293  19.693  0.00  0.00    +0.000 C 
ATOM     26  O   UNL     1       2.182   8.373  18.544  0.00  0.00    +0.000 OA
ATOM     27  H   UNL     1       1.601   7.178  21.424  0.00  0.00    +0.000 HD
BRANCH  25  28
ATOM     28  C   UNL     1       0.871   9.270  20.273  0.00  0.00    +0.000 A 
ATOM     29  C   UNL     1       0.280  10.393  19.726  0.00  0.00    +0.000 A 
ATOM     30  C   UNL     1      -0.493  11.027  20.729  0.00  0.00    +0.000 A 
ATOM     31  C   UNL     1      -1.287  12.187  20.751  0.00  0.00    +0.000 A 
ATOM     32  C   UNL     1      -1.932  12.546  21.937  0.00  0.00    +0.000 A 
ATOM     33  C   UNL     1      -1.792  11.768  23.082  0.00  0.00    +0.000 A 
ATOM     34  C   UNL     1      -1.009  10.606  23.082  0.00  0.00    +0.000 A 
ATOM     35  C   UNL     1      -0.371  10.262  21.887  0.00  0.00    +0.000 A 
ATOM     36  N   UNL     1       0.449   9.199  21.582  0.00  0.00    +0.000 N 
ATOM     37  H   UNL     1       0.723   8.465  22.224  0.00  0.00    +0.000 HD
ENDBRANCH  25  28
ENDBRANCH  23  24
ENDBRANCH  22  23
ENDBRANCH   1  22
TORSDOF 9
ENDMDL
MODEL 5
REMARK VINA RESULT:      -7.8      4.005      8.876
REMARK  Name = 
REMARK  10 active torsions:
REMARK  status: ('A' for Active; 'I' for Inactive)
REMARK    1  A    between atoms: C_1  and  C_2
REMARK    2  A    between atoms: C_2  and  C_3
REMARK    3  A    between atoms: C_8  and  N_9
REMARK    4  A    between atoms: N_12  and  C_13
REMARK    5  A    between atoms: C_13  and  C_14
REMARK    6  A    between atoms: C_14  and  O_15
REMARK    7  A    between atoms: C_14  and  C_16
REMARK    8  A    between atoms: C_16  and  C_17
REMARK    9  A    between atoms: C_17  and  N_18
REMARK   10  A    between atoms: C_19  and  C_21
REMARK                            x       y       z     vdW  Elec       q    Type
REMARK                         _______ _______ _______ _____ _____    ______ ____
ROOT
ATOM      1  C   UNL     1       4.577   5.268  17.530  0.00  0.00    +0.000 C 
ENDROOT
BRANCH   1   2
ATOM      2  O   UNL     1       3.714   4.296  16.938  0.00  0.00    +0.000 OA
ATOM      3  H   UNL     1       4.260   3.532  16.681  0.00  0.00    +0.000 HD
ENDBRANCH   1   2
BRANCH   1   4
ATOM      4  C   UNL     1       3.836   6.127  18.586  0.00  0.00    +0.000 C 
BRANCH   4   8
ATOM      5  N   UNL     1       1.615   8.730  19.873  0.00  0.00    +0.000 N 
ATOM      6  C   UNL     1       1.896   7.523  20.675  0.00  0.00    +0.000 C 
ATOM      7  C   UNL     1       1.725   6.212  19.862  0.00  0.00    +0.000 C 
ATOM      8  N   UNL     1       2.363   6.167  18.526  0.00  0.00    +0.000 NA
ATOM      9  C   UNL     1       1.926   7.391  17.797  0.00  0.00    +0.000 C 
ATOM     10  C   UNL     1       2.238   8.721  18.533  0.00  0.00    +0.000 C 
BRANCH   5  16
ATOM     11  C   UNL     1      -0.334  10.201  19.302  0.00  0.00    +0.000 A 
ATOM     12  C   UNL     1      -1.268  11.170  19.752  0.00  0.00    +0.000 A 
ATOM     13  C   UNL     1      -1.266  11.559  21.069  0.00  0.00    +0.000 A 
ATOM     14  C   UNL     1      -0.360  11.054  21.950  0.00  0.00    +0.000 A 
ATOM     15  C   UNL     1       0.594  10.143  21.553  0.00  0.00    +0.000 A 
ATOM     16  C   UNL     1       0.648   9.675  20.214  0.00  0.00    +0.000 A 
ATOM     17  O   UNL     1      -0.510  11.561  23.202  0.00  0.00    +0.000 OA
ATOM     18  C   UNL     1      -1.599  12.484  22.987  0.00  0.00    +0.000 C 
ATOM     19  O   UNL     1      -2.113  12.454  21.639  0.00  0.00    +0.000 OA
BRANCH  11  21
ATOM     20  C   UNL     1      -1.764   9.939  17.136  0.00  0.00    +0.000 C 
ATOM     21  C   UNL     1      -0.414   9.793  17.837  0.00  0.00    +0.000 C 
ENDBRANCH  11  21
ENDBRANCH   5  16
ENDBRANCH   4   8
ENDBRANCH   1   4
BRANCH   1  22
ATOM     22  C   UNL     1       5.148   6.145  16.407  0.00  0.00    +0.000 C 
BRANCH  22  23
ATOM     23  C   UNL     1       6.675   6.191  16.434  0.00  0.00    +0.000 C 
BRANCH  23  24
ATOM     24  N   UNL     1       7.170   7.461  16.883  0.00  0.00    +0.000 N 
ATOM     25  C   UNL     1       7.895   7.595  18.049  0.00  0.00    +0.000 C 
ATOM     26  O   UNL     1       8.108   6.655  18.811  0.00  0.00    +0.000 OA
ATOM     27  H   UNL     1       7.123   8.242  16.247  0.00  0.00    +0.000 HD
BRANCH  25  28
ATOM     28  C   UNL     1       8.404   8.923  18.279  0.00  0.00    +0.000 A 
ATOM     29  C   UNL     1       8.345  10.062  17.499  0.00  0.00    +0.000 A 
ATOM     30  C   UNL     1       9.019  11.107  18.178  0.00  0.00    +0.000 A 
ATOM     31  C   UNL     1       9.280  12.453  17.868  0.00  0.00    +0.000 A 
ATOM     32  C   UNL     1       9.994  13.233  18.779  0.00  0.00    +0.000 A 
ATOM     33  C   UNL     1      10.442  12.689  19.979  0.00  0.00    +0.000 A 
ATOM     34  C   UNL     1      10.189  11.351  20.312  0.00  0.00    +0.000 A 
ATOM     35  C   UNL     1       9.473  10.585  19.387  0.00  0.00    +0.000 A 
ATOM     36  N   UNL     1       9.079   9.267  19.430  0.00  0.00    +0.000 N 
ATOM     37  H   UNL     1       9.262   8.623  20.190  0.00  0.00    +0.000 HD
ENDBRANCH  25  28
ENDBRANCH  23  24
ENDBRANCH  22  23
ENDBRANCH   1  22
TORSDOF 9
ENDMDL
MODEL 6
REMARK VINA RESULT:      -7.6      2.544      9.404
REMARK  Name = 
REMARK  10 active torsions:
REMARK  status: ('A' for Active; 'I' for Inactive)
REMARK    1  A    between atoms: C_1  and  C_2
REMARK    2  A    between atoms: C_2  and  C_3
REMARK    3  A    between atoms: C_8  and  N_9
REMARK    4  A    between atoms: N_12  and  C_13
REMARK    5  A    between atoms: C_13  and  C_14
REMARK    6  A    between atoms: C_14  and  O_15
REMARK    7  A    between atoms: C_14  and  C_16
REMARK    8  A    between atoms: C_16  and  C_17
REMARK    9  A    between atoms: C_17  and  N_18
REMARK   10  A    between atoms: C_19  and  C_21
REMARK                            x       y       z     vdW  Elec       q    Type
REMARK                         _______ _______ _______ _____ _____    ______ ____
ROOT
ATOM      1  C   UNL     1       1.611   4.949  20.526  0.00  0.00    +0.000 C 
ENDROOT
BRANCH   1   2
ATOM      2  O   UNL     1       0.617   3.946  20.741  0.00  0.00    +0.000 OA
ATOM      3  H   UNL     1       0.710   3.628  21.656  0.00  0.00    +0.000 HD
ENDBRANCH   1   2
BRANCH   1   4
ATOM      4  C   UNL     1       1.004   6.375  20.565  0.00  0.00    +0.000 C 
BRANCH   4   8
ATOM      5  N   UNL     1       0.407   9.829  19.526  0.00  0.00    +0.000 N 
ATOM      6  C   UNL     1       1.094   8.886  18.623  0.00  0.00    +0.000 C 
ATOM      7  C   UNL     1       2.243   8.113  19.327  0.00  0.00    +0.000 C 
ATOM      8  N   UNL     1       1.935   7.516  20.646  0.00  0.00    +0.000 NA
ATOM      9  C   UNL     1       1.332   8.594  21.480  0.00  0.00    +0.000 C 
ATOM     10  C   UNL     1       0.083   9.265  20.853  0.00  0.00    +0.000 C 
BRANCH   5  16
ATOM     11  C   UNL     1      -0.686  11.796  18.419  0.00  0.00    +0.000 A 
ATOM     12  C   UNL     1      -0.697  13.202  18.228  0.00  0.00    +0.000 A 
ATOM     13  C   UNL     1       0.202  13.989  18.906  0.00  0.00    +0.000 A 
ATOM     14  C   UNL     1       1.128  13.441  19.739  0.00  0.00    +0.000 A 
ATOM     15  C   UNL     1       1.206  12.079  19.926  0.00  0.00    +0.000 A 
ATOM     16  C   UNL     1       0.303  11.197  19.277  0.00  0.00    +0.000 A 
ATOM     17  O   UNL     1       1.930  14.376  20.314  0.00  0.00    +0.000 OA
ATOM     18  C   UNL     1       1.420  15.579  19.701  0.00  0.00    +0.000 C 
ATOM     19  O   UNL     1       0.290  15.343  18.837  0.00  0.00    +0.000 OA
BRANCH  11  21
ATOM     20  C   UNL     1      -3.184  11.104  18.120  0.00  0.00    +0.000 C 
ATOM     21  C   UNL     1      -1.730  10.988  17.660  0.00  0.00    +0.000 C 
ENDBRANCH  11  21
ENDBRANCH   5  16
ENDBRANCH   4   8
ENDBRANCH   1   4
BRANCH   1  22
ATOM     22  C   UNL     1       2.284   4.672  19.174  0.00  0.00    +0.000 C 
BRANCH  22  23
ATOM     23  C   UNL     1       3.806   4.756  19.264  0.00  0.00    +0.000 C 
BRANCH  23  24
ATOM     24  N   UNL     1       4.421   4.819  17.968  0.00  0.00    +0.000 N 
ATOM     25  C   UNL     1       5.753   4.515  17.772  0.00  0.00    +0.000 C 
ATOM     26  O   UNL     1       6.513   4.236  18.696  0.00  0.00    +0.000 OA
ATOM     27  H   UNL     1       3.824   4.931  17.163  0.00  0.00    +0.000 HD
BRANCH  25  28
ATOM     28  C   UNL     1       6.164   4.524  16.392  0.00  0.00    +0.000 A 
ATOM     29  C   UNL     1       7.117   5.281  15.737  0.00  0.00    +0.000 A 
ATOM     30  C   UNL     1       7.119   4.914  14.368  0.00  0.00    +0.000 A 
ATOM     31  C   UNL     1       7.854   5.347  13.251  0.00  0.00    +0.000 A 
ATOM     32  C   UNL     1       7.602   4.767  12.006  0.00  0.00    +0.000 A 
ATOM     33  C   UNL     1       6.638   3.773  11.871  0.00  0.00    +0.000 A 
ATOM     34  C   UNL     1       5.896   3.323  12.971  0.00  0.00    +0.000 A 
ATOM     35  C   UNL     1       6.161   3.916  14.210  0.00  0.00    +0.000 A 
ATOM     36  N   UNL     1       5.606   3.689  15.449  0.00  0.00    +0.000 N 
ATOM     37  H   UNL     1       4.880   3.014  15.654  0.00  0.00    +0.000 HD
ENDBRANCH  25  28
ENDBRANCH  23  24
ENDBRANCH  22  23
ENDBRANCH   1  22
TORSDOF 9
ENDMDL
MODEL 7
REMARK VINA RESULT:      -7.5      2.579      9.378
REMARK  Name = 
REMARK  10 active torsions:
REMARK  status: ('A' for Active; 'I' for Inactive)
REMARK    1  A    between atoms: C_1  and  C_2
REMARK    2  A    between atoms: C_2  and  C_3
REMARK    3  A    between atoms: C_8  and  N_9
REMARK    4  A    between atoms: N_12  and  C_13
REMARK    5  A    between atoms: C_13  and  C_14
REMARK    6  A    between atoms: C_14  and  O_15
REMARK    7  A    between atoms: C_14  and  C_16
REMARK    8  A    between atoms: C_16  and  C_17
REMARK    9  A    between atoms: C_17  and  N_18
REMARK   10  A    between atoms: C_19  and  C_21
REMARK                            x       y       z     vdW  Elec       q    Type
REMARK                         _______ _______ _______ _____ _____    ______ ____
ROOT
ATOM      1  C   UNL     1       2.343   4.879  19.215  0.00  0.00    +0.000 C 
ENDROOT
BRANCH   1   2
ATOM      2  O   UNL     1       2.611   4.908  17.812  0.00  0.00    +0.000 OA
ATOM      3  H   UNL     1       3.030   4.063  17.573  0.00  0.00    +0.000 HD
ENDBRANCH   1   2
BRANCH   1   4
ATOM      4  C   UNL     1       1.627   6.171  19.689  0.00  0.00    +0.000 C 
BRANCH   4   8
ATOM      5  N   UNL     1       0.616   9.607  18.959  0.00  0.00    +0.000 N 
ATOM      6  C   UNL     1       1.348   8.814  17.953  0.00  0.00    +0.000 C 
ATOM      7  C   UNL     1       2.608   8.121  18.538  0.00  0.00    +0.000 C 
ATOM      8  N   UNL     1       2.437   7.396  19.818  0.00  0.00    +0.000 NA
ATOM      9  C   UNL     1       1.771   8.337  20.762  0.00  0.00    +0.000 C 
ATOM     10  C   UNL     1       0.425   8.914  20.250  0.00  0.00    +0.000 C 
BRANCH   5  16
ATOM     11  C   UNL     1      -0.879  11.519  18.327  0.00  0.00    +0.000 A 
ATOM     12  C   UNL     1      -1.036  12.926  18.223  0.00  0.00    +0.000 A 
ATOM     13  C   UNL     1      -0.030  13.757  18.651  0.00  0.00    +0.000 A 
ATOM     14  C   UNL     1       1.134  13.255  19.147  0.00  0.00    +0.000 A 
ATOM     15  C   UNL     1       1.351  11.897  19.230  0.00  0.00    +0.000 A 
ATOM     16  C   UNL     1       0.355  10.971  18.826  0.00  0.00    +0.000 A 
ATOM     17  O   UNL     1       2.008  14.230  19.514  0.00  0.00    +0.000 OA
ATOM     18  C   UNL     1       1.264  15.409  19.142  0.00  0.00    +0.000 C 
ATOM     19  O   UNL     1      -0.053  15.115  18.633  0.00  0.00    +0.000 OA
BRANCH  11  21
ATOM     20  C   UNL     1      -2.681  10.997  16.514  0.00  0.00    +0.000 C 
ATOM     21  C   UNL     1      -2.046  10.658  17.863  0.00  0.00    +0.000 C 
ENDBRANCH  11  21
ENDBRANCH   5  16
ENDBRANCH   4   8
ENDBRANCH   1   4
BRANCH   1  22
ATOM     22  C   UNL     1       3.675   4.685  19.951  0.00  0.00    +0.000 C 
BRANCH  22  23
ATOM     23  C   UNL     1       4.470   3.504  19.397  0.00  0.00    +0.000 C 
BRANCH  23  24
ATOM     24  N   UNL     1       4.829   3.693  18.021  0.00  0.00    +0.000 N 
ATOM     25  C   UNL     1       6.037   4.247  17.647  0.00  0.00    +0.000 C 
ATOM     26  O   UNL     1       6.852   4.675  18.461  0.00  0.00    +0.000 OA
ATOM     27  H   UNL     1       4.253   3.261  17.314  0.00  0.00    +0.000 HD
BRANCH  25  28
ATOM     28  C   UNL     1       6.269   4.254  16.225  0.00  0.00    +0.000 A 
ATOM     29  C   UNL     1       5.706   3.500  15.213  0.00  0.00    +0.000 A 
ATOM     30  C   UNL     1       6.297   3.885  13.985  0.00  0.00    +0.000 A 
ATOM     31  C   UNL     1       6.128   3.463  12.654  0.00  0.00    +0.000 A 
ATOM     32  C   UNL     1       6.891   4.062  11.650  0.00  0.00    +0.000 A 
ATOM     33  C   UNL     1       7.806   5.064  11.958  0.00  0.00    +0.000 A 
ATOM     34  C   UNL     1       7.988   5.504  13.276  0.00  0.00    +0.000 A 
ATOM     35  C   UNL     1       7.216   4.892  14.269  0.00  0.00    +0.000 A 
ATOM     36  N   UNL     1       7.172   5.106  15.628  0.00  0.00    +0.000 N 
ATOM     37  H   UNL     1       7.728   5.783  16.136  0.00  0.00    +0.000 HD
ENDBRANCH  25  28
ENDBRANCH  23  24
ENDBRANCH  22  23
ENDBRANCH   1  22
TORSDOF 9
ENDMDL
MODEL 8
REMARK VINA RESULT:      -7.5      1.365      1.515
REMARK  Name = 
REMARK  10 active torsions:
REMARK  status: ('A' for Active; 'I' for Inactive)
REMARK    1  A    between atoms: C_1  and  C_2
REMARK    2  A    between atoms: C_2  and  C_3
REMARK    3  A    between atoms: C_8  and  N_9
REMARK    4  A    between atoms: N_12  and  C_13
REMARK    5  A    between atoms: C_13  and  C_14
REMARK    6  A    between atoms: C_14  and  O_15
REMARK    7  A    between atoms: C_14  and  C_16
REMARK    8  A    between atoms: C_16  and  C_17
REMARK    9  A    between atoms: C_17  and  N_18
REMARK   10  A    between atoms: C_19  and  C_21
REMARK                            x       y       z     vdW  Elec       q    Type
REMARK                         _______ _______ _______ _____ _____    ______ ____
ROOT
ATOM      1  C   UNL     1       1.589   4.161  19.880  0.00  0.00    +0.000 C 
ENDROOT
BRANCH   1   2
ATOM      2  O   UNL     1       0.330   4.120  20.555  0.00  0.00    +0.000 OA
ATOM      3  H   UNL     1      -0.301   3.654  19.978  0.00  0.00    +0.000 HD
ENDBRANCH   1   2
BRANCH   1   4
ATOM      4  C   UNL     1       2.438   2.897  20.173  0.00  0.00    +0.000 C 
BRANCH   4   8
ATOM      5  N   UNL     1       4.490   4.219  17.451  0.00  0.00    +0.000 N 
ATOM      6  C   UNL     1       3.032   4.073  17.284  0.00  0.00    +0.000 C 
ATOM      7  C   UNL     1       2.517   2.673  17.717  0.00  0.00    +0.000 C 
ATOM      8  N   UNL     1       2.993   2.161  19.022  0.00  0.00    +0.000 NA
ATOM      9  C   UNL     1       4.478   2.285  19.020  0.00  0.00    +0.000 C 
ATOM     10  C   UNL     1       5.001   3.719  18.745  0.00  0.00    +0.000 C 
BRANCH   5  16
ATOM     11  C   UNL     1       6.374   5.561  16.482  0.00  0.00    +0.000 A 
ATOM     12  C   UNL     1       7.198   5.817  15.355  0.00  0.00    +0.000 A 
ATOM     13  C   UNL     1       7.058   5.055  14.221  0.00  0.00    +0.000 A 
ATOM     14  C   UNL     1       6.119   4.074  14.144  0.00  0.00    +0.000 A 
ATOM     15  C   UNL     1       5.266   3.814  15.195  0.00  0.00    +0.000 A 
ATOM     16  C   UNL     1       5.358   4.544  16.409  0.00  0.00    +0.000 A 
ATOM     17  O   UNL     1       6.129   3.434  12.944  0.00  0.00    +0.000 OA
ATOM     18  C   UNL     1       7.165   4.169  12.259  0.00  0.00    +0.000 C 
ATOM     19  O   UNL     1       7.791   5.174  13.083  0.00  0.00    +0.000 OA
BRANCH  11  21
ATOM     20  C   UNL     1       7.634   7.547  17.610  0.00  0.00    +0.000 C 
ATOM     21  C   UNL     1       6.604   6.422  17.716  0.00  0.00    +0.000 C 
ENDBRANCH  11  21
ENDBRANCH   5  16
ENDBRANCH   4   8
ENDBRANCH   1   4
BRANCH   1  22
ATOM     22  C   UNL     1       2.324   5.435  20.319  0.00  0.00    +0.000 C 
BRANCH  22  23
ATOM     23  C   UNL     1       1.412   6.388  21.087  0.00  0.00    +0.000 C 
BRANCH  23  24
ATOM     24  N   UNL     1       1.497   7.733  20.593  0.00  0.00    +0.000 N 
ATOM     25  C   UNL     1       0.567   8.697  20.925  0.00  0.00    +0.000 C 
ATOM     26  O   UNL     1      -0.426   8.455  21.607  0.00  0.00    +0.000 OA
ATOM     27  H   UNL     1       2.345   8.016  20.125  0.00  0.00    +0.000 HD
BRANCH  25  28
ATOM     28  C   UNL     1       0.877  10.013  20.428  0.00  0.00    +0.000 A 
ATOM     29  C   UNL     1       1.214  10.445  19.160  0.00  0.00    +0.000 A 
ATOM     30  C   UNL     1       1.440  11.843  19.206  0.00  0.00    +0.000 A 
ATOM     31  C   UNL     1       1.812  12.796  18.243  0.00  0.00    +0.000 A 
ATOM     32  C   UNL     1       1.958  14.130  18.628  0.00  0.00    +0.000 A 
ATOM     33  C   UNL     1       1.737  14.514  19.948  0.00  0.00    +0.000 A 
ATOM     34  C   UNL     1       1.361  13.582  20.924  0.00  0.00    +0.000 A 
ATOM     35  C   UNL     1       1.221  12.250  20.520  0.00  0.00    +0.000 A 
ATOM     36  N   UNL     1       0.870  11.129  21.237  0.00  0.00    +0.000 N 
ATOM     37  H   UNL     1       0.647  11.107  22.224  0.00  0.00    +0.000 HD
ENDBRANCH  25  28
ENDBRANCH  23  24
ENDBRANCH  22  23
ENDBRANCH   1  22
TORSDOF 9
ENDMDL
MODEL 9
REMARK VINA RESULT:      -7.5      4.100      8.487
REMARK  Name = 
REMARK  10 active torsions:
REMARK  status: ('A' for Active; 'I' for Inactive)
REMARK    1  A    between atoms: C_1  and  C_2
REMARK    2  A    between atoms: C_2  and  C_3
REMARK    3  A    between atoms: C_8  and  N_9
REMARK    4  A    between atoms: N_12  and  C_13
REMARK    5  A    between atoms: C_13  and  C_14
REMARK    6  A    between atoms: C_14  and  O_15
REMARK    7  A    between atoms: C_14  and  C_16
REMARK    8  A    between atoms: C_16  and  C_17
REMARK    9  A    between atoms: C_17  and  N_18
REMARK   10  A    between atoms: C_19  and  C_21
REMARK                            x       y       z     vdW  Elec       q    Type
REMARK                         _______ _______ _______ _____ _____    ______ ____
ROOT
ATOM      1  C   UNL     1       5.107   5.554  18.612  0.00  0.00    +0.000 C 
ENDROOT
BRANCH   1   2
ATOM      2  O   UNL     1       5.426   5.948  17.277  0.00  0.00    +0.000 OA
ATOM      3  H   UNL     1       6.376   6.157  17.247  0.00  0.00    +0.000 HD
ENDBRANCH   1   2
BRANCH   1   4
ATOM      4  C   UNL     1       4.108   6.536  19.276  0.00  0.00    +0.000 C 
BRANCH   4   8
ATOM      5  N   UNL     1       1.494   9.072  18.964  0.00  0.00    +0.000 N 
ATOM      6  C   UNL     1       1.726   8.393  20.253  0.00  0.00    +0.000 C 
ATOM      7  C   UNL     1       1.807   6.850  20.110  0.00  0.00    +0.000 C 
ATOM      8  N   UNL     1       2.670   6.324  19.028  0.00  0.00    +0.000 NA
ATOM      9  C   UNL     1       2.271   7.026  17.776  0.00  0.00    +0.000 C 
ATOM     10  C   UNL     1       2.340   8.573  17.859  0.00  0.00    +0.000 C 
BRANCH   5  16
ATOM     11  C   UNL     1       0.444  11.347  18.849  0.00  0.00    +0.000 A 
ATOM     12  C   UNL     1      -0.724  12.108  18.584  0.00  0.00    +0.000 A 
ATOM     13  C   UNL     1      -1.865  11.479  18.151  0.00  0.00    +0.000 A 
ATOM     14  C   UNL     1      -1.907  10.127  17.999  0.00  0.00    +0.000 A 
ATOM     15  C   UNL     1      -0.814   9.339  18.284  0.00  0.00    +0.000 A 
ATOM     16  C   UNL     1       0.409   9.914  18.719  0.00  0.00    +0.000 A 
ATOM     17  O   UNL     1      -3.120   9.688  17.568  0.00  0.00    +0.000 OA
ATOM     18  C   UNL     1      -3.849  10.932  17.511  0.00  0.00    +0.000 C 
ATOM     19  O   UNL     1      -3.041  12.082  17.839  0.00  0.00    +0.000 OA
BRANCH  11  21
ATOM     20  C   UNL     1       1.494  13.567  19.729  0.00  0.00    +0.000 C 
ATOM     21  C   UNL     1       1.681  12.113  19.296  0.00  0.00    +0.000 C 
ENDBRANCH  11  21
ENDBRANCH   5  16
ENDBRANCH   4   8
ENDBRANCH   1   4
BRANCH   1  22
ATOM     22  C   UNL     1       6.416   5.474  19.411  0.00  0.00    +0.000 C 
BRANCH  22  23
ATOM     23  C   UNL     1       7.640   5.718  18.532  0.00  0.00    +0.000 C 
BRANCH  23  24
ATOM     24  N   UNL     1       8.213   7.015  18.751  0.00  0.00    +0.000 N 
ATOM     25  C   UNL     1       7.967   8.078  17.906  0.00  0.00    +0.000 C 
ATOM     26  O   UNL     1       7.302   7.971  16.880  0.00  0.00    +0.000 OA
ATOM     27  H   UNL     1       8.672   7.190  19.632  0.00  0.00    +0.000 HD
BRANCH  25  28
ATOM     28  C   UNL     1       8.535   9.327  18.348  0.00  0.00    +0.000 A 
ATOM     29  C   UNL     1       9.202   9.656  19.512  0.00  0.00    +0.000 A 
ATOM     30  C   UNL     1       9.540  11.031  19.462  0.00  0.00    +0.000 A 
ATOM     31  C   UNL     1      10.201  11.898  20.349  0.00  0.00    +0.000 A 
ATOM     32  C   UNL     1      10.374  13.236  19.988  0.00  0.00    +0.000 A 
ATOM     33  C   UNL     1       9.901  13.707  18.767  0.00  0.00    +0.000 A 
ATOM     34  C   UNL     1       9.243  12.859  17.865  0.00  0.00    +0.000 A 
ATOM     35  C   UNL     1       9.078  11.524  18.244  0.00  0.00    +0.000 A 
ATOM     36  N   UNL     1       8.485  10.472  17.583  0.00  0.00    +0.000 N 
ATOM     37  H   UNL     1       8.056  10.519  16.667  0.00  0.00    +0.000 HD
ENDBRANCH  25  28
ENDBRANCH  23  24
ENDBRANCH  22  23
ENDBRANCH   1  22
TORSDOF 9
ENDMDL
