MODEL 1
REMARK VINA RESULT:      -8.0      0.000      0.000
REMARK  Name = 
REMARK  6 active torsions:
REMARK  status: ('A' for Active; 'I' for Inactive)
REMARK    1  A    between atoms: C_1  and  O_2
REMARK    2  A    between atoms: O_2  and  C_3
REMARK    3  A    between atoms: C_3  and  C_5
REMARK    4  A    between atoms: C_5  and  N_6
REMARK    5  A    between atoms: C_9  and  O_10
REMARK    6  A    between atoms: O_10  and  C_11
REMARK                            x       y       z     vdW  Elec       q    Type
REMARK                         _______ _______ _______ _____ _____    ______ ____
ROOT
ATOM      1  N   UNL     1       3.552   5.700  18.831  0.00  0.00    +0.000 N 
ATOM      2  C   UNL     1       2.794   6.856  18.598  0.00  0.00    +0.000 C 
ATOM      3  O   UNL     1       2.765   7.399  17.494  0.00  0.00    +0.000 OA
ATOM      4  C   UNL     1       2.210   7.471  19.894  0.00  0.00    +0.000 C 
ATOM      5  C   UNL     1       1.225   6.538  20.614  0.00  0.00    +0.000 C 
ATOM      6  C   UNL     1       1.835   5.193  21.016  0.00  0.00    +0.000 C 
ATOM      7  C   UNL     1       1.899   4.255  19.834  0.00  0.00    +0.000 A 
ATOM      8  C   UNL     1       1.052   3.142  19.768  0.00  0.00    +0.000 A 
ATOM      9  C   UNL     1       1.057   2.321  18.641  0.00  0.00    +0.000 A 
ATOM     10  C   UNL     1       1.920   2.592  17.579  0.00  0.00    +0.000 A 
ATOM     11  C   UNL     1       2.795   3.677  17.650  0.00  0.00    +0.000 A 
ATOM     12  C   UNL     1       2.781   4.512  18.772  0.00  0.00    +0.000 A 
ENDROOT
BRANCH   1  13
ATOM     13  C   UNL     1       4.907   5.700  18.276  0.00  0.00    +0.000 C 
BRANCH  13  14
ATOM     14  C   UNL     1       5.775   4.845  19.208  0.00  0.00    +0.000 C 
ATOM     15  O   UNL     1       5.650   3.638  19.383  0.00  0.00    +0.000 OA
BRANCH  14  17
ATOM     16  C   UNL     1       7.926   5.747  19.050  0.00  0.00    +0.000 C 
ATOM     17  O   UNL     1       6.725   5.607  19.819  0.00  0.00    +0.000 OA
ENDBRANCH  14  17
ENDBRANCH  13  14
ENDBRANCH   1  13
BRANCH   4  18
ATOM     18  O   UNL     1       1.536   8.716  19.667  0.00  0.00    +0.000 OA
BRANCH  18  19
ATOM     19  C   UNL     1       0.878   9.247  20.747  0.00  0.00    +0.000 A 
ATOM     20  C   UNL     1       1.131   8.925  22.084  0.00  0.00    +0.000 A 
ATOM     21  C   UNL     1       0.399   9.513  23.110  0.00  0.00    +0.000 A 
ATOM     22  C   UNL     1      -0.589  10.444  22.814  0.00  0.00    +0.000 A 
ATOM     23  C   UNL     1      -0.833  10.795  21.487  0.00  0.00    +0.000 A 
ATOM     24  C   UNL     1      -0.095  10.204  20.458  0.00  0.00    +0.000 A 
ENDBRANCH  18  19
ENDBRANCH   4  18
TORSDOF 5
ENDMDL
MODEL 2
REMARK VINA RESULT:      -8.0      2.795      6.966
REMARK  Name = 
REMARK  6 active torsions:
REMARK  status: ('A' for Active; 'I' for Inactive)
REMARK    1  A    between atoms: C_1  and  O_2
REMARK    2  A    between atoms: O_2  and  C_3
REMARK    3  A    between atoms: C_3  and  C_5
REMARK    4  A    between atoms: C_5  and  N_6
REMARK    5  A    between atoms: C_9  and  O_10
REMARK    6  A    between atoms: O_10  and  C_11
REMARK                            x       y       z     vdW  Elec       q    Type
REMARK                         _______ _______ _______ _____ _____    ______ ____
ROOT
ATOM      1  N   UNL     1       3.295   5.581  18.711  0.00  0.00    +0.000 N 
ATOM      2  C   UNL     1       4.595   5.169  18.381  0.00  0.00    +0.000 C 
ATOM      3  O   UNL     1       5.572   5.521  19.042  0.00  0.00    +0.000 OA
ATOM      4  C   UNL     1       4.674   4.443  17.016  0.00  0.00    +0.000 C 
ATOM      5  C   UNL     1       3.866   3.137  16.980  0.00  0.00    +0.000 C 
ATOM      6  C   UNL     1       2.377   3.327  17.277  0.00  0.00    +0.000 C 
ATOM      7  C   UNL     1       2.137   3.464  18.761  0.00  0.00    +0.000 A 
ATOM      8  C   UNL     1       1.506   2.437  19.474  0.00  0.00    +0.000 A 
ATOM      9  C   UNL     1       1.355   2.530  20.857  0.00  0.00    +0.000 A 
ATOM     10  C   UNL     1       1.814   3.657  21.538  0.00  0.00    +0.000 A 
ATOM     11  C   UNL     1       2.409   4.705  20.834  0.00  0.00    +0.000 A 
ATOM     12  C   UNL     1       2.578   4.607  19.449  0.00  0.00    +0.000 A 
ENDROOT
BRANCH   1  13
ATOM     13  C   UNL     1       3.140   6.996  19.055  0.00  0.00    +0.000 C 
BRANCH  13  14
ATOM     14  C   UNL     1       2.872   7.750  17.746  0.00  0.00    +0.000 C 
ATOM     15  O   UNL     1       3.646   7.822  16.798  0.00  0.00    +0.000 OA
BRANCH  14  17
ATOM     16  C   UNL     1       1.675   9.738  18.030  0.00  0.00    +0.000 C 
ATOM     17  O   UNL     1       1.639   8.329  17.766  0.00  0.00    +0.000 OA
ENDBRANCH  14  17
ENDBRANCH  13  14
ENDBRANCH   1  13
BRANCH   4  18
ATOM     18  O   UNL     1       6.019   4.128  16.628  0.00  0.00    +0.000 OA
BRANCH  18  19
ATOM     19  C   UNL     1       6.289   4.208  15.286  0.00  0.00    +0.000 A 
ATOM     20  C   UNL     1       5.598   3.523  14.281  0.00  0.00    +0.000 A 
ATOM     21  C   UNL     1       5.957   3.664  12.946  0.00  0.00    +0.000 A 
ATOM     22  C   UNL     1       7.006   4.504  12.592  0.00  0.00    +0.000 A 
ATOM     23  C   UNL     1       7.686   5.214  13.581  0.00  0.00    +0.000 A 
ATOM     24  C   UNL     1       7.322   5.072  14.923  0.00  0.00    +0.000 A 
ENDBRANCH  18  19
ENDBRANCH   4  18
TORSDOF 5
ENDMDL
MODEL 3
REMARK VINA RESULT:      -7.7      2.738      6.910
REMARK  Name = 
REMARK  6 active torsions:
REMARK  status: ('A' for Active; 'I' for Inactive)
REMARK    1  A    between atoms: C_1  and  O_2
REMARK    2  A    between atoms: O_2  and  C_3
REMARK    3  A    between atoms: C_3  and  C_5
REMARK    4  A    between atoms: C_5  and  N_6
REMARK    5  A    between atoms: C_9  and  O_10
REMARK    6  A    between atoms: O_10  and  C_11
REMARK                            x       y       z     vdW  Elec       q    Type
REMARK                         _______ _______ _______ _____ _____    ______ ____
ROOT
ATOM      1  N   UNL     1       3.313   5.613  18.819  0.00  0.00    +0.000 N 
ATOM      2  C   UNL     1       4.615   5.192  18.513  0.00  0.00    +0.000 C 
ATOM      3  O   UNL     1       5.574   5.479  19.229  0.00  0.00    +0.000 OA
ATOM      4  C   UNL     1       4.730   4.548  17.109  0.00  0.00    +0.000 C 
ATOM      5  C   UNL     1       3.897   3.266  16.963  0.00  0.00    +0.000 C 
ATOM      6  C   UNL     1       2.402   3.473  17.217  0.00  0.00    +0.000 C 
ATOM      7  C   UNL     1       2.108   3.525  18.696  0.00  0.00    +0.000 A 
ATOM      8  C   UNL     1       1.429   2.471  19.321  0.00  0.00    +0.000 A 
ATOM      9  C   UNL     1       1.228   2.484  20.701  0.00  0.00    +0.000 A 
ATOM     10  C   UNL     1       1.684   3.557  21.466  0.00  0.00    +0.000 A 
ATOM     11  C   UNL     1       2.328   4.630  20.850  0.00  0.00    +0.000 A 
ATOM     12  C   UNL     1       2.547   4.613  19.469  0.00  0.00    +0.000 A 
ENDROOT
BRANCH   1  13
ATOM     13  C   UNL     1       3.175   7.007  19.244  0.00  0.00    +0.000 C 
BRANCH  13  14
ATOM     14  C   UNL     1       2.712   7.807  18.019  0.00  0.00    +0.000 C 
ATOM     15  O   UNL     1       3.231   7.766  16.909  0.00  0.00    +0.000 OA
BRANCH  14  17
ATOM     16  C   UNL     1       1.768   9.943  17.927  0.00  0.00    +0.000 C 
ATOM     17  O   UNL     1       1.628   8.573  18.323  0.00  0.00    +0.000 OA
ENDBRANCH  14  17
ENDBRANCH  13  14
ENDBRANCH   1  13
BRANCH   4  18
ATOM     18  O   UNL     1       6.081   4.225  16.752  0.00  0.00    +0.000 OA
BRANCH  18  19
ATOM     19  C   UNL     1       6.398   4.357  15.423  0.00  0.00    +0.000 A 
ATOM     20  C   UNL     1       7.413   5.172  14.912  0.00  0.00    +0.000 A 
ATOM     21  C   UNL     1       7.648   5.243  13.544  0.00  0.00    +0.000 A 
ATOM     22  C   UNL     1       6.879   4.490  12.665  0.00  0.00    +0.000 A 
ATOM     23  C   UNL     1       5.882   3.653  13.163  0.00  0.00    +0.000 A 
ATOM     24  C   UNL     1       5.649   3.581  14.540  0.00  0.00    +0.000 A 
ENDBRANCH  18  19
ENDBRANCH   4  18
TORSDOF 5
ENDMDL
MODEL 4
REMARK VINA RESULT:      -7.5      1.554      5.725
REMARK  Name = 
REMARK  6 active torsions:
REMARK  status: ('A' for Active; 'I' for Inactive)
REMARK    1  A    between atoms: C_1  and  O_2
REMARK    2  A    between atoms: O_2  and  C_3
REMARK    3  A    between atoms: C_3  and  C_5
REMARK    4  A    between atoms: C_5  and  N_6
REMARK    5  A    between atoms: C_9  and  O_10
REMARK    6  A    between atoms: O_10  and  C_11
REMARK                            x       y       z     vdW  Elec       q    Type
REMARK                         _______ _______ _______ _____ _____    ______ ____
ROOT
ATOM      1  N   UNL     1       2.845   5.649  19.047  0.00  0.00    +0.000 N 
ATOM      2  C   UNL     1       4.215   5.360  18.978  0.00  0.00    +0.000 C 
ATOM      3  O   UNL     1       4.963   5.536  19.940  0.00  0.00    +0.000 OA
ATOM      4  C   UNL     1       4.694   5.026  17.544  0.00  0.00    +0.000 C 
ATOM      5  C   UNL     1       4.034   3.765  16.966  0.00  0.00    +0.000 C 
ATOM      6  C   UNL     1       2.508   3.847  16.898  0.00  0.00    +0.000 C 
ATOM      7  C   UNL     1       1.893   3.579  18.250  0.00  0.00    +0.000 A 
ATOM      8  C   UNL     1       1.193   2.389  18.486  0.00  0.00    +0.000 A 
ATOM      9  C   UNL     1       0.693   2.107  19.757  0.00  0.00    +0.000 A 
ATOM     10  C   UNL     1       0.870   3.018  20.797  0.00  0.00    +0.000 A 
ATOM     11  C   UNL     1       1.532   4.224  20.566  0.00  0.00    +0.000 A 
ATOM     12  C   UNL     1       2.050   4.502  19.296  0.00  0.00    +0.000 A 
ENDROOT
BRANCH   1  13
ATOM     13  C   UNL     1       2.490   6.918  19.685  0.00  0.00    +0.000 C 
BRANCH  13  14
ATOM     14  C   UNL     1       2.292   7.945  18.564  0.00  0.00    +0.000 C 
ATOM     15  O   UNL     1       2.828   7.903  17.461  0.00  0.00    +0.000 OA
BRANCH  14  17
ATOM     16  C   UNL     1       1.109   8.886  20.347  0.00  0.00    +0.000 C 
ATOM     17  O   UNL     1       1.424   8.922  18.949  0.00  0.00    +0.000 OA
ENDBRANCH  14  17
ENDBRANCH  13  14
ENDBRANCH   1  13
BRANCH   4  18
ATOM     18  O   UNL     1       6.115   4.846  17.458  0.00  0.00    +0.000 OA
BRANCH  18  19
ATOM     19  C   UNL     1       6.878   5.935  17.796  0.00  0.00    +0.000 A 
ATOM     20  C   UNL     1       7.831   5.967  18.819  0.00  0.00    +0.000 A 
ATOM     21  C   UNL     1       8.548   7.127  19.089  0.00  0.00    +0.000 A 
ATOM     22  C   UNL     1       8.332   8.271  18.331  0.00  0.00    +0.000 A 
ATOM     23  C   UNL     1       7.405   8.245  17.290  0.00  0.00    +0.000 A 
ATOM     24  C   UNL     1       6.687   7.077  17.019  0.00  0.00    +0.000 A 
ENDBRANCH  18  19
ENDBRANCH   4  18
TORSDOF 5
ENDMDL
MODEL 5
REMARK VINA RESULT:      -7.5      2.197      4.164
REMARK  Name = 
REMARK  6 active torsions:
REMARK  status: ('A' for Active; 'I' for Inactive)
REMARK    1  A    between atoms: C_1  and  O_2
REMARK    2  A    between atoms: O_2  and  C_3
REMARK    3  A    between atoms: C_3  and  C_5
REMARK    4  A    between atoms: C_5  and  N_6
REMARK    5  A    between atoms: C_9  and  O_10
REMARK    6  A    between atoms: O_10  and  C_11
REMARK                            x       y       z     vdW  Elec       q    Type
REMARK                         _______ _______ _______ _____ _____    ______ ____
ROOT
ATOM      1  N   UNL     1       2.383   6.029  19.133  0.00  0.00    +0.000 N 
ATOM      2  C   UNL     1       2.091   7.242  19.774  0.00  0.00    +0.000 C 
ATOM      3  O   UNL     1       2.023   7.326  21.000  0.00  0.00    +0.000 OA
ATOM      4  C   UNL     1       1.657   8.359  18.793  0.00  0.00    +0.000 C 
ATOM      5  C   UNL     1       2.756   8.741  17.791  0.00  0.00    +0.000 C 
ATOM      6  C   UNL     1       3.232   7.573  16.925  0.00  0.00    +0.000 C 
ATOM      7  C   UNL     1       4.196   6.696  17.685  0.00  0.00    +0.000 A 
ATOM      8  C   UNL     1       5.556   6.681  17.349  0.00  0.00    +0.000 A 
ATOM      9  C   UNL     1       6.458   5.931  18.102  0.00  0.00    +0.000 A 
ATOM     10  C   UNL     1       6.010   5.174  19.184  0.00  0.00    +0.000 A 
ATOM     11  C   UNL     1       4.653   5.150  19.506  0.00  0.00    +0.000 A 
ATOM     12  C   UNL     1       3.747   5.915  18.763  0.00  0.00    +0.000 A 
ENDROOT
BRANCH   1  13
ATOM     13  C   UNL     1       1.679   4.851  19.641  0.00  0.00    +0.000 C 
BRANCH  13  14
ATOM     14  C   UNL     1       1.554   3.864  18.474  0.00  0.00    +0.000 C 
ATOM     15  O   UNL     1       1.101   4.131  17.366  0.00  0.00    +0.000 OA
BRANCH  14  17
ATOM     16  C   UNL     1       2.941   2.082  17.871  0.00  0.00    +0.000 C 
ATOM     17  O   UNL     1       2.026   2.636  18.825  0.00  0.00    +0.000 OA
ENDBRANCH  14  17
ENDBRANCH  13  14
ENDBRANCH   1  13
BRANCH   4  18
ATOM     18  O   UNL     1       1.246   9.560  19.461  0.00  0.00    +0.000 OA
BRANCH  18  19
ATOM     19  C   UNL     1       0.059  10.103  19.040  0.00  0.00    +0.000 A 
ATOM     20  C   UNL     1      -0.609   9.765  17.859  0.00  0.00    +0.000 A 
ATOM     21  C   UNL     1      -1.807  10.383  17.516  0.00  0.00    +0.000 A 
ATOM     22  C   UNL     1      -2.362  11.340  18.357  0.00  0.00    +0.000 A 
ATOM     23  C   UNL     1      -1.720  11.667  19.550  0.00  0.00    +0.000 A 
ATOM     24  C   UNL     1      -0.517  11.043  19.894  0.00  0.00    +0.000 A 
ENDBRANCH  18  19
ENDBRANCH   4  18
TORSDOF 5
ENDMDL
MODEL 6
REMARK VINA RESULT:      -7.4      2.263      5.843
REMARK  Name = 
REMARK  6 active torsions:
REMARK  status: ('A' for Active; 'I' for Inactive)
REMARK    1  A    between atoms: C_1  and  O_2
REMARK    2  A    between atoms: O_2  and  C_3
REMARK    3  A    between atoms: C_3  and  C_5
REMARK    4  A    between atoms: C_5  and  N_6
REMARK    5  A    between atoms: C_9  and  O_10
REMARK    6  A    between atoms: O_10  and  C_11
REMARK                            x       y       z     vdW  Elec       q    Type
REMARK                         _______ _______ _______ _____ _____    ______ ____
ROOT
ATOM      1  N   UNL     1       2.811   5.714  18.777  0.00  0.00    +0.000 N 
ATOM      2  C   UNL     1       4.191   5.465  18.819  0.00  0.00    +0.000 C 
ATOM      3  O   UNL     1       4.873   5.764  19.800  0.00  0.00    +0.000 OA
ATOM      4  C   UNL     1       4.766   5.003  17.458  0.00  0.00    +0.000 C 
ATOM      5  C   UNL     1       4.178   3.669  16.976  0.00  0.00    +0.000 C 
ATOM      6  C   UNL     1       2.657   3.692  16.811  0.00  0.00    +0.000 C 
ATOM      7  C   UNL     1       1.968   3.542  18.146  0.00  0.00    +0.000 A 
ATOM      8  C   UNL     1       1.288   2.360  18.462  0.00  0.00    +0.000 A 
ATOM      9  C   UNL     1       0.719   2.192  19.724  0.00  0.00    +0.000 A 
ATOM     10  C   UNL     1       0.806   3.210  20.673  0.00  0.00    +0.000 A 
ATOM     11  C   UNL     1       1.448   4.408  20.357  0.00  0.00    +0.000 A 
ATOM     12  C   UNL     1       2.034   4.572  19.098  0.00  0.00    +0.000 A 
ENDROOT
BRANCH   1  13
ATOM     13  C   UNL     1       2.383   7.028  19.259  0.00  0.00    +0.000 C 
BRANCH  13  14
ATOM     14  C   UNL     1       2.347   7.963  18.043  0.00  0.00    +0.000 C 
ATOM     15  O   UNL     1       3.169   7.973  17.133  0.00  0.00    +0.000 OA
BRANCH  14  17
ATOM     16  C   UNL     1       1.606  10.172  18.233  0.00  0.00    +0.000 C 
ATOM     17  O   UNL     1       1.264   8.787  18.098  0.00  0.00    +0.000 OA
ENDBRANCH  14  17
ENDBRANCH  13  14
ENDBRANCH   1  13
BRANCH   4  18
ATOM     18  O   UNL     1       6.194   4.864  17.474  0.00  0.00    +0.000 OA
BRANCH  18  19
ATOM     19  C   UNL     1       6.905   6.006  17.744  0.00  0.00    +0.000 A 
ATOM     20  C   UNL     1       6.791   7.211  17.044  0.00  0.00    +0.000 A 
ATOM     21  C   UNL     1       7.566   8.312  17.391  0.00  0.00    +0.000 A 
ATOM     22  C   UNL     1       8.459   8.229  18.452  0.00  0.00    +0.000 A 
ATOM     23  C   UNL     1       8.562   7.042  19.175  0.00  0.00    +0.000 A 
ATOM     24  C   UNL     1       7.780   5.937  18.827  0.00  0.00    +0.000 A 
ENDBRANCH  18  19
ENDBRANCH   4  18
TORSDOF 5
ENDMDL
MODEL 7
REMARK VINA RESULT:      -7.3      1.328      1.787
REMARK  Name = 
REMARK  6 active torsions:
REMARK  status: ('A' for Active; 'I' for Inactive)
REMARK    1  A    between atoms: C_1  and  O_2
REMARK    2  A    between atoms: O_2  and  C_3
REMARK    3  A    between atoms: C_3  and  C_5
REMARK    4  A    between atoms: C_5  and  N_6
REMARK    5  A    between atoms: C_9  and  O_10
REMARK    6  A    between atoms: O_10  and  C_11
REMARK                            x       y       z     vdW  Elec       q    Type
REMARK                         _______ _______ _______ _____ _____    ______ ____
ROOT
ATOM      1  N   UNL     1       4.297   4.863  18.574  0.00  0.00    +0.000 N 
ATOM      2  C   UNL     1       3.792   6.006  17.940  0.00  0.00    +0.000 C 
ATOM      3  O   UNL     1       3.970   6.212  16.739  0.00  0.00    +0.000 OA
ATOM      4  C   UNL     1       3.210   7.044  18.931  0.00  0.00    +0.000 C 
ATOM      5  C   UNL     1       2.004   6.512  19.720  0.00  0.00    +0.000 C 
ATOM      6  C   UNL     1       2.313   5.261  20.545  0.00  0.00    +0.000 C 
ATOM      7  C   UNL     1       2.316   4.029  19.673  0.00  0.00    +0.000 A 
ATOM      8  C   UNL     1       1.289   3.083  19.780  0.00  0.00    +0.000 A 
ATOM      9  C   UNL     1       1.251   1.985  18.920  0.00  0.00    +0.000 A 
ATOM     10  C   UNL     1       2.247   1.812  17.961  0.00  0.00    +0.000 A 
ATOM     11  C   UNL     1       3.297   2.727  17.869  0.00  0.00    +0.000 A 
ATOM     12  C   UNL     1       3.329   3.838  18.718  0.00  0.00    +0.000 A 
ENDROOT
BRANCH   1  13
ATOM     13  C   UNL     1       5.676   4.501  18.240  0.00  0.00    +0.000 C 
BRANCH  13  14
ATOM     14  C   UNL     1       6.591   5.470  18.999  0.00  0.00    +0.000 C 
ATOM     15  O   UNL     1       6.959   5.335  20.161  0.00  0.00    +0.000 OA
BRANCH  14  17
ATOM     16  C   UNL     1       7.331   6.114  16.877  0.00  0.00    +0.000 C 
ATOM     17  O   UNL     1       6.960   6.512  18.203  0.00  0.00    +0.000 OA
ENDBRANCH  14  17
ENDBRANCH  13  14
ENDBRANCH   1  13
BRANCH   4  18
ATOM     18  O   UNL     1       2.802   8.261  18.290  0.00  0.00    +0.000 OA
BRANCH  18  19
ATOM     19  C   UNL     1       1.713   8.891  18.838  0.00  0.00    +0.000 A 
ATOM     20  C   UNL     1       1.464   9.026  20.207  0.00  0.00    +0.000 A 
ATOM     21  C   UNL     1       0.323   9.676  20.663  0.00  0.00    +0.000 A 
ATOM     22  C   UNL     1      -0.581  10.214  19.755  0.00  0.00    +0.000 A 
ATOM     23  C   UNL     1      -0.330  10.111  18.388  0.00  0.00    +0.000 A 
ATOM     24  C   UNL     1       0.819   9.459  17.931  0.00  0.00    +0.000 A 
ENDBRANCH  18  19
ENDBRANCH   4  18
TORSDOF 5
ENDMDL
MODEL 8
REMARK VINA RESULT:      -7.3      3.398      5.526
REMARK  Name = 
REMARK  6 active torsions:
REMARK  status: ('A' for Active; 'I' for Inactive)
REMARK    1  A    between atoms: C_1  and  O_2
REMARK    2  A    between atoms: O_2  and  C_3
REMARK    3  A    between atoms: C_3  and  C_5
REMARK    4  A    between atoms: C_5  and  N_6
REMARK    5  A    between atoms: C_9  and  O_10
REMARK    6  A    between atoms: O_10  and  C_11
REMARK                            x       y       z     vdW  Elec       q    Type
REMARK                         _______ _______ _______ _____ _____    ______ ____
ROOT
ATOM      1  N   UNL     1       6.530   5.612  16.304  0.00  0.00    +0.000 N 
ATOM      2  C   UNL     1       5.229   6.070  16.557  0.00  0.00    +0.000 C 
ATOM      3  O   UNL     1       4.914   7.248  16.390  0.00  0.00    +0.000 OA
ATOM      4  C   UNL     1       4.339   5.015  17.259  0.00  0.00    +0.000 C 
ATOM      5  C   UNL     1       4.115   3.755  16.410  0.00  0.00    +0.000 C 
ATOM      6  C   UNL     1       5.409   3.035  16.025  0.00  0.00    +0.000 C 
ATOM      7  C   UNL     1       6.085   3.725  14.866  0.00  0.00    +0.000 A 
ATOM      8  C   UNL     1       6.113   3.123  13.602  0.00  0.00    +0.000 A 
ATOM      9  C   UNL     1       6.669   3.796  12.514  0.00  0.00    +0.000 A 
ATOM     10  C   UNL     1       7.220   5.065  12.683  0.00  0.00    +0.000 A 
ATOM     11  C   UNL     1       7.233   5.660  13.945  0.00  0.00    +0.000 A 
ATOM     12  C   UNL     1       6.661   4.995  15.034  0.00  0.00    +0.000 A 
ENDROOT
BRANCH   1  13
ATOM     13  C   UNL     1       7.615   6.460  16.802  0.00  0.00    +0.000 C 
BRANCH  13  14
ATOM     14  C   UNL     1       7.822   6.103  18.279  0.00  0.00    +0.000 C 
ATOM     15  O   UNL     1       7.623   5.000  18.776  0.00  0.00    +0.000 OA
BRANCH  14  17
ATOM     16  C   UNL     1       8.280   8.394  18.216  0.00  0.00    +0.000 C 
ATOM     17  O   UNL     1       8.272   7.181  18.979  0.00  0.00    +0.000 OA
ENDBRANCH  14  17
ENDBRANCH  13  14
ENDBRANCH   1  13
BRANCH   4  18
ATOM     18  O   UNL     1       3.049   5.526  17.622  0.00  0.00    +0.000 OA
BRANCH  18  19
ATOM     19  C   UNL     1       2.403   4.858  18.632  0.00  0.00    +0.000 A 
ATOM     20  C   UNL     1       1.419   3.881  18.453  0.00  0.00    +0.000 A 
ATOM     21  C   UNL     1       0.816   3.269  19.546  0.00  0.00    +0.000 A 
ATOM     22  C   UNL     1       1.198   3.615  20.836  0.00  0.00    +0.000 A 
ATOM     23  C   UNL     1       2.198   4.568  21.028  0.00  0.00    +0.000 A 
ATOM     24  C   UNL     1       2.804   5.181  19.928  0.00  0.00    +0.000 A 
ENDBRANCH  18  19
ENDBRANCH   4  18
TORSDOF 5
ENDMDL
MODEL 9
REMARK VINA RESULT:      -7.3      2.134      2.583
REMARK  Name = 
REMARK  6 active torsions:
REMARK  status: ('A' for Active; 'I' for Inactive)
REMARK    1  A    between atoms: C_1  and  O_2
REMARK    2  A    between atoms: O_2  and  C_3
REMARK    3  A    between atoms: C_3  and  C_5
REMARK    4  A    between atoms: C_5  and  N_6
REMARK    5  A    between atoms: C_9  and  O_10
REMARK    6  A    between atoms: O_10  and  C_11
REMARK                            x       y       z     vdW  Elec       q    Type
REMARK                         _______ _______ _______ _____ _____    ______ ____
ROOT
ATOM      1  N   UNL     1       4.940   5.739  17.844  0.00  0.00    +0.000 N 
ATOM      2  C   UNL     1       4.266   6.686  17.060  0.00  0.00    +0.000 C 
ATOM      3  O   UNL     1       4.450   6.770  15.846  0.00  0.00    +0.000 OA
ATOM      4  C   UNL     1       3.472   7.716  17.900  0.00  0.00    +0.000 C 
ATOM      5  C   UNL     1       2.350   7.080  18.733  0.00  0.00    +0.000 C 
ATOM      6  C   UNL     1       2.843   6.016  19.717  0.00  0.00    +0.000 C 
ATOM      7  C   UNL     1       3.096   4.706  19.011  0.00  0.00    +0.000 A 
ATOM      8  C   UNL     1       2.249   3.612  19.224  0.00  0.00    +0.000 A 
ATOM      9  C   UNL     1       2.438   2.427  18.512  0.00  0.00    +0.000 A 
ATOM     10  C   UNL     1       3.485   2.317  17.598  0.00  0.00    +0.000 A 
ATOM     11  C   UNL     1       4.359   3.387  17.406  0.00  0.00    +0.000 A 
ATOM     12  C   UNL     1       4.163   4.583  18.105  0.00  0.00    +0.000 A 
ENDROOT
BRANCH   1  13
ATOM     13  C   UNL     1       6.372   5.593  17.580  0.00  0.00    +0.000 C 
BRANCH  13  14
ATOM     14  C   UNL     1       7.105   5.901  18.892  0.00  0.00    +0.000 C 
ATOM     15  O   UNL     1       6.908   5.338  19.963  0.00  0.00    +0.000 OA
BRANCH  14  17
ATOM     16  C   UNL     1       7.751   7.726  17.582  0.00  0.00    +0.000 C 
ATOM     17  O   UNL     1       8.026   6.888  18.712  0.00  0.00    +0.000 OA
ENDBRANCH  14  17
ENDBRANCH  13  14
ENDBRANCH   1  13
BRANCH   4  18
ATOM     18  O   UNL     1       2.881   8.751  17.101  0.00  0.00    +0.000 OA
BRANCH  18  19
ATOM     19  C   UNL     1       1.940   9.528  17.728  0.00  0.00    +0.000 A 
ATOM     20  C   UNL     1       0.600   9.176  17.918  0.00  0.00    +0.000 A 
ATOM     21  C   UNL     1      -0.280  10.040  18.559  0.00  0.00    +0.000 A 
ATOM     22  C   UNL     1       0.170  11.267  19.033  0.00  0.00    +0.000 A 
ATOM     23  C   UNL     1       1.510  11.618  18.875  0.00  0.00    +0.000 A 
ATOM     24  C   UNL     1       2.393  10.746  18.232  0.00  0.00    +0.000 A 
ENDBRANCH  18  19
ENDBRANCH   4  18
TORSDOF 5
ENDMDL
