MODEL 1
REMARK VINA RESULT:      -9.5      0.000      0.000
REMARK  Name = 
REMARK  6 active torsions:
REMARK  status: ('A' for Active; 'I' for Inactive)
REMARK    1  A    between atoms: C_1  and  C_2
REMARK    2  A    between atoms: C_2  and  C_3
REMARK    3  A    between atoms: N_7  and  C_8
REMARK    4  A    between atoms: C_11  and  N_12
REMARK    5  A    between atoms: C_13  and  C_15
REMARK    6  A    between atoms: C_26  and  C_27
REMARK                            x       y       z     vdW  Elec       q    Type
REMARK                         _______ _______ _______ _____ _____    ______ ____
ROOT
ATOM      1  C   UNL     1       2.684   6.425  19.274  0.00  0.00    +0.000 C 
ATOM      2  C   UNL     1       2.387   6.862  17.836  0.00  0.00    +0.000 C 
ATOM      3  C   UNL     1       2.444   8.385  17.721  0.00  0.00    +0.000 C 
ATOM      4  C   UNL     1       1.489   9.080  18.701  0.00  0.00    +0.000 C 
ATOM      5  C   UNL     1       1.644   8.568  20.142  0.00  0.00    +0.000 C 
ATOM      6  C   UNL     1       1.633   7.038  20.216  0.00  0.00    +0.000 C 
ENDROOT
BRANCH   1  13
ATOM      7  C   UNL     1       3.430   1.521  18.300  0.00  0.00    +0.000 C 
ATOM      8  C   UNL     1       2.651   2.737  18.795  0.00  0.00    +0.000 C 
ATOM      9  C   UNL     1       1.144   2.481  18.594  0.00  0.00    +0.000 C 
ATOM     10  O   UNL     1       2.842   2.882  20.216  0.00  0.00    +0.000 OA
ATOM     11  C   UNL     1       2.691   4.212  20.523  0.00  0.00    +0.000 C 
ATOM     12  O   UNL     1       2.511   4.612  21.658  0.00  0.00    +0.000 OA
ATOM     13  N   UNL     1       2.807   4.968  19.382  0.00  0.00    +0.000 N 
ATOM     14  C   UNL     1       3.079   4.113  18.239  0.00  0.00    +0.000 C 
BRANCH  14  15
ATOM     15  C   UNL     1       4.525   4.245  17.774  0.00  0.00    +0.000 A 
ATOM     16  C   UNL     1       5.566   4.521  18.681  0.00  0.00    +0.000 A 
ATOM     17  C   UNL     1       6.874   4.724  18.243  0.00  0.00    +0.000 A 
ATOM     18  C   UNL     1       7.176   4.624  16.889  0.00  0.00    +0.000 A 
ATOM     19  C   UNL     1       6.173   4.305  15.978  0.00  0.00    +0.000 A 
ATOM     20  C   UNL     1       4.856   4.114  16.415  0.00  0.00    +0.000 A 
ENDBRANCH  14  15
ENDBRANCH   1  13
BRANCH   4  21
ATOM     21  N   UNL     1       1.570  10.539  18.607  0.00  0.00    +0.000 N 
ATOM     22  C   UNL     1       0.512  11.393  18.829  0.00  0.00    +0.000 C 
ATOM     23  O   UNL     1      -0.619  11.017  19.114  0.00  0.00    +0.000 OA
ATOM     24  H   UNL     1       2.491  10.928  18.475  0.00  0.00    +0.000 HD
BRANCH  22  25
ATOM     25  C   UNL     1       0.839  12.859  18.749  0.00  0.00    +0.000 A 
ATOM     26  C   UNL     1      -0.068  13.925  19.180  0.00  0.00    +0.000 A 
ATOM     27  C   UNL     1       0.293  15.222  19.142  0.00  0.00    +0.000 A 
ATOM     28  C   UNL     1       1.593  15.584  18.688  0.00  0.00    +0.000 A 
ATOM     29  N   UNL     1       2.183  16.755  18.584  0.00  0.00    +0.000 NA
ATOM     30  C   UNL     1       3.445  16.484  18.120  0.00  0.00    +0.000 A 
ATOM     31  C   UNL     1       3.621  15.134  17.924  0.00  0.00    +0.000 A 
ATOM     32  N   UNL     1       2.434  14.549  18.296  0.00  0.00    +0.000 N 
ATOM     33  C   UNL     1       2.071  13.206  18.322  0.00  0.00    +0.000 A 
ENDBRANCH  22  25
ENDBRANCH   4  21
TORSDOF 4
ENDMDL
MODEL 2
REMARK VINA RESULT:      -9.3      0.690      1.337
REMARK  Name = 
REMARK  6 active torsions:
REMARK  status: ('A' for Active; 'I' for Inactive)
REMARK    1  A    between atoms: C_1  and  C_2
REMARK    2  A    between atoms: C_2  and  C_3
REMARK    3  A    between atoms: N_7  and  C_8
REMARK    4  A    between atoms: C_11  and  N_12
REMARK    5  A    between atoms: C_13  and  C_15
REMARK    6  A    between atoms: C_26  and  C_27
REMARK                            x       y       z     vdW  Elec       q    Type
REMARK                         _______ _______ _______ _____ _____    ______ ____
ROOT
ATOM      1  C   UNL     1       2.660   6.453  19.317  0.00  0.00    +0.000 C 
ATOM      2  C   UNL     1       2.385   6.918  17.883  0.00  0.00    +0.000 C 
ATOM      3  C   UNL     1       2.463   8.442  17.794  0.00  0.00    +0.000 C 
ATOM      4  C   UNL     1       1.506   9.133  18.776  0.00  0.00    +0.000 C 
ATOM      5  C   UNL     1       1.639   8.595  20.210  0.00  0.00    +0.000 C 
ATOM      6  C   UNL     1       1.606   7.065  20.258  0.00  0.00    +0.000 C 
ENDROOT
BRANCH   1  13
ATOM      7  C   UNL     1       3.331   1.554  18.262  0.00  0.00    +0.000 C 
ATOM      8  C   UNL     1       2.571   2.774  18.779  0.00  0.00    +0.000 C 
ATOM      9  C   UNL     1       1.061   2.542  18.580  0.00  0.00    +0.000 C 
ATOM     10  O   UNL     1       2.771   2.893  20.201  0.00  0.00    +0.000 OA
ATOM     11  C   UNL     1       2.640   4.221  20.530  0.00  0.00    +0.000 C 
ATOM     12  O   UNL     1       2.469   4.605  21.672  0.00  0.00    +0.000 OA
ATOM     13  N   UNL     1       2.762   4.992  19.401  0.00  0.00    +0.000 N 
ATOM     14  C   UNL     1       3.018   4.153  18.243  0.00  0.00    +0.000 C 
BRANCH  14  15
ATOM     15  C   UNL     1       4.463   4.271  17.774  0.00  0.00    +0.000 A 
ATOM     16  C   UNL     1       5.511   4.518  18.681  0.00  0.00    +0.000 A 
ATOM     17  C   UNL     1       6.821   4.709  18.241  0.00  0.00    +0.000 A 
ATOM     18  C   UNL     1       7.116   4.626  16.885  0.00  0.00    +0.000 A 
ATOM     19  C   UNL     1       6.105   4.335  15.973  0.00  0.00    +0.000 A 
ATOM     20  C   UNL     1       4.787   4.156  16.412  0.00  0.00    +0.000 A 
ENDBRANCH  14  15
ENDBRANCH   1  13
BRANCH   4  21
ATOM     21  N   UNL     1       1.608  10.592  18.707  0.00  0.00    +0.000 N 
ATOM     22  C   UNL     1       0.546  11.455  18.873  0.00  0.00    +0.000 C 
ATOM     23  O   UNL     1      -0.604  11.087  19.078  0.00  0.00    +0.000 OA
ATOM     24  H   UNL     1       2.540  10.973  18.641  0.00  0.00    +0.000 HD
BRANCH  22  25
ATOM     25  C   UNL     1       0.893  12.918  18.835  0.00  0.00    +0.000 A 
ATOM     26  C   UNL     1       2.235  13.435  18.560  0.00  0.00    +0.000 A 
ATOM     27  C   UNL     1       2.484  14.757  18.480  0.00  0.00    +0.000 A 
ATOM     28  C   UNL     1       1.423  15.690  18.649  0.00  0.00    +0.000 A 
ATOM     29  N   UNL     1       1.403  17.004  18.592  0.00  0.00    +0.000 NA
ATOM     30  C   UNL     1       0.093  17.355  18.801  0.00  0.00    +0.000 A 
ATOM     31  C   UNL     1      -0.691  16.243  19.003  0.00  0.00    +0.000 A 
ATOM     32  N   UNL     1       0.159  15.168  18.899  0.00  0.00    +0.000 N 
ATOM     33  C   UNL     1      -0.111  13.806  18.992  0.00  0.00    +0.000 A 
ENDBRANCH  22  25
ENDBRANCH   4  21
TORSDOF 4
ENDMDL
MODEL 3
REMARK VINA RESULT:      -9.3      0.789      1.161
REMARK  Name = 
REMARK  6 active torsions:
REMARK  status: ('A' for Active; 'I' for Inactive)
REMARK    1  A    between atoms: C_1  and  C_2
REMARK    2  A    between atoms: C_2  and  C_3
REMARK    3  A    between atoms: N_7  and  C_8
REMARK    4  A    between atoms: C_11  and  N_12
REMARK    5  A    between atoms: C_13  and  C_15
REMARK    6  A    between atoms: C_26  and  C_27
REMARK                            x       y       z     vdW  Elec       q    Type
REMARK                         _______ _______ _______ _____ _____    ______ ____
ROOT
ATOM      1  C   UNL     1       2.630   6.383  19.435  0.00  0.00    +0.000 C 
ATOM      2  C   UNL     1       2.341   6.902  18.023  0.00  0.00    +0.000 C 
ATOM      3  C   UNL     1       2.356   8.430  18.004  0.00  0.00    +0.000 C 
ATOM      4  C   UNL     1       1.368   9.036  19.012  0.00  0.00    +0.000 C 
ATOM      5  C   UNL     1       1.518   8.438  20.420  0.00  0.00    +0.000 C 
ATOM      6  C   UNL     1       1.548   6.906  20.397  0.00  0.00    +0.000 C 
ENDROOT
BRANCH   1  13
ATOM      7  C   UNL     1       3.490   1.568  18.156  0.00  0.00    +0.000 C 
ATOM      8  C   UNL     1       2.686   2.731  18.733  0.00  0.00    +0.000 C 
ATOM      9  C   UNL     1       1.185   2.447  18.533  0.00  0.00    +0.000 C 
ATOM     10  O   UNL     1       2.893   2.795  20.158  0.00  0.00    +0.000 OA
ATOM     11  C   UNL     1       2.711   4.100  20.546  0.00  0.00    +0.000 C 
ATOM     12  O   UNL     1       2.535   4.425  21.706  0.00  0.00    +0.000 OA
ATOM     13  N   UNL     1       2.792   4.925  19.453  0.00  0.00    +0.000 N 
ATOM     14  C   UNL     1       3.072   4.150  18.257  0.00  0.00    +0.000 C 
BRANCH  14  15
ATOM     15  C   UNL     1       4.507   4.348  17.784  0.00  0.00    +0.000 A 
ATOM     16  C   UNL     1       4.850   4.258  16.422  0.00  0.00    +0.000 A 
ATOM     17  C   UNL     1       6.175   4.357  15.999  0.00  0.00    +0.000 A 
ATOM     18  C   UNL     1       7.185   4.579  16.929  0.00  0.00    +0.000 A 
ATOM     19  C   UNL     1       6.866   4.719  18.277  0.00  0.00    +0.000 A 
ATOM     20  C   UNL     1       5.537   4.607  18.704  0.00  0.00    +0.000 A 
ENDBRANCH  14  15
ENDBRANCH   1  13
BRANCH   4  21
ATOM     21  N   UNL     1       1.410  10.499  19.011  0.00  0.00    +0.000 N 
ATOM     22  C   UNL     1       0.296  11.309  19.035  0.00  0.00    +0.000 C 
ATOM     23  O   UNL     1      -0.854  10.886  19.042  0.00  0.00    +0.000 OA
ATOM     24  H   UNL     1       2.321  10.921  19.107  0.00  0.00    +0.000 HD
BRANCH  22  25
ATOM     25  C   UNL     1       0.573  12.786  19.104  0.00  0.00    +0.000 A 
ATOM     26  C   UNL     1      -0.365  13.817  18.656  0.00  0.00    +0.000 A 
ATOM     27  C   UNL     1      -0.094  15.130  18.791  0.00  0.00    +0.000 A 
ATOM     28  C   UNL     1       1.126  15.544  19.396  0.00  0.00    +0.000 A 
ATOM     29  N   UNL     1       1.603  16.741  19.662  0.00  0.00    +0.000 NA
ATOM     30  C   UNL     1       2.807  16.521  20.281  0.00  0.00    +0.000 A 
ATOM     31  C   UNL     1       3.074  15.175  20.380  0.00  0.00    +0.000 A 
ATOM     32  N   UNL     1       1.991  14.542  19.819  0.00  0.00    +0.000 N 
ATOM     33  C   UNL     1       1.728  13.183  19.678  0.00  0.00    +0.000 A 
ENDBRANCH  22  25
ENDBRANCH   4  21
TORSDOF 4
ENDMDL
MODEL 4
REMARK VINA RESULT:      -9.2      3.314      4.438
REMARK  Name = 
REMARK  6 active torsions:
REMARK  status: ('A' for Active; 'I' for Inactive)
REMARK    1  A    between atoms: C_1  and  C_2
REMARK    2  A    between atoms: C_2  and  C_3
REMARK    3  A    between atoms: N_7  and  C_8
REMARK    4  A    between atoms: C_11  and  N_12
REMARK    5  A    between atoms: C_13  and  C_15
REMARK    6  A    between atoms: C_26  and  C_27
REMARK                            x       y       z     vdW  Elec       q    Type
REMARK                         _______ _______ _______ _____ _____    ______ ____
ROOT
ATOM      1  C   UNL     1       3.132   6.163  17.802  0.00  0.00    +0.000 C 
ATOM      2  C   UNL     1       3.171   6.073  19.331  0.00  0.00    +0.000 C 
ATOM      3  C   UNL     1       2.042   6.903  19.942  0.00  0.00    +0.000 C 
ATOM      4  C   UNL     1       2.085   8.369  19.489  0.00  0.00    +0.000 C 
ATOM      5  C   UNL     1       2.196   8.514  17.963  0.00  0.00    +0.000 C 
ATOM      6  C   UNL     1       3.304   7.633  17.378  0.00  0.00    +0.000 C 
ENDROOT
BRANCH   1  13
ATOM      7  C   UNL     1       7.110   4.184  15.391  0.00  0.00    +0.000 C 
ATOM      8  C   UNL     1       5.627   4.429  15.657  0.00  0.00    +0.000 C 
ATOM      9  C   UNL     1       4.860   4.346  14.323  0.00  0.00    +0.000 C 
ATOM     10  O   UNL     1       5.107   3.367  16.481  0.00  0.00    +0.000 OA
ATOM     11  C   UNL     1       4.045   3.873  17.191  0.00  0.00    +0.000 C 
ATOM     12  O   UNL     1       3.227   3.165  17.750  0.00  0.00    +0.000 OA
ATOM     13  N   UNL     1       4.092   5.245  17.182  0.00  0.00    +0.000 N 
ATOM     14  C   UNL     1       5.262   5.702  16.452  0.00  0.00    +0.000 C 
BRANCH  14  15
ATOM     15  C   UNL     1       6.328   6.253  17.392  0.00  0.00    +0.000 A 
ATOM     16  C   UNL     1       6.934   7.503  17.162  0.00  0.00    +0.000 A 
ATOM     17  C   UNL     1       7.968   7.968  17.974  0.00  0.00    +0.000 A 
ATOM     18  C   UNL     1       8.397   7.206  19.056  0.00  0.00    +0.000 A 
ATOM     19  C   UNL     1       7.781   5.989  19.333  0.00  0.00    +0.000 A 
ATOM     20  C   UNL     1       6.751   5.515  18.510  0.00  0.00    +0.000 A 
ENDBRANCH  14  15
ENDBRANCH   1  13
BRANCH   4  21
ATOM     21  N   UNL     1       0.984   9.152  20.053  0.00  0.00    +0.000 N 
ATOM     22  C   UNL     1       0.935   9.601  21.354  0.00  0.00    +0.000 C 
ATOM     23  O   UNL     1       1.806   9.376  22.186  0.00  0.00    +0.000 OA
ATOM     24  H   UNL     1       0.277   9.462  19.404  0.00  0.00    +0.000 HD
BRANCH  22  25
ATOM     25  C   UNL     1      -0.258  10.450  21.699  0.00  0.00    +0.000 A 
ATOM     26  C   UNL     1      -0.817  10.568  23.048  0.00  0.00    +0.000 A 
ATOM     27  C   UNL     1      -1.853  11.387  23.317  0.00  0.00    +0.000 A 
ATOM     28  C   UNL     1      -2.422  12.177  22.279  0.00  0.00    +0.000 A 
ATOM     29  N   UNL     1      -3.401  13.056  22.292  0.00  0.00    +0.000 NA
ATOM     30  C   UNL     1      -3.483  13.524  21.005  0.00  0.00    +0.000 A 
ATOM     31  C   UNL     1      -2.554  12.912  20.195  0.00  0.00    +0.000 A 
ATOM     32  N   UNL     1      -1.863  12.050  21.012  0.00  0.00    +0.000 N 
ATOM     33  C   UNL     1      -0.800  11.203  20.718  0.00  0.00    +0.000 A 
ENDBRANCH  22  25
ENDBRANCH   4  21
TORSDOF 4
ENDMDL
MODEL 5
REMARK VINA RESULT:      -8.8      1.390      1.616
REMARK  Name = 
REMARK  6 active torsions:
REMARK  status: ('A' for Active; 'I' for Inactive)
REMARK    1  A    between atoms: C_1  and  C_2
REMARK    2  A    between atoms: C_2  and  C_3
REMARK    3  A    between atoms: N_7  and  C_8
REMARK    4  A    between atoms: C_11  and  N_12
REMARK    5  A    between atoms: C_13  and  C_15
REMARK    6  A    between atoms: C_26  and  C_27
REMARK                            x       y       z     vdW  Elec       q    Type
REMARK                         _______ _______ _______ _____ _____    ______ ____
ROOT
ATOM      1  C   UNL     1       2.489   7.387  19.327  0.00  0.00    +0.000 C 
ATOM      2  C   UNL     1       2.119   7.997  17.970  0.00  0.00    +0.000 C 
ATOM      3  C   UNL     1       1.985   9.515  18.089  0.00  0.00    +0.000 C 
ATOM      4  C   UNL     1       0.965   9.928  19.160  0.00  0.00    +0.000 C 
ATOM      5  C   UNL     1       1.204   9.227  20.507  0.00  0.00    +0.000 C 
ATOM      6  C   UNL     1       1.383   7.714  20.346  0.00  0.00    +0.000 C 
ENDROOT
BRANCH   1  13
ATOM      7  C   UNL     1       4.209   2.888  17.792  0.00  0.00    +0.000 C 
ATOM      8  C   UNL     1       3.147   3.896  18.225  0.00  0.00    +0.000 C 
ATOM      9  C   UNL     1       1.818   3.554  17.524  0.00  0.00    +0.000 C 
ATOM     10  O   UNL     1       2.900   3.754  19.637  0.00  0.00    +0.000 OA
ATOM     11  C   UNL     1       2.470   4.970  20.109  0.00  0.00    +0.000 C 
ATOM     12  O   UNL     1       1.914   5.102  21.184  0.00  0.00    +0.000 OA
ATOM     13  N   UNL     1       2.793   5.957  19.211  0.00  0.00    +0.000 N 
ATOM     14  C   UNL     1       3.506   5.392  18.079  0.00  0.00    +0.000 C 
BRANCH  14  15
ATOM     15  C   UNL     1       4.987   5.749  18.115  0.00  0.00    +0.000 A 
ATOM     16  C   UNL     1       5.825   5.298  19.152  0.00  0.00    +0.000 A 
ATOM     17  C   UNL     1       7.160   5.694  19.230  0.00  0.00    +0.000 A 
ATOM     18  C   UNL     1       7.695   6.527  18.252  0.00  0.00    +0.000 A 
ATOM     19  C   UNL     1       6.899   6.948  17.191  0.00  0.00    +0.000 A 
ATOM     20  C   UNL     1       5.555   6.562  17.119  0.00  0.00    +0.000 A 
ENDBRANCH  14  15
ENDBRANCH   1  13
BRANCH   4  21
ATOM     21  N   UNL     1       0.863  11.383  19.290  0.00  0.00    +0.000 N 
ATOM     22  C   UNL     1      -0.237  12.123  18.917  0.00  0.00    +0.000 C 
ATOM     23  O   UNL     1      -1.246  11.638  18.417  0.00  0.00    +0.000 OA
ATOM     24  H   UNL     1       1.613  11.842  19.785  0.00  0.00    +0.000 HD
BRANCH  22  25
ATOM     25  C   UNL     1      -0.153  13.596  19.208  0.00  0.00    +0.000 A 
ATOM     26  C   UNL     1      -1.143  14.333  19.997  0.00  0.00    +0.000 A 
ATOM     27  C   UNL     1      -0.994  15.642  20.279  0.00  0.00    +0.000 A 
ATOM     28  C   UNL     1       0.158  16.340  19.819  0.00  0.00    +0.000 A 
ATOM     29  N   UNL     1       0.541  17.588  19.982  0.00  0.00    +0.000 NA
ATOM     30  C   UNL     1       1.752  17.680  19.344  0.00  0.00    +0.000 A 
ATOM     31  C   UNL     1       2.103  16.479  18.772  0.00  0.00    +0.000 A 
ATOM     32  N   UNL     1       1.084  15.611  19.082  0.00  0.00    +0.000 N 
ATOM     33  C   UNL     1       0.939  14.261  18.776  0.00  0.00    +0.000 A 
ENDBRANCH  22  25
ENDBRANCH   4  21
TORSDOF 4
ENDMDL
MODEL 6
REMARK VINA RESULT:      -8.6      1.747      2.421
REMARK  Name = 
REMARK  6 active torsions:
REMARK  status: ('A' for Active; 'I' for Inactive)
REMARK    1  A    between atoms: C_1  and  C_2
REMARK    2  A    between atoms: C_2  and  C_3
REMARK    3  A    between atoms: N_7  and  C_8
REMARK    4  A    between atoms: C_11  and  N_12
REMARK    5  A    between atoms: C_13  and  C_15
REMARK    6  A    between atoms: C_26  and  C_27
REMARK                            x       y       z     vdW  Elec       q    Type
REMARK                         _______ _______ _______ _____ _____    ______ ____
ROOT
ATOM      1  C   UNL     1       2.492   7.305  19.417  0.00  0.00    +0.000 C 
ATOM      2  C   UNL     1       2.033   7.926  18.094  0.00  0.00    +0.000 C 
ATOM      3  C   UNL     1       1.864   9.437  18.247  0.00  0.00    +0.000 C 
ATOM      4  C   UNL     1       0.892   9.804  19.378  0.00  0.00    +0.000 C 
ATOM      5  C   UNL     1       1.223   9.087  20.698  0.00  0.00    +0.000 C 
ATOM      6  C   UNL     1       1.435   7.583  20.500  0.00  0.00    +0.000 C 
ENDROOT
BRANCH   1  13
ATOM      7  C   UNL     1       4.300   2.891  17.741  0.00  0.00    +0.000 C 
ATOM      8  C   UNL     1       3.220   3.861  18.214  0.00  0.00    +0.000 C 
ATOM      9  C   UNL     1       1.891   3.505  17.521  0.00  0.00    +0.000 C 
ATOM     10  O   UNL     1       2.996   3.676  19.626  0.00  0.00    +0.000 OA
ATOM     11  C   UNL     1       2.542   4.868  20.135  0.00  0.00    +0.000 C 
ATOM     12  O   UNL     1       1.998   4.958  21.220  0.00  0.00    +0.000 OA
ATOM     13  N   UNL     1       2.829   5.886  19.260  0.00  0.00    +0.000 N 
ATOM     14  C   UNL     1       3.541   5.369  18.104  0.00  0.00    +0.000 C 
BRANCH  14  15
ATOM     15  C   UNL     1       5.013   5.761  18.131  0.00  0.00    +0.000 A 
ATOM     16  C   UNL     1       5.877   5.299  19.142  0.00  0.00    +0.000 A 
ATOM     17  C   UNL     1       7.203   5.725  19.214  0.00  0.00    +0.000 A 
ATOM     18  C   UNL     1       7.704   6.600  18.255  0.00  0.00    +0.000 A 
ATOM     19  C   UNL     1       6.882   7.034  17.218  0.00  0.00    +0.000 A 
ATOM     20  C   UNL     1       5.547   6.617  17.153  0.00  0.00    +0.000 A 
ENDBRANCH  14  15
ENDBRANCH   1  13
BRANCH   4  21
ATOM     21  N   UNL     1       0.757  11.253  19.540  0.00  0.00    +0.000 N 
ATOM     22  C   UNL     1      -0.217  12.016  18.935  0.00  0.00    +0.000 C 
ATOM     23  O   UNL     1      -1.067  11.560  18.179  0.00  0.00    +0.000 OA
ATOM     24  H   UNL     1       1.358  11.684  20.225  0.00  0.00    +0.000 HD
BRANCH  22  25
ATOM     25  C   UNL     1      -0.212  13.475  19.299  0.00  0.00    +0.000 A 
ATOM     26  C   UNL     1       0.797  14.431  18.838  0.00  0.00    +0.000 A 
ATOM     27  C   UNL     1       0.727  15.741  19.146  0.00  0.00    +0.000 A 
ATOM     28  C   UNL     1      -0.360  16.229  19.926  0.00  0.00    +0.000 A 
ATOM     29  N   UNL     1      -0.663  17.444  20.329  0.00  0.00    +0.000 NA
ATOM     30  C   UNL     1      -1.842  17.312  21.018  0.00  0.00    +0.000 A 
ATOM     31  C   UNL     1      -2.253  15.999  21.048  0.00  0.00    +0.000 A 
ATOM     32  N   UNL     1      -1.306  15.299  20.340  0.00  0.00    +0.000 N 
ATOM     33  C   UNL     1      -1.241  13.943  20.037  0.00  0.00    +0.000 A 
ENDBRANCH  22  25
ENDBRANCH   4  21
TORSDOF 4
ENDMDL
MODEL 7
REMARK VINA RESULT:      -8.6      1.857      2.148
REMARK  Name = 
REMARK  6 active torsions:
REMARK  status: ('A' for Active; 'I' for Inactive)
REMARK    1  A    between atoms: C_1  and  C_2
REMARK    2  A    between atoms: C_2  and  C_3
REMARK    3  A    between atoms: N_7  and  C_8
REMARK    4  A    between atoms: C_11  and  N_12
REMARK    5  A    between atoms: C_13  and  C_15
REMARK    6  A    between atoms: C_26  and  C_27
REMARK                            x       y       z     vdW  Elec       q    Type
REMARK                         _______ _______ _______ _____ _____    ______ ____
ROOT
ATOM      1  C   UNL     1       2.424   7.412  19.441  0.00  0.00    +0.000 C 
ATOM      2  C   UNL     1       2.026   8.075  18.118  0.00  0.00    +0.000 C 
ATOM      3  C   UNL     1       1.914   9.589  18.295  0.00  0.00    +0.000 C 
ATOM      4  C   UNL     1       0.927   9.975  19.407  0.00  0.00    +0.000 C 
ATOM      5  C   UNL     1       1.193   9.222  20.721  0.00  0.00    +0.000 C 
ATOM      6  C   UNL     1       1.349   7.714  20.501  0.00  0.00    +0.000 C 
ENDROOT
BRANCH   1  13
ATOM      7  C   UNL     1       4.069   2.955  17.714  0.00  0.00    +0.000 C 
ATOM      8  C   UNL     1       3.025   3.959  18.196  0.00  0.00    +0.000 C 
ATOM      9  C   UNL     1       1.686   3.663  17.493  0.00  0.00    +0.000 C 
ATOM     10  O   UNL     1       2.788   3.764  19.604  0.00  0.00    +0.000 OA
ATOM     11  C   UNL     1       2.378   4.966  20.127  0.00  0.00    +0.000 C 
ATOM     12  O   UNL     1       1.832   5.063  21.211  0.00  0.00    +0.000 OA
ATOM     13  N   UNL     1       2.707   5.984  19.266  0.00  0.00    +0.000 N 
ATOM     14  C   UNL     1       3.403   5.455  18.106  0.00  0.00    +0.000 C 
BRANCH  14  15
ATOM     15  C   UNL     1       4.889   5.790  18.144  0.00  0.00    +0.000 A 
ATOM     16  C   UNL     1       5.504   6.521  17.110  0.00  0.00    +0.000 A 
ATOM     17  C   UNL     1       6.878   6.755  17.104  0.00  0.00    +0.000 A 
ATOM     18  C   UNL     1       7.666   6.290  18.152  0.00  0.00    +0.000 A 
ATOM     19  C   UNL     1       7.075   5.605  19.211  0.00  0.00    +0.000 A 
ATOM     20  C   UNL     1       5.696   5.358  19.210  0.00  0.00    +0.000 A 
ENDBRANCH  14  15
ENDBRANCH   1  13
BRANCH   4  21
ATOM     21  N   UNL     1       0.847  11.425  19.592  0.00  0.00    +0.000 N 
ATOM     22  C   UNL     1      -0.323  12.117  19.811  0.00  0.00    +0.000 C 
ATOM     23  O   UNL     1      -1.429  11.590  19.857  0.00  0.00    +0.000 OA
ATOM     24  H   UNL     1       1.725  11.916  19.667  0.00  0.00    +0.000 HD
BRANCH  22  25
ATOM     25  C   UNL     1      -0.164  13.594  20.047  0.00  0.00    +0.000 A 
ATOM     26  C   UNL     1       0.346  14.175  21.292  0.00  0.00    +0.000 A 
ATOM     27  C   UNL     1       0.524  15.502  21.434  0.00  0.00    +0.000 A 
ATOM     28  C   UNL     1       0.230  16.379  20.351  0.00  0.00    +0.000 A 
ATOM     29  N   UNL     1       0.343  17.684  20.234  0.00  0.00    +0.000 NA
ATOM     30  C   UNL     1      -0.057  17.967  18.952  0.00  0.00    +0.000 A 
ATOM     31  C   UNL     1      -0.433  16.823  18.287  0.00  0.00    +0.000 A 
ATOM     32  N   UNL     1      -0.243  15.797  19.181  0.00  0.00    +0.000 N 
ATOM     33  C   UNL     1      -0.440  14.428  19.023  0.00  0.00    +0.000 A 
ENDBRANCH  22  25
ENDBRANCH   4  21
TORSDOF 4
ENDMDL
MODEL 8
REMARK VINA RESULT:      -8.5      3.027      4.377
REMARK  Name = 
REMARK  6 active torsions:
REMARK  status: ('A' for Active; 'I' for Inactive)
REMARK    1  A    between atoms: C_1  and  C_2
REMARK    2  A    between atoms: C_2  and  C_3
REMARK    3  A    between atoms: N_7  and  C_8
REMARK    4  A    between atoms: C_11  and  N_12
REMARK    5  A    between atoms: C_13  and  C_15
REMARK    6  A    between atoms: C_26  and  C_27
REMARK                            x       y       z     vdW  Elec       q    Type
REMARK                         _______ _______ _______ _____ _____    ______ ____
ROOT
ATOM      1  C   UNL     1       3.122   6.245  17.740  0.00  0.00    +0.000 C 
ATOM      2  C   UNL     1       3.234   6.297  19.267  0.00  0.00    +0.000 C 
ATOM      3  C   UNL     1       2.120   7.165  19.852  0.00  0.00    +0.000 C 
ATOM      4  C   UNL     1       2.116   8.584  19.265  0.00  0.00    +0.000 C 
ATOM      5  C   UNL     1       2.155   8.589  17.728  0.00  0.00    +0.000 C 
ATOM      6  C   UNL     1       3.250   7.672  17.175  0.00  0.00    +0.000 C 
ENDROOT
BRANCH   1  13
ATOM      7  C   UNL     1       7.092   4.100  15.461  0.00  0.00    +0.000 C 
ATOM      8  C   UNL     1       5.611   4.392  15.689  0.00  0.00    +0.000 C 
ATOM      9  C   UNL     1       4.870   4.300  14.341  0.00  0.00    +0.000 C 
ATOM     10  O   UNL     1       5.044   3.365  16.526  0.00  0.00    +0.000 OA
ATOM     11  C   UNL     1       3.983   3.916  17.201  0.00  0.00    +0.000 C 
ATOM     12  O   UNL     1       3.134   3.245  17.758  0.00  0.00    +0.000 OA
ATOM     13  N   UNL     1       4.069   5.286  17.162  0.00  0.00    +0.000 N 
ATOM     14  C   UNL     1       5.266   5.694  16.447  0.00  0.00    +0.000 C 
BRANCH  14  15
ATOM     15  C   UNL     1       6.328   6.236  17.397  0.00  0.00    +0.000 A 
ATOM     16  C   UNL     1       6.945   7.481  17.173  0.00  0.00    +0.000 A 
ATOM     17  C   UNL     1       7.975   7.939  17.995  0.00  0.00    +0.000 A 
ATOM     18  C   UNL     1       8.388   7.173  19.080  0.00  0.00    +0.000 A 
ATOM     19  C   UNL     1       7.761   5.960  19.350  0.00  0.00    +0.000 A 
ATOM     20  C   UNL     1       6.736   5.494  18.518  0.00  0.00    +0.000 A 
ENDBRANCH  14  15
ENDBRANCH   1  13
BRANCH   4  21
ATOM     21  N   UNL     1       1.029   9.401  19.807  0.00  0.00    +0.000 N 
ATOM     22  C   UNL     1       0.876  10.749  19.570  0.00  0.00    +0.000 C 
ATOM     23  O   UNL     1       1.651  11.414  18.891  0.00  0.00    +0.000 OA
ATOM     24  H   UNL     1       0.296   8.906  20.292  0.00  0.00    +0.000 HD
BRANCH  22  25
ATOM     25  C   UNL     1      -0.355  11.374  20.167  0.00  0.00    +0.000 A 
ATOM     26  C   UNL     1      -1.403  12.031  19.382  0.00  0.00    +0.000 A 
ATOM     27  C   UNL     1      -2.516  12.525  19.958  0.00  0.00    +0.000 A 
ATOM     28  C   UNL     1      -2.703  12.400  21.364  0.00  0.00    +0.000 A 
ATOM     29  N   UNL     1      -3.696  12.768  22.145  0.00  0.00    +0.000 NA
ATOM     30  C   UNL     1      -3.337  12.356  23.403  0.00  0.00    +0.000 A 
ATOM     31  C   UNL     1      -2.105  11.744  23.391  0.00  0.00    +0.000 A 
ATOM     32  N   UNL     1      -1.696  11.763  22.079  0.00  0.00    +0.000 N 
ATOM     33  C   UNL     1      -0.538  11.256  21.499  0.00  0.00    +0.000 A 
ENDBRANCH  22  25
ENDBRANCH   4  21
TORSDOF 4
ENDMDL
MODEL 9
REMARK VINA RESULT:      -8.3      1.601      2.193
REMARK  Name = 
REMARK  6 active torsions:
REMARK  status: ('A' for Active; 'I' for Inactive)
REMARK    1  A    between atoms: C_1  and  C_2
REMARK    2  A    between atoms: C_2  and  C_3
REMARK    3  A    between atoms: N_7  and  C_8
REMARK    4  A    between atoms: C_11  and  N_12
REMARK    5  A    between atoms: C_13  and  C_15
REMARK    6  A    between atoms: C_26  and  C_27
REMARK                            x       y       z     vdW  Elec       q    Type
REMARK                         _______ _______ _______ _____ _____    ______ ____
ROOT
ATOM      1  C   UNL     1       2.467   7.523  19.231  0.00  0.00    +0.000 C 
ATOM      2  C   UNL     1       2.008   8.095  17.886  0.00  0.00    +0.000 C 
ATOM      3  C   UNL     1       1.914   9.618  17.961  0.00  0.00    +0.000 C 
ATOM      4  C   UNL     1       0.986  10.090  19.090  0.00  0.00    +0.000 C 
ATOM      5  C   UNL     1       1.311   9.429  20.439  0.00  0.00    +0.000 C 
ATOM      6  C   UNL     1       1.448   7.908  20.319  0.00  0.00    +0.000 C 
ENDROOT
BRANCH   1  13
ATOM      7  C   UNL     1       4.094   2.954  17.802  0.00  0.00    +0.000 C 
ATOM      8  C   UNL     1       3.052   3.998  18.196  0.00  0.00    +0.000 C 
ATOM      9  C   UNL     1       1.729   3.682  17.470  0.00  0.00    +0.000 C 
ATOM     10  O   UNL     1       2.769   3.885  19.604  0.00  0.00    +0.000 OA
ATOM     11  C   UNL     1       2.362   5.119  20.048  0.00  0.00    +0.000 C 
ATOM     12  O   UNL     1       1.786   5.283  21.108  0.00  0.00    +0.000 OA
ATOM     13  N   UNL     1       2.733   6.083  19.144  0.00  0.00    +0.000 N 
ATOM     14  C   UNL     1       3.455   5.481  18.036  0.00  0.00    +0.000 C 
BRANCH  14  15
ATOM     15  C   UNL     1       4.945   5.798  18.102  0.00  0.00    +0.000 A 
ATOM     16  C   UNL     1       5.754   5.308  19.144  0.00  0.00    +0.000 A 
ATOM     17  C   UNL     1       7.098   5.666  19.249  0.00  0.00    +0.000 A 
ATOM     18  C   UNL     1       7.670   6.499  18.294  0.00  0.00    +0.000 A 
ATOM     19  C   UNL     1       6.903   6.958  17.227  0.00  0.00    +0.000 A 
ATOM     20  C   UNL     1       5.550   6.610  17.128  0.00  0.00    +0.000 A 
ENDBRANCH  14  15
ENDBRANCH   1  13
BRANCH   4  21
ATOM     21  N   UNL     1       0.923  11.550  19.176  0.00  0.00    +0.000 N 
ATOM     22  C   UNL     1       1.835  12.404  18.595  0.00  0.00    +0.000 C 
ATOM     23  O   UNL     1       2.810  12.027  17.956  0.00  0.00    +0.000 OA
ATOM     24  H   UNL     1       0.094  11.939  19.600  0.00  0.00    +0.000 HD
BRANCH  22  25
ATOM     25  C   UNL     1       1.535  13.870  18.750  0.00  0.00    +0.000 A 
ATOM     26  C   UNL     1       2.451  14.940  18.347  0.00  0.00    +0.000 A 
ATOM     27  C   UNL     1       2.114  16.240  18.454  0.00  0.00    +0.000 A 
ATOM     28  C   UNL     1       0.831  16.602  18.954  0.00  0.00    +0.000 A 
ATOM     29  N   UNL     1       0.264  17.776  19.125  0.00  0.00    +0.000 NA
ATOM     30  C   UNL     1      -0.992  17.504  19.606  0.00  0.00    +0.000 A 
ATOM     31  C   UNL     1      -1.187  16.149  19.744  0.00  0.00    +0.000 A 
ATOM     32  N   UNL     1      -0.019  15.564  19.318  0.00  0.00    +0.000 N 
ATOM     33  C   UNL     1       0.320  14.217  19.221  0.00  0.00    +0.000 A 
ENDBRANCH  22  25
ENDBRANCH   4  21
TORSDOF 4
ENDMDL
