MODEL 1
REMARK VINA RESULT:      -6.3      0.000      0.000
REMARK  Name = 
REMARK  5 active torsions:
REMARK  status: ('A' for Active; 'I' for Inactive)
REMARK    1  A    between atoms: C_1  and  C_2
REMARK    2  A    between atoms: C_2  and  C_4
REMARK    3  A    between atoms: C_6  and  O_7
REMARK    4  A    between atoms: C_8  and  O_9
REMARK    5  A    between atoms: C_10  and  N_11
REMARK                            x       y       z     vdW  Elec       q    Type
REMARK                         _______ _______ _______ _____ _____    ______ ____
ROOT
ATOM      1  C   UNL     1       3.969   3.910  17.456  0.00  0.00    +0.000 A 
ATOM      2  C   UNL     1       4.595   4.265  18.664  0.00  0.00    +0.000 A 
ATOM      3  C   UNL     1       5.922   4.688  18.658  0.00  0.00    +0.000 A 
ATOM      4  C   UNL     1       6.644   4.771  17.469  0.00  0.00    +0.000 A 
ATOM      5  C   UNL     1       6.015   4.425  16.280  0.00  0.00    +0.000 A 
ATOM      6  C   UNL     1       4.684   3.990  16.254  0.00  0.00    +0.000 A 
ENDROOT
BRANCH   1   8
ATOM      7  C   UNL     1       1.462   4.469  17.730  0.00  0.00    +0.000 C 
ATOM      8  C   UNL     1       2.548   3.452  17.494  0.00  0.00    +0.000 C 
ATOM      9  O   UNL     1       2.294   2.260  17.337  0.00  0.00    +0.000 OA
ENDBRANCH   1   8
BRANCH   5  10
ATOM     10  N   UNL     1       6.729   4.496  15.023  0.00  0.00    +0.000 N 
ATOM     11  O   UNL     1       7.524   5.433  14.866  0.00  0.00    +0.000 OA
ATOM     12  O   UNL     1       6.413   3.665  14.160  0.00  0.00    +0.000 OA
ENDBRANCH   5  10
BRANCH   3  13
ATOM     13  O   UNL     1       6.572   5.031  19.812  0.00  0.00    +0.000 OA
ATOM     14  H   UNL     1       5.915   5.330  20.468  0.00  0.00    +0.000 HD
ENDBRANCH   3  13
BRANCH   4  15
ATOM     15  O   UNL     1       7.950   5.163  17.518  0.00  0.00    +0.000 OA
ATOM     16  H   UNL     1       8.279   5.108  16.597  0.00  0.00    +0.000 HD
ENDBRANCH   4  15
TORSDOF 4
ENDMDL
MODEL 2
REMARK VINA RESULT:      -6.3      1.840      4.225
REMARK  Name = 
REMARK  5 active torsions:
REMARK  status: ('A' for Active; 'I' for Inactive)
REMARK    1  A    between atoms: C_1  and  C_2
REMARK    2  A    between atoms: C_2  and  C_4
REMARK    3  A    between atoms: C_6  and  O_7
REMARK    4  A    between atoms: C_8  and  O_9
REMARK    5  A    between atoms: C_10  and  N_11
REMARK                            x       y       z     vdW  Elec       q    Type
REMARK                         _______ _______ _______ _____ _____    ______ ____
ROOT
ATOM      1  C   UNL     1       6.078   4.473  16.131  0.00  0.00    +0.000 A 
ATOM      2  C   UNL     1       6.690   4.922  17.315  0.00  0.00    +0.000 A 
ATOM      3  C   UNL     1       6.057   4.726  18.540  0.00  0.00    +0.000 A 
ATOM      4  C   UNL     1       4.821   4.085  18.614  0.00  0.00    +0.000 A 
ATOM      5  C   UNL     1       4.227   3.639  17.441  0.00  0.00    +0.000 A 
ATOM      6  C   UNL     1       4.837   3.827  16.193  0.00  0.00    +0.000 A 
ENDROOT
BRANCH   1   8
ATOM      7  C   UNL     1       6.300   3.970  13.607  0.00  0.00    +0.000 C 
ATOM      8  C   UNL     1       6.777   4.705  14.833  0.00  0.00    +0.000 C 
ATOM      9  O   UNL     1       7.726   5.485  14.789  0.00  0.00    +0.000 OA
ENDBRANCH   1   8
BRANCH   5  10
ATOM     10  N   UNL     1       2.945   2.970  17.474  0.00  0.00    +0.000 N 
ATOM     11  O   UNL     1       1.955   3.606  17.088  0.00  0.00    +0.000 OA
ATOM     12  O   UNL     1       2.924   1.840  17.981  0.00  0.00    +0.000 OA
ENDBRANCH   5  10
BRANCH   3  13
ATOM     13  O   UNL     1       6.612   5.156  19.714  0.00  0.00    +0.000 OA
ATOM     14  H   UNL     1       6.118   5.935  20.030  0.00  0.00    +0.000 HD
ENDBRANCH   3  13
BRANCH   4  15
ATOM     15  O   UNL     1       4.227   3.942  19.834  0.00  0.00    +0.000 OA
ATOM     16  H   UNL     1       3.338   3.570  19.655  0.00  0.00    +0.000 HD
ENDBRANCH   4  15
TORSDOF 4
ENDMDL
MODEL 3
REMARK VINA RESULT:      -6.3      1.519      1.796
REMARK  Name = 
REMARK  5 active torsions:
REMARK  status: ('A' for Active; 'I' for Inactive)
REMARK    1  A    between atoms: C_1  and  C_2
REMARK    2  A    between atoms: C_2  and  C_4
REMARK    3  A    between atoms: C_6  and  O_7
REMARK    4  A    between atoms: C_8  and  O_9
REMARK    5  A    between atoms: C_10  and  N_11
REMARK                            x       y       z     vdW  Elec       q    Type
REMARK                         _______ _______ _______ _____ _____    ______ ____
ROOT
ATOM      1  C   UNL     1       4.251   5.622  17.831  0.00  0.00    +0.000 A 
ATOM      2  C   UNL     1       5.062   5.548  18.976  0.00  0.00    +0.000 A 
ATOM      3  C   UNL     1       6.394   5.155  18.858  0.00  0.00    +0.000 A 
ATOM      4  C   UNL     1       6.940   4.835  17.616  0.00  0.00    +0.000 A 
ATOM      5  C   UNL     1       6.133   4.917  16.489  0.00  0.00    +0.000 A 
ATOM      6  C   UNL     1       4.789   5.304  16.577  0.00  0.00    +0.000 A 
ENDROOT
BRANCH   1   8
ATOM      7  C   UNL     1       2.512   7.499  18.185  0.00  0.00    +0.000 C 
ATOM      8  C   UNL     1       2.826   6.039  17.989  0.00  0.00    +0.000 C 
ATOM      9  O   UNL     1       1.941   5.186  17.961  0.00  0.00    +0.000 OA
ENDBRANCH   1   8
BRANCH   5  10
ATOM     10  N   UNL     1       6.660   4.593  15.182  0.00  0.00    +0.000 N 
ATOM     11  O   UNL     1       6.199   3.599  14.606  0.00  0.00    +0.000 OA
ATOM     12  O   UNL     1       7.608   5.284  14.781  0.00  0.00    +0.000 OA
ENDBRANCH   5  10
BRANCH   3  13
ATOM     13  O   UNL     1       7.214   5.059  19.949  0.00  0.00    +0.000 OA
ATOM     14  H   UNL     1       6.896   4.337  20.521  0.00  0.00    +0.000 HD
ENDBRANCH   3  13
BRANCH   4  15
ATOM     15  O   UNL     1       8.241   4.427  17.556  0.00  0.00    +0.000 OA
ATOM     16  H   UNL     1       8.719   5.134  17.075  0.00  0.00    +0.000 HD
ENDBRANCH   4  15
TORSDOF 4
ENDMDL
MODEL 4
REMARK VINA RESULT:      -6.3      2.002      4.386
REMARK  Name = 
REMARK  5 active torsions:
REMARK  status: ('A' for Active; 'I' for Inactive)
REMARK    1  A    between atoms: C_1  and  C_2
REMARK    2  A    between atoms: C_2  and  C_4
REMARK    3  A    between atoms: C_6  and  O_7
REMARK    4  A    between atoms: C_8  and  O_9
REMARK    5  A    between atoms: C_10  and  N_11
REMARK                            x       y       z     vdW  Elec       q    Type
REMARK                         _______ _______ _______ _____ _____    ______ ____
ROOT
ATOM      1  C   UNL     1       6.368   4.890  15.669  0.00  0.00    +0.000 A 
ATOM      2  C   UNL     1       5.045   4.502  15.943  0.00  0.00    +0.000 A 
ATOM      3  C   UNL     1       4.548   4.604  17.240  0.00  0.00    +0.000 A 
ATOM      4  C   UNL     1       5.343   5.090  18.277  0.00  0.00    +0.000 A 
ATOM      5  C   UNL     1       6.646   5.476  17.996  0.00  0.00    +0.000 A 
ATOM      6  C   UNL     1       7.177   5.380  16.702  0.00  0.00    +0.000 A 
ENDROOT
BRANCH   1   8
ATOM      7  C   UNL     1       6.204   3.787  13.339  0.00  0.00    +0.000 C 
ATOM      8  C   UNL     1       6.876   4.761  14.270  0.00  0.00    +0.000 C 
ATOM      9  O   UNL     1       7.829   5.448  13.909  0.00  0.00    +0.000 OA
ENDBRANCH   1   8
BRANCH   5  10
ATOM     10  N   UNL     1       7.505   5.985  19.043  0.00  0.00    +0.000 N 
ATOM     11  O   UNL     1       8.229   6.952  18.774  0.00  0.00    +0.000 OA
ATOM     12  O   UNL     1       7.520   5.346  20.105  0.00  0.00    +0.000 OA
ENDBRANCH   5  10
BRANCH   3  13
ATOM     13  O   UNL     1       3.270   4.228  17.552  0.00  0.00    +0.000 OA
ATOM     14  H   UNL     1       2.777   4.070  16.725  0.00  0.00    +0.000 HD
ENDBRANCH   3  13
BRANCH   4  15
ATOM     15  O   UNL     1       4.820   5.143  19.536  0.00  0.00    +0.000 OA
ATOM     16  H   UNL     1       4.996   4.266  19.935  0.00  0.00    +0.000 HD
ENDBRANCH   4  15
TORSDOF 4
ENDMDL
MODEL 5
REMARK VINA RESULT:      -6.2      1.694      3.158
REMARK  Name = 
REMARK  5 active torsions:
REMARK  status: ('A' for Active; 'I' for Inactive)
REMARK    1  A    between atoms: C_1  and  C_2
REMARK    2  A    between atoms: C_2  and  C_4
REMARK    3  A    between atoms: C_6  and  O_7
REMARK    4  A    between atoms: C_8  and  O_9
REMARK    5  A    between atoms: C_10  and  N_11
REMARK                            x       y       z     vdW  Elec       q    Type
REMARK                         _______ _______ _______ _____ _____    ______ ____
ROOT
ATOM      1  C   UNL     1       4.131   4.309  18.167  0.00  0.00    +0.000 A 
ATOM      2  C   UNL     1       4.425   3.758  16.908  0.00  0.00    +0.000 A 
ATOM      3  C   UNL     1       5.714   3.864  16.389  0.00  0.00    +0.000 A 
ATOM      4  C   UNL     1       6.724   4.507  17.103  0.00  0.00    +0.000 A 
ATOM      5  C   UNL     1       6.425   5.042  18.349  0.00  0.00    +0.000 A 
ATOM      6  C   UNL     1       5.137   4.957  18.894  0.00  0.00    +0.000 A 
ENDROOT
BRANCH   1   8
ATOM      7  C   UNL     1       1.583   4.451  17.764  0.00  0.00    +0.000 C 
ATOM      8  C   UNL     1       2.739   4.186  18.693  0.00  0.00    +0.000 C 
ATOM      9  O   UNL     1       2.563   3.875  19.869  0.00  0.00    +0.000 OA
ENDBRANCH   1   8
BRANCH   5  10
ATOM     10  N   UNL     1       7.444   5.719  19.122  0.00  0.00    +0.000 N 
ATOM     11  O   UNL     1       7.626   5.342  20.287  0.00  0.00    +0.000 OA
ATOM     12  O   UNL     1       7.989   6.694  18.585  0.00  0.00    +0.000 OA
ENDBRANCH   5  10
BRANCH   3  13
ATOM     13  O   UNL     1       6.040   3.352  15.163  0.00  0.00    +0.000 OA
ATOM     14  H   UNL     1       6.968   3.054  15.182  0.00  0.00    +0.000 HD
ENDBRANCH   3  13
BRANCH   4  15
ATOM     15  O   UNL     1       7.962   4.611  16.540  0.00  0.00    +0.000 OA
ATOM     16  H   UNL     1       7.977   5.480  16.088  0.00  0.00    +0.000 HD
ENDBRANCH   4  15
TORSDOF 4
ENDMDL
MODEL 6
REMARK VINA RESULT:      -6.2      1.863      4.269
REMARK  Name = 
REMARK  5 active torsions:
REMARK  status: ('A' for Active; 'I' for Inactive)
REMARK    1  A    between atoms: C_1  and  C_2
REMARK    2  A    between atoms: C_2  and  C_4
REMARK    3  A    between atoms: C_6  and  O_7
REMARK    4  A    between atoms: C_8  and  O_9
REMARK    5  A    between atoms: C_10  and  N_11
REMARK                            x       y       z     vdW  Elec       q    Type
REMARK                         _______ _______ _______ _____ _____    ______ ____
ROOT
ATOM      1  C   UNL     1       6.046   4.675  16.158  0.00  0.00    +0.000 A 
ATOM      2  C   UNL     1       6.756   4.950  17.340  0.00  0.00    +0.000 A 
ATOM      3  C   UNL     1       6.092   4.944  18.565  0.00  0.00    +0.000 A 
ATOM      4  C   UNL     1       4.728   4.664  18.640  0.00  0.00    +0.000 A 
ATOM      5  C   UNL     1       4.037   4.387  17.468  0.00  0.00    +0.000 A 
ATOM      6  C   UNL     1       4.676   4.392  16.221  0.00  0.00    +0.000 A 
ENDROOT
BRANCH   1   8
ATOM      7  C   UNL     1       6.247   3.891  13.705  0.00  0.00    +0.000 C 
ATOM      8  C   UNL     1       6.783   4.696  14.860  0.00  0.00    +0.000 C 
ATOM      9  O   UNL     1       7.810   5.365  14.759  0.00  0.00    +0.000 OA
ENDBRANCH   1   8
BRANCH   5  10
ATOM     10  N   UNL     1       2.621   4.093  17.502  0.00  0.00    +0.000 N 
ATOM     11  O   UNL     1       2.249   3.004  17.044  0.00  0.00    +0.000 OA
ATOM     12  O   UNL     1       1.877   5.001  17.900  0.00  0.00    +0.000 OA
ENDBRANCH   5  10
BRANCH   3  13
ATOM     13  O   UNL     1       6.743   5.218  19.736  0.00  0.00    +0.000 OA
ATOM     14  H   UNL     1       6.951   4.377  20.185  0.00  0.00    +0.000 HD
ENDBRANCH   3  13
BRANCH   4  15
ATOM     15  O   UNL     1       4.117   4.699  19.859  0.00  0.00    +0.000 OA
ATOM     16  H   UNL     1       3.167   4.531  19.685  0.00  0.00    +0.000 HD
ENDBRANCH   4  15
TORSDOF 4
ENDMDL
MODEL 7
REMARK VINA RESULT:      -6.2      1.939      2.272
REMARK  Name = 
REMARK  5 active torsions:
REMARK  status: ('A' for Active; 'I' for Inactive)
REMARK    1  A    between atoms: C_1  and  C_2
REMARK    2  A    between atoms: C_2  and  C_4
REMARK    3  A    between atoms: C_6  and  O_7
REMARK    4  A    between atoms: C_8  and  O_9
REMARK    5  A    between atoms: C_10  and  N_11
REMARK                            x       y       z     vdW  Elec       q    Type
REMARK                         _______ _______ _______ _____ _____    ______ ____
ROOT
ATOM      1  C   UNL     1       3.773   4.092  17.441  0.00  0.00    +0.000 A 
ATOM      2  C   UNL     1       3.303   5.394  17.683  0.00  0.00    +0.000 A 
ATOM      3  C   UNL     1       4.136   6.486  17.447  0.00  0.00    +0.000 A 
ATOM      4  C   UNL     1       5.433   6.309  16.969  0.00  0.00    +0.000 A 
ATOM      5  C   UNL     1       5.886   5.019  16.727  0.00  0.00    +0.000 A 
ATOM      6  C   UNL     1       5.074   3.901  16.960  0.00  0.00    +0.000 A 
ENDROOT
BRANCH   1   8
ATOM      7  C   UNL     1       3.449   1.647  18.211  0.00  0.00    +0.000 C 
ATOM      8  C   UNL     1       2.860   2.941  17.711  0.00  0.00    +0.000 C 
ATOM      9  O   UNL     1       1.653   3.070  17.519  0.00  0.00    +0.000 OA
ENDBRANCH   1   8
BRANCH   5  10
ATOM     10  N   UNL     1       7.226   4.791  16.231  0.00  0.00    +0.000 N 
ATOM     11  O   UNL     1       8.026   4.215  16.981  0.00  0.00    +0.000 OA
ATOM     12  O   UNL     1       7.498   5.281  15.126  0.00  0.00    +0.000 OA
ENDBRANCH   5  10
BRANCH   3  13
ATOM     13  O   UNL     1       3.722   7.769  17.679  0.00  0.00    +0.000 OA
ATOM     14  H   UNL     1       4.497   8.361  17.654  0.00  0.00    +0.000 HD
ENDBRANCH   3  13
BRANCH   4  15
ATOM     15  O   UNL     1       6.220   7.407  16.781  0.00  0.00    +0.000 OA
ATOM     16  H   UNL     1       5.718   8.162  17.154  0.00  0.00    +0.000 HD
ENDBRANCH   4  15
TORSDOF 4
ENDMDL
MODEL 8
REMARK VINA RESULT:      -6.2      3.634      5.244
REMARK  Name = 
REMARK  5 active torsions:
REMARK  status: ('A' for Active; 'I' for Inactive)
REMARK    1  A    between atoms: C_1  and  C_2
REMARK    2  A    between atoms: C_2  and  C_4
REMARK    3  A    between atoms: C_6  and  O_7
REMARK    4  A    between atoms: C_8  and  O_9
REMARK    5  A    between atoms: C_10  and  N_11
REMARK                            x       y       z     vdW  Elec       q    Type
REMARK                         _______ _______ _______ _____ _____    ______ ____
ROOT
ATOM      1  C   UNL     1       3.129   5.893  19.294  0.00  0.00    +0.000 A 
ATOM      2  C   UNL     1       4.368   5.572  18.713  0.00  0.00    +0.000 A 
ATOM      3  C   UNL     1       4.926   4.313  18.923  0.00  0.00    +0.000 A 
ATOM      4  C   UNL     1       4.272   3.359  19.701  0.00  0.00    +0.000 A 
ATOM      5  C   UNL     1       3.046   3.683  20.265  0.00  0.00    +0.000 A 
ATOM      6  C   UNL     1       2.462   4.943  20.077  0.00  0.00    +0.000 A 
ENDROOT
BRANCH   1   8
ATOM      7  C   UNL     1       2.804   7.924  17.730  0.00  0.00    +0.000 C 
ATOM      8  C   UNL     1       2.560   7.253  19.057  0.00  0.00    +0.000 C 
ATOM      9  O   UNL     1       1.909   7.798  19.946  0.00  0.00    +0.000 OA
ENDBRANCH   1   8
BRANCH   5  10
ATOM     10  N   UNL     1       2.334   2.722  21.080  0.00  0.00    +0.000 N 
ATOM     11  O   UNL     1       1.132   2.546  20.843  0.00  0.00    +0.000 OA
ATOM     12  O   UNL     1       2.965   2.220  22.021  0.00  0.00    +0.000 OA
ENDBRANCH   5  10
BRANCH   3  13
ATOM     13  O   UNL     1       6.135   3.963  18.385  0.00  0.00    +0.000 OA
ATOM     14  H   UNL     1       6.092   4.069  17.417  0.00  0.00    +0.000 HD
ENDBRANCH   3  13
BRANCH   4  15
ATOM     15  O   UNL     1       4.873   2.150  19.902  0.00  0.00    +0.000 OA
ATOM     16  H   UNL     1       5.199   2.166  20.825  0.00  0.00    +0.000 HD
ENDBRANCH   4  15
TORSDOF 4
ENDMDL
MODEL 9
REMARK VINA RESULT:      -6.1      1.978      4.213
REMARK  Name = 
REMARK  5 active torsions:
REMARK  status: ('A' for Active; 'I' for Inactive)
REMARK    1  A    between atoms: C_1  and  C_2
REMARK    2  A    between atoms: C_2  and  C_4
REMARK    3  A    between atoms: C_6  and  O_7
REMARK    4  A    between atoms: C_8  and  O_9
REMARK    5  A    between atoms: C_10  and  N_11
REMARK                            x       y       z     vdW  Elec       q    Type
REMARK                         _______ _______ _______ _____ _____    ______ ____
ROOT
ATOM      1  C   UNL     1       6.405   4.633  15.507  0.00  0.00    +0.000 A 
ATOM      2  C   UNL     1       7.333   4.716  16.560  0.00  0.00    +0.000 A 
ATOM      3  C   UNL     1       6.889   4.661  17.880  0.00  0.00    +0.000 A 
ATOM      4  C   UNL     1       5.535   4.520  18.176  0.00  0.00    +0.000 A 
ATOM      5  C   UNL     1       4.627   4.432  17.129  0.00  0.00    +0.000 A 
ATOM      6  C   UNL     1       5.042   4.490  15.792  0.00  0.00    +0.000 A 
ENDROOT
BRANCH   1   8
ATOM      7  C   UNL     1       6.288   3.808  13.062  0.00  0.00    +0.000 C 
ATOM      8  C   UNL     1       6.910   4.702  14.103  0.00  0.00    +0.000 C 
ATOM      9  O   UNL     1       7.820   5.481  13.827  0.00  0.00    +0.000 OA
ENDBRANCH   1   8
BRANCH   5  10
ATOM     10  N   UNL     1       3.212   4.287  17.394  0.00  0.00    +0.000 N 
ATOM     11  O   UNL     1       2.642   5.207  17.994  0.00  0.00    +0.000 OA
ATOM     12  O   UNL     1       2.700   3.201  17.083  0.00  0.00    +0.000 OA
ENDBRANCH   5  10
BRANCH   3  13
ATOM     13  O   UNL     1       7.757   4.750  18.934  0.00  0.00    +0.000 OA
ATOM     14  H   UNL     1       8.577   4.272  18.709  0.00  0.00    +0.000 HD
ENDBRANCH   3  13
BRANCH   4  15
ATOM     15  O   UNL     1       5.147   4.501  19.484  0.00  0.00    +0.000 OA
ATOM     16  H   UNL     1       5.946   4.259  19.996  0.00  0.00    +0.000 HD
ENDBRANCH   4  15
TORSDOF 4
ENDMDL
