MODEL 1
REMARK VINA RESULT:      -6.5      0.000      0.000
REMARK  Name = 
REMARK  13 active torsions:
REMARK  status: ('A' for Active; 'I' for Inactive)
REMARK    1  A    between atoms: C_3  and  O_4
REMARK    2  A    between atoms: O_4  and  C_5
REMARK    3  A    between atoms: C_7  and  C_8
REMARK    4  A    between atoms: C_8  and  O_9
REMARK    5  A    between atoms: C_10  and  O_11
REMARK    6  A    between atoms: C_12  and  O_13
REMARK    7  A    between atoms: C_14  and  O_15
REMARK    8  A    between atoms: C_16  and  C_17
REMARK    9  A    between atoms: C_19  and  O_20
REMARK   10  A    between atoms: C_21  and  O_22
REMARK   11  A    between atoms: C_23  and  O_24
REMARK   12  A    between atoms: C_29  and  O_30
REMARK   13  A    between atoms: C_32  and  O_33
REMARK                            x       y       z     vdW  Elec       q    Type
REMARK                         _______ _______ _______ _____ _____    ______ ____
ROOT
ATOM      1  O   UNL     1      -1.417  12.355  17.944  0.00  0.00    +0.000 OA
ATOM      2  C   UNL     1      -1.552  12.079  19.132  0.00  0.00    +0.000 A 
ATOM      3  C   UNL     1      -2.639  12.746  19.949  0.00  0.00    +0.000 A 
ATOM      4  C   UNL     1      -2.440  12.772  21.294  0.00  0.00    +0.000 A 
ATOM      5  O   UNL     1      -1.320  12.199  21.904  0.00  0.00    +0.000 OA
ATOM      6  C   UNL     1      -0.621  11.231  21.218  0.00  0.00    +0.000 A 
ATOM      7  C   UNL     1       0.185  10.353  21.962  0.00  0.00    +0.000 A 
ATOM      8  C   UNL     1       0.918   9.360  21.307  0.00  0.00    +0.000 A 
ATOM      9  C   UNL     1       0.855   9.230  19.929  0.00  0.00    +0.000 A 
ATOM     10  C   UNL     1       0.048  10.103  19.190  0.00  0.00    +0.000 A 
ATOM     11  C   UNL     1      -0.691  11.109  19.834  0.00  0.00    +0.000 A 
ENDROOT
BRANCH   4  12
ATOM     12  C   UNL     1      -3.466  13.230  22.278  0.00  0.00    +0.000 A 
ATOM     13  C   UNL     1      -4.281  14.356  22.056  0.00  0.00    +0.000 A 
ATOM     14  C   UNL     1      -5.443  14.545  22.795  0.00  0.00    +0.000 A 
ATOM     15  C   UNL     1      -5.726  13.720  23.862  0.00  0.00    +0.000 A 
ATOM     16  C   UNL     1      -4.826  12.732  24.226  0.00  0.00    +0.000 A 
ATOM     17  C   UNL     1      -3.695  12.484  23.447  0.00  0.00    +0.000 A 
BRANCH  14  18
ATOM     18  O   UNL     1      -6.365  15.505  22.466  0.00  0.00    +0.000 OA
ATOM     19  H   UNL     1      -6.107  15.904  21.616  0.00  0.00    +0.000 HD
ENDBRANCH  14  18
BRANCH  15  20
ATOM     20  O   UNL     1      -6.900  13.842  24.559  0.00  0.00    +0.000 OA
ATOM     21  H   UNL     1      -6.897  14.771  24.869  0.00  0.00    +0.000 HD
ENDBRANCH  15  20
BRANCH  16  22
ATOM     22  O   UNL     1      -5.074  11.945  25.311  0.00  0.00    +0.000 OA
ATOM     23  H   UNL     1      -5.877  11.440  25.065  0.00  0.00    +0.000 HD
ENDBRANCH  16  22
ENDBRANCH   4  12
BRANCH   8  24
ATOM     24  O   UNL     1       1.707   8.493  21.991  0.00  0.00    +0.000 OA
ATOM     25  H   UNL     1       1.238   7.670  22.155  0.00  0.00    +0.000 HD
ENDBRANCH   8  24
BRANCH  10  26
ATOM     26  O   UNL     1      -0.021   9.927  17.834  0.00  0.00    +0.000 OA
ATOM     27  H   UNL     1       0.271  10.731  17.379  0.00  0.00    +0.000 HD
ENDBRANCH  10  26
BRANCH   3  28
ATOM     28  O   UNL     1      -3.834  12.952  19.298  0.00  0.00    +0.000 OA
BRANCH  28  29
ATOM     29  C   UNL     1      -4.738  11.939  18.817  0.00  0.00    +0.000 C 
ATOM     30  O   UNL     1      -5.584  11.260  19.745  0.00  0.00    +0.000 OA
ATOM     31  C   UNL     1      -6.532  12.090  20.412  0.00  0.00    +0.000 C 
ATOM     32  C   UNL     1      -7.354  12.986  19.462  0.00  0.00    +0.000 C 
ATOM     33  C   UNL     1      -6.539  13.533  18.263  0.00  0.00    +0.000 C 
ATOM     34  C   UNL     1      -5.596  12.491  17.670  0.00  0.00    +0.000 C 
BRANCH  32  35
ATOM     35  O   UNL     1      -7.872  14.115  20.186  0.00  0.00    +0.000 OA
ATOM     36  H   UNL     1      -8.852  14.097  20.077  0.00  0.00    +0.000 HD
ENDBRANCH  32  35
BRANCH  33  37
ATOM     37  O   UNL     1      -7.414  14.029  17.241  0.00  0.00    +0.000 OA
ATOM     38  H   UNL     1      -6.922  14.713  16.752  0.00  0.00    +0.000 HD
ENDBRANCH  33  37
BRANCH  34  39
ATOM     39  O   UNL     1      -6.302  11.429  17.000  0.00  0.00    +0.000 OA
ATOM     40  H   UNL     1      -7.007  11.106  17.585  0.00  0.00    +0.000 HD
ENDBRANCH  34  39
BRANCH  31  41
ATOM     41  C   UNL     1      -7.374  11.182  21.336  0.00  0.00    +0.000 C 
BRANCH  41  42
ATOM     42  O   UNL     1      -7.917  11.962  22.416  0.00  0.00    +0.000 OA
ATOM     43  H   UNL     1      -7.439  11.727  23.229  0.00  0.00    +0.000 HD
ENDBRANCH  41  42
ENDBRANCH  31  41
ENDBRANCH  28  29
ENDBRANCH   3  28
TORSDOF 13
ENDMDL
MODEL 2
REMARK VINA RESULT:      -6.3      5.345     11.626
REMARK  Name = 
REMARK  13 active torsions:
REMARK  status: ('A' for Active; 'I' for Inactive)
REMARK    1  A    between atoms: C_3  and  O_4
REMARK    2  A    between atoms: O_4  and  C_5
REMARK    3  A    between atoms: C_7  and  C_8
REMARK    4  A    between atoms: C_8  and  O_9
REMARK    5  A    between atoms: C_10  and  O_11
REMARK    6  A    between atoms: C_12  and  O_13
REMARK    7  A    between atoms: C_14  and  O_15
REMARK    8  A    between atoms: C_16  and  C_17
REMARK    9  A    between atoms: C_19  and  O_20
REMARK   10  A    between atoms: C_21  and  O_22
REMARK   11  A    between atoms: C_23  and  O_24
REMARK   12  A    between atoms: C_29  and  O_30
REMARK   13  A    between atoms: C_32  and  O_33
REMARK                            x       y       z     vdW  Elec       q    Type
REMARK                         _______ _______ _______ _____ _____    ______ ____
ROOT
ATOM      1  O   UNL     1       1.376   7.646  21.860  0.00  0.00    +0.000 OA
ATOM      2  C   UNL     1       1.604   7.844  20.670  0.00  0.00    +0.000 A 
ATOM      3  C   UNL     1       2.603   6.978  19.931  0.00  0.00    +0.000 A 
ATOM      4  C   UNL     1       3.148   7.524  18.812  0.00  0.00    +0.000 A 
ATOM      5  O   UNL     1       2.801   8.794  18.342  0.00  0.00    +0.000 OA
ATOM      6  C   UNL     1       1.600   9.337  18.745  0.00  0.00    +0.000 A 
ATOM      7  C   UNL     1       1.044  10.356  17.953  0.00  0.00    +0.000 A 
ATOM      8  C   UNL     1      -0.168  10.942  18.327  0.00  0.00    +0.000 A 
ATOM      9  C   UNL     1      -0.830  10.525  19.470  0.00  0.00    +0.000 A 
ATOM     10  C   UNL     1      -0.278   9.506  20.254  0.00  0.00    +0.000 A 
ATOM     11  C   UNL     1       0.943   8.910  19.894  0.00  0.00    +0.000 A 
ENDROOT
BRANCH   4  12
ATOM     12  C   UNL     1       4.019   6.771  17.859  0.00  0.00    +0.000 A 
ATOM     13  C   UNL     1       4.016   7.017  16.474  0.00  0.00    +0.000 A 
ATOM     14  C   UNL     1       5.066   6.574  15.675  0.00  0.00    +0.000 A 
ATOM     15  C   UNL     1       6.038   5.752  16.204  0.00  0.00    +0.000 A 
ATOM     16  C   UNL     1       5.942   5.330  17.519  0.00  0.00    +0.000 A 
ATOM     17  C   UNL     1       4.937   5.827  18.350  0.00  0.00    +0.000 A 
BRANCH  14  18
ATOM     18  O   UNL     1       5.204   6.973  14.371  0.00  0.00    +0.000 OA
ATOM     19  H   UNL     1       4.832   6.282  13.794  0.00  0.00    +0.000 HD
ENDBRANCH  14  18
BRANCH  15  20
ATOM     20  O   UNL     1       7.119   5.363  15.455  0.00  0.00    +0.000 OA
ATOM     21  H   UNL     1       7.693   4.892  16.094  0.00  0.00    +0.000 HD
ENDBRANCH  15  20
BRANCH  16  22
ATOM     22  O   UNL     1       6.871   4.476  18.034  0.00  0.00    +0.000 OA
ATOM     23  H   UNL     1       6.671   3.616  17.610  0.00  0.00    +0.000 HD
ENDBRANCH  16  22
ENDBRANCH   4  12
BRANCH   8  24
ATOM     24  O   UNL     1      -0.737  11.929  17.588  0.00  0.00    +0.000 OA
ATOM     25  H   UNL     1      -1.497  11.591  17.106  0.00  0.00    +0.000 HD
ENDBRANCH   8  24
BRANCH  10  26
ATOM     26  O   UNL     1      -0.973   9.090  21.358  0.00  0.00    +0.000 OA
ATOM     27  H   UNL     1      -1.050   9.815  21.996  0.00  0.00    +0.000 HD
ENDBRANCH  10  26
BRANCH   3  28
ATOM     28  O   UNL     1       2.602   5.644  20.271  0.00  0.00    +0.000 OA
BRANCH  28  29
ATOM     29  C   UNL     1       1.822   4.600  19.659  0.00  0.00    +0.000 C 
ATOM     30  O   UNL     1       2.432   3.750  18.689  0.00  0.00    +0.000 OA
ATOM     31  C   UNL     1       3.505   2.951  19.180  0.00  0.00    +0.000 C 
ATOM     32  C   UNL     1       3.164   2.171  20.467  0.00  0.00    +0.000 C 
ATOM     33  C   UNL     1       2.258   2.957  21.448  0.00  0.00    +0.000 C 
ATOM     34  C   UNL     1       1.155   3.732  20.735  0.00  0.00    +0.000 C 
BRANCH  32  35
ATOM     35  O   UNL     1       4.375   1.837  21.168  0.00  0.00    +0.000 OA
ATOM     36  H   UNL     1       4.804   1.108  20.660  0.00  0.00    +0.000 HD
ENDBRANCH  32  35
BRANCH  33  37
ATOM     37  O   UNL     1       1.678   2.075  22.418  0.00  0.00    +0.000 OA
ATOM     38  H   UNL     1       2.161   1.231  22.362  0.00  0.00    +0.000 HD
ENDBRANCH  33  37
BRANCH  34  39
ATOM     39  O   UNL     1       0.162   2.865  20.153  0.00  0.00    +0.000 OA
ATOM     40  H   UNL     1       0.565   1.997  19.990  0.00  0.00    +0.000 HD
ENDBRANCH  34  39
BRANCH  31  41
ATOM     41  C   UNL     1       4.008   2.079  18.008  0.00  0.00    +0.000 C 
BRANCH  41  42
ATOM     42  O   UNL     1       4.227   0.733  18.467  0.00  0.00    +0.000 OA
ATOM     43  H   UNL     1       5.179   0.618  18.624  0.00  0.00    +0.000 HD
ENDBRANCH  41  42
ENDBRANCH  31  41
ENDBRANCH  28  29
ENDBRANCH   3  28
TORSDOF 13
ENDMDL
MODEL 3
REMARK VINA RESULT:      -6.2      5.880     11.180
REMARK  Name = 
REMARK  13 active torsions:
REMARK  status: ('A' for Active; 'I' for Inactive)
REMARK    1  A    between atoms: C_3  and  O_4
REMARK    2  A    between atoms: O_4  and  C_5
REMARK    3  A    between atoms: C_7  and  C_8
REMARK    4  A    between atoms: C_8  and  O_9
REMARK    5  A    between atoms: C_10  and  O_11
REMARK    6  A    between atoms: C_12  and  O_13
REMARK    7  A    between atoms: C_14  and  O_15
REMARK    8  A    between atoms: C_16  and  C_17
REMARK    9  A    between atoms: C_19  and  O_20
REMARK   10  A    between atoms: C_21  and  O_22
REMARK   11  A    between atoms: C_23  and  O_24
REMARK   12  A    between atoms: C_29  and  O_30
REMARK   13  A    between atoms: C_32  and  O_33
REMARK                            x       y       z     vdW  Elec       q    Type
REMARK                         _______ _______ _______ _____ _____    ______ ____
ROOT
ATOM      1  O   UNL     1       2.003   9.583  17.127  0.00  0.00    +0.000 OA
ATOM      2  C   UNL     1       1.877   8.935  18.161  0.00  0.00    +0.000 A 
ATOM      3  C   UNL     1       2.225   7.461  18.184  0.00  0.00    +0.000 A 
ATOM      4  C   UNL     1       1.634   6.726  19.163  0.00  0.00    +0.000 A 
ATOM      5  O   UNL     1       0.775   7.284  20.114  0.00  0.00    +0.000 OA
ATOM      6  C   UNL     1       0.848   8.639  20.350  0.00  0.00    +0.000 A 
ATOM      7  C   UNL     1       0.350   9.119  21.573  0.00  0.00    +0.000 A 
ATOM      8  C   UNL     1       0.395  10.488  21.852  0.00  0.00    +0.000 A 
ATOM      9  C   UNL     1       0.931  11.377  20.935  0.00  0.00    +0.000 A 
ATOM     10  C   UNL     1       1.431  10.897  19.719  0.00  0.00    +0.000 A 
ATOM     11  C   UNL     1       1.388   9.524  19.422  0.00  0.00    +0.000 A 
ENDROOT
BRANCH   4  12
ATOM     12  C   UNL     1       1.976   5.301  19.454  0.00  0.00    +0.000 A 
ATOM     13  C   UNL     1       2.309   4.851  20.745  0.00  0.00    +0.000 A 
ATOM     14  C   UNL     1       2.269   3.495  21.053  0.00  0.00    +0.000 A 
ATOM     15  C   UNL     1       2.059   2.566  20.057  0.00  0.00    +0.000 A 
ATOM     16  C   UNL     1       1.936   2.982  18.742  0.00  0.00    +0.000 A 
ATOM     17  C   UNL     1       1.899   4.341  18.431  0.00  0.00    +0.000 A 
BRANCH  14  18
ATOM     18  O   UNL     1       2.379   3.040  22.342  0.00  0.00    +0.000 OA
ATOM     19  H   UNL     1       1.649   3.414  22.866  0.00  0.00    +0.000 HD
ENDBRANCH  14  18
BRANCH  15  20
ATOM     20  O   UNL     1       1.943   1.231  20.349  0.00  0.00    +0.000 OA
ATOM     21  H   UNL     1       1.963   1.198  21.327  0.00  0.00    +0.000 HD
ENDBRANCH  15  20
BRANCH  16  22
ATOM     22  O   UNL     1       1.779   2.065  17.745  0.00  0.00    +0.000 OA
ATOM     23  H   UNL     1       0.832   2.130  17.504  0.00  0.00    +0.000 HD
ENDBRANCH  16  22
ENDBRANCH   4  12
BRANCH   8  24
ATOM     24  O   UNL     1      -0.075  10.990  23.022  0.00  0.00    +0.000 OA
ATOM     25  H   UNL     1       0.634  11.411  23.515  0.00  0.00    +0.000 HD
ENDBRANCH   8  24
BRANCH  10  26
ATOM     26  O   UNL     1       1.987  11.795  18.848  0.00  0.00    +0.000 OA
ATOM     27  H   UNL     1       2.379  12.533  19.336  0.00  0.00    +0.000 HD
ENDBRANCH  10  26
BRANCH   3  28
ATOM     28  O   UNL     1       3.328   7.097  17.444  0.00  0.00    +0.000 OA
BRANCH  28  29
ATOM     29  C   UNL     1       4.704   7.164  17.861  0.00  0.00    +0.000 C 
ATOM     30  O   UNL     1       5.193   6.218  18.811  0.00  0.00    +0.000 OA
ATOM     31  C   UNL     1       5.170   4.862  18.375  0.00  0.00    +0.000 C 
ATOM     32  C   UNL     1       5.813   4.641  16.989  0.00  0.00    +0.000 C 
ATOM     33  C   UNL     1       5.542   5.792  15.988  0.00  0.00    +0.000 C 
ATOM     34  C   UNL     1       5.633   7.169  16.638  0.00  0.00    +0.000 C 
BRANCH  32  35
ATOM     35  O   UNL     1       5.305   3.429  16.406  0.00  0.00    +0.000 OA
ATOM     36  H   UNL     1       4.460   3.664  15.955  0.00  0.00    +0.000 HD
ENDBRANCH  32  35
BRANCH  33  37
ATOM     37  O   UNL     1       6.447   5.722  14.879  0.00  0.00    +0.000 OA
ATOM     38  H   UNL     1       6.126   5.013  14.292  0.00  0.00    +0.000 HD
ENDBRANCH  33  37
BRANCH  34  39
ATOM     39  O   UNL     1       6.980   7.510  17.017  0.00  0.00    +0.000 OA
ATOM     40  H   UNL     1       7.464   7.793  16.225  0.00  0.00    +0.000 HD
ENDBRANCH  34  39
BRANCH  31  41
ATOM     41  C   UNL     1       5.766   3.999  19.510  0.00  0.00    +0.000 C 
BRANCH  41  42
ATOM     42  O   UNL     1       5.314   2.641  19.373  0.00  0.00    +0.000 OA
ATOM     43  H   UNL     1       4.758   2.585  18.578  0.00  0.00    +0.000 HD
ENDBRANCH  41  42
ENDBRANCH  31  41
ENDBRANCH  28  29
ENDBRANCH   3  28
TORSDOF 13
ENDMDL
MODEL 4
REMARK VINA RESULT:      -6.2      0.944      1.725
REMARK  Name = 
REMARK  13 active torsions:
REMARK  status: ('A' for Active; 'I' for Inactive)
REMARK    1  A    between atoms: C_3  and  O_4
REMARK    2  A    between atoms: O_4  and  C_5
REMARK    3  A    between atoms: C_7  and  C_8
REMARK    4  A    between atoms: C_8  and  O_9
REMARK    5  A    between atoms: C_10  and  O_11
REMARK    6  A    between atoms: C_12  and  O_13
REMARK    7  A    between atoms: C_14  and  O_15
REMARK    8  A    between atoms: C_16  and  C_17
REMARK    9  A    between atoms: C_19  and  O_20
REMARK   10  A    between atoms: C_21  and  O_22
REMARK   11  A    between atoms: C_23  and  O_24
REMARK   12  A    between atoms: C_29  and  O_30
REMARK   13  A    between atoms: C_32  and  O_33
REMARK                            x       y       z     vdW  Elec       q    Type
REMARK                         _______ _______ _______ _____ _____    ______ ____
ROOT
ATOM      1  O   UNL     1      -1.086  12.286  17.949  0.00  0.00    +0.000 OA
ATOM      2  C   UNL     1      -1.334  11.861  19.074  0.00  0.00    +0.000 A 
ATOM      3  C   UNL     1      -2.559  12.347  19.818  0.00  0.00    +0.000 A 
ATOM      4  C   UNL     1      -2.519  12.225  21.172  0.00  0.00    +0.000 A 
ATOM      5  O   UNL     1      -1.433  11.664  21.850  0.00  0.00    +0.000 OA
ATOM      6  C   UNL     1      -0.581  10.836  21.152  0.00  0.00    +0.000 A 
ATOM      7  C   UNL     1       0.205   9.935  21.889  0.00  0.00    +0.000 A 
ATOM      8  C   UNL     1       1.090   9.082  21.224  0.00  0.00    +0.000 A 
ATOM      9  C   UNL     1       1.198   9.114  19.844  0.00  0.00    +0.000 A 
ATOM     10  C   UNL     1       0.411  10.010  19.111  0.00  0.00    +0.000 A 
ATOM     11  C   UNL     1      -0.480  10.877  19.765  0.00  0.00    +0.000 A 
ENDROOT
BRANCH   4  12
ATOM     12  C   UNL     1      -3.687  12.490  22.066  0.00  0.00    +0.000 A 
ATOM     13  C   UNL     1      -3.679  12.174  23.437  0.00  0.00    +0.000 A 
ATOM     14  C   UNL     1      -4.609  12.744  24.300  0.00  0.00    +0.000 A 
ATOM     15  C   UNL     1      -5.647  13.498  23.796  0.00  0.00    +0.000 A 
ATOM     16  C   UNL     1      -5.790  13.646  22.427  0.00  0.00    +0.000 A 
ATOM     17  C   UNL     1      -4.823  13.143  21.556  0.00  0.00    +0.000 A 
BRANCH  14  18
ATOM     18  O   UNL     1      -4.502  12.629  25.662  0.00  0.00    +0.000 OA
ATOM     19  H   UNL     1      -3.735  13.151  25.958  0.00  0.00    +0.000 HD
ENDBRANCH  14  18
BRANCH  15  20
ATOM     20  O   UNL     1      -6.533  14.129  24.632  0.00  0.00    +0.000 OA
ATOM     21  H   UNL     1      -6.436  13.654  25.483  0.00  0.00    +0.000 HD
ENDBRANCH  15  20
BRANCH  16  22
ATOM     22  O   UNL     1      -6.844  14.347  21.920  0.00  0.00    +0.000 OA
ATOM     23  H   UNL     1      -6.465  15.223  21.696  0.00  0.00    +0.000 HD
ENDBRANCH  16  22
ENDBRANCH   4  12
BRANCH   8  24
ATOM     24  O   UNL     1       1.866   8.196  21.901  0.00  0.00    +0.000 OA
ATOM     25  H   UNL     1       2.785   8.477  21.886  0.00  0.00    +0.000 HD
ENDBRANCH   8  24
BRANCH  10  26
ATOM     26  O   UNL     1       0.513   9.994  17.746  0.00  0.00    +0.000 OA
ATOM     27  H   UNL     1       1.193  10.619  17.455  0.00  0.00    +0.000 HD
ENDBRANCH  10  26
BRANCH   3  28
ATOM     28  O   UNL     1      -3.685  12.545  19.050  0.00  0.00    +0.000 OA
BRANCH  28  29
ATOM     29  C   UNL     1      -4.372  11.557  18.259  0.00  0.00    +0.000 C 
ATOM     30  O   UNL     1      -5.301  10.678  18.892  0.00  0.00    +0.000 OA
ATOM     31  C   UNL     1      -6.438  11.318  19.465  0.00  0.00    +0.000 C 
ATOM     32  C   UNL     1      -7.157  12.290  18.505  0.00  0.00    +0.000 C 
ATOM     33  C   UNL     1      -6.193  13.080  17.584  0.00  0.00    +0.000 C 
ATOM     34  C   UNL     1      -5.052  12.218  17.053  0.00  0.00    +0.000 C 
BRANCH  32  35
ATOM     35  O   UNL     1      -7.916  13.248  19.262  0.00  0.00    +0.000 OA
ATOM     36  H   UNL     1      -7.348  13.525  20.019  0.00  0.00    +0.000 HD
ENDBRANCH  32  35
BRANCH  33  37
ATOM     37  O   UNL     1      -6.907  13.665  16.487  0.00  0.00    +0.000 OA
ATOM     38  H   UNL     1      -6.900  14.630  16.625  0.00  0.00    +0.000 HD
ENDBRANCH  33  37
BRANCH  34  39
ATOM     39  O   UNL     1      -5.505  11.227  16.111  0.00  0.00    +0.000 OA
ATOM     40  H   UNL     1      -6.474  11.181  16.149  0.00  0.00    +0.000 HD
ENDBRANCH  34  39
BRANCH  31  41
ATOM     41  C   UNL     1      -7.340  10.214  20.063  0.00  0.00    +0.000 C 
BRANCH  41  42
ATOM     42  O   UNL     1      -7.287   9.043  19.230  0.00  0.00    +0.000 OA
ATOM     43  H   UNL     1      -6.946   9.306  18.359  0.00  0.00    +0.000 HD
ENDBRANCH  41  42
ENDBRANCH  31  41
ENDBRANCH  28  29
ENDBRANCH   3  28
TORSDOF 13
ENDMDL
MODEL 5
REMARK VINA RESULT:      -6.1      5.438     11.695
REMARK  Name = 
REMARK  13 active torsions:
REMARK  status: ('A' for Active; 'I' for Inactive)
REMARK    1  A    between atoms: C_3  and  O_4
REMARK    2  A    between atoms: O_4  and  C_5
REMARK    3  A    between atoms: C_7  and  C_8
REMARK    4  A    between atoms: C_8  and  O_9
REMARK    5  A    between atoms: C_10  and  O_11
REMARK    6  A    between atoms: C_12  and  O_13
REMARK    7  A    between atoms: C_14  and  O_15
REMARK    8  A    between atoms: C_16  and  C_17
REMARK    9  A    between atoms: C_19  and  O_20
REMARK   10  A    between atoms: C_21  and  O_22
REMARK   11  A    between atoms: C_23  and  O_24
REMARK   12  A    between atoms: C_29  and  O_30
REMARK   13  A    between atoms: C_32  and  O_33
REMARK                            x       y       z     vdW  Elec       q    Type
REMARK                         _______ _______ _______ _____ _____    ______ ____
ROOT
ATOM      1  O   UNL     1       1.495   7.527  21.582  0.00  0.00    +0.000 OA
ATOM      2  C   UNL     1       1.721   7.806  20.408  0.00  0.00    +0.000 A 
ATOM      3  C   UNL     1       2.779   7.048  19.636  0.00  0.00    +0.000 A 
ATOM      4  C   UNL     1       3.300   7.689  18.556  0.00  0.00    +0.000 A 
ATOM      5  O   UNL     1       2.877   8.959  18.153  0.00  0.00    +0.000 OA
ATOM      6  C   UNL     1       1.640   9.402  18.570  0.00  0.00    +0.000 A 
ATOM      7  C   UNL     1       1.028  10.428  17.829  0.00  0.00    +0.000 A 
ATOM      8  C   UNL     1      -0.222  10.914  18.219  0.00  0.00    +0.000 A 
ATOM      9  C   UNL     1      -0.867  10.392  19.328  0.00  0.00    +0.000 A 
ATOM     10  C   UNL     1      -0.258   9.367  20.062  0.00  0.00    +0.000 A 
ATOM     11  C   UNL     1       1.001   8.871  19.685  0.00  0.00    +0.000 A 
ENDROOT
BRANCH   4  12
ATOM     12  C   UNL     1       4.226   7.048  17.574  0.00  0.00    +0.000 A 
ATOM     13  C   UNL     1       5.527   7.527  17.334  0.00  0.00    +0.000 A 
ATOM     14  C   UNL     1       6.472   6.724  16.705  0.00  0.00    +0.000 A 
ATOM     15  C   UNL     1       6.099   5.511  16.166  0.00  0.00    +0.000 A 
ATOM     16  C   UNL     1       4.772   5.117  16.210  0.00  0.00    +0.000 A 
ATOM     17  C   UNL     1       3.831   5.878  16.903  0.00  0.00    +0.000 A 
BRANCH  14  18
ATOM     18  O   UNL     1       7.797   7.071  16.645  0.00  0.00    +0.000 OA
ATOM     19  H   UNL     1       7.943   7.835  17.232  0.00  0.00    +0.000 HD
ENDBRANCH  14  18
BRANCH  15  20
ATOM     20  O   UNL     1       7.027   4.671  15.606  0.00  0.00    +0.000 OA
ATOM     21  H   UNL     1       6.491   3.944  15.228  0.00  0.00    +0.000 HD
ENDBRANCH  15  20
BRANCH  16  22
ATOM     22  O   UNL     1       4.387   3.942  15.634  0.00  0.00    +0.000 OA
ATOM     23  H   UNL     1       4.259   4.168  14.689  0.00  0.00    +0.000 HD
ENDBRANCH  16  22
ENDBRANCH   4  12
BRANCH   8  24
ATOM     24  O   UNL     1      -0.845  11.903  17.530  0.00  0.00    +0.000 OA
ATOM     25  H   UNL     1      -0.206  12.421  17.033  0.00  0.00    +0.000 HD
ENDBRANCH   8  24
BRANCH  10  26
ATOM     26  O   UNL     1      -0.936   8.847  21.132  0.00  0.00    +0.000 OA
ATOM     27  H   UNL     1      -1.891   8.938  20.997  0.00  0.00    +0.000 HD
ENDBRANCH  10  26
BRANCH   3  28
ATOM     28  O   UNL     1       2.860   5.699  19.900  0.00  0.00    +0.000 OA
BRANCH  28  29
ATOM     29  C   UNL     1       1.965   4.674  19.431  0.00  0.00    +0.000 C 
ATOM     30  O   UNL     1       2.454   3.672  18.541  0.00  0.00    +0.000 OA
ATOM     31  C   UNL     1       3.471   2.833  19.082  0.00  0.00    +0.000 C 
ATOM     32  C   UNL     1       3.114   2.229  20.457  0.00  0.00    +0.000 C 
ATOM     33  C   UNL     1       2.324   3.196  21.374  0.00  0.00    +0.000 C 
ATOM     34  C   UNL     1       1.266   3.992  20.615  0.00  0.00    +0.000 C 
BRANCH  32  35
ATOM     35  O   UNL     1       4.317   1.858  21.151  0.00  0.00    +0.000 OA
ATOM     36  H   UNL     1       4.081   1.108  21.748  0.00  0.00    +0.000 HD
ENDBRANCH  32  35
BRANCH  33  37
ATOM     37  O   UNL     1       1.707   2.480  22.452  0.00  0.00    +0.000 OA
ATOM     38  H   UNL     1       1.060   3.082  22.861  0.00  0.00    +0.000 HD
ENDBRANCH  33  37
BRANCH  34  39
ATOM     39  O   UNL     1       0.177   3.165  20.163  0.00  0.00    +0.000 OA
ATOM     40  H   UNL     1       0.212   3.106  19.194  0.00  0.00    +0.000 HD
ENDBRANCH  34  39
BRANCH  31  41
ATOM     41  C   UNL     1       3.844   1.797  17.997  0.00  0.00    +0.000 C 
BRANCH  41  42
ATOM     42  O   UNL     1       4.014   0.503  18.602  0.00  0.00    +0.000 OA
ATOM     43  H   UNL     1       4.794   0.540  19.180  0.00  0.00    +0.000 HD
ENDBRANCH  41  42
ENDBRANCH  31  41
ENDBRANCH  28  29
ENDBRANCH   3  28
TORSDOF 13
ENDMDL
MODEL 6
REMARK VINA RESULT:      -5.9      5.352     11.541
REMARK  Name = 
REMARK  13 active torsions:
REMARK  status: ('A' for Active; 'I' for Inactive)
REMARK    1  A    between atoms: C_3  and  O_4
REMARK    2  A    between atoms: O_4  and  C_5
REMARK    3  A    between atoms: C_7  and  C_8
REMARK    4  A    between atoms: C_8  and  O_9
REMARK    5  A    between atoms: C_10  and  O_11
REMARK    6  A    between atoms: C_12  and  O_13
REMARK    7  A    between atoms: C_14  and  O_15
REMARK    8  A    between atoms: C_16  and  C_17
REMARK    9  A    between atoms: C_19  and  O_20
REMARK   10  A    between atoms: C_21  and  O_22
REMARK   11  A    between atoms: C_23  and  O_24
REMARK   12  A    between atoms: C_29  and  O_30
REMARK   13  A    between atoms: C_32  and  O_33
REMARK                            x       y       z     vdW  Elec       q    Type
REMARK                         _______ _______ _______ _____ _____    ______ ____
ROOT
ATOM      1  O   UNL     1       1.756   7.833  21.845  0.00  0.00    +0.000 OA
ATOM      2  C   UNL     1       1.824   7.871  20.620  0.00  0.00    +0.000 A 
ATOM      3  C   UNL     1       2.795   6.972  19.884  0.00  0.00    +0.000 A 
ATOM      4  C   UNL     1       3.159   7.383  18.641  0.00  0.00    +0.000 A 
ATOM      5  O   UNL     1       2.656   8.547  18.051  0.00  0.00    +0.000 OA
ATOM      6  C   UNL     1       1.472   9.065  18.526  0.00  0.00    +0.000 A 
ATOM      7  C   UNL     1       0.745   9.921  17.681  0.00  0.00    +0.000 A 
ATOM      8  C   UNL     1      -0.458  10.477  18.124  0.00  0.00    +0.000 A 
ATOM      9  C   UNL     1      -0.944  10.188  19.389  0.00  0.00    +0.000 A 
ATOM     10  C   UNL     1      -0.222   9.331  20.228  0.00  0.00    +0.000 A 
ATOM     11  C   UNL     1       0.992   8.769  19.798  0.00  0.00    +0.000 A 
ENDROOT
BRANCH   4  12
ATOM     12  C   UNL     1       3.969   6.557  17.695  0.00  0.00    +0.000 A 
ATOM     13  C   UNL     1       5.216   6.979  17.198  0.00  0.00    +0.000 A 
ATOM     14  C   UNL     1       6.095   6.065  16.625  0.00  0.00    +0.000 A 
ATOM     15  C   UNL     1       5.689   4.768  16.393  0.00  0.00    +0.000 A 
ATOM     16  C   UNL     1       4.389   4.390  16.687  0.00  0.00    +0.000 A 
ATOM     17  C   UNL     1       3.524   5.275  17.330  0.00  0.00    +0.000 A 
BRANCH  14  18
ATOM     18  O   UNL     1       7.392   6.394  16.325  0.00  0.00    +0.000 OA
ATOM     19  H   UNL     1       7.502   7.355  16.439  0.00  0.00    +0.000 HD
ENDBRANCH  14  18
BRANCH  15  20
ATOM     20  O   UNL     1       6.560   3.833  15.897  0.00  0.00    +0.000 OA
ATOM     21  H   UNL     1       7.404   4.027  16.355  0.00  0.00    +0.000 HD
ENDBRANCH  15  20
BRANCH  16  22
ATOM     22  O   UNL     1       3.966   3.124  16.412  0.00  0.00    +0.000 OA
ATOM     23  H   UNL     1       3.294   2.939  17.101  0.00  0.00    +0.000 HD
ENDBRANCH  16  22
ENDBRANCH   4  12
BRANCH   8  24
ATOM     24  O   UNL     1      -1.188  11.308  17.338  0.00  0.00    +0.000 OA
ATOM     25  H   UNL     1      -2.013  10.886  17.080  0.00  0.00    +0.000 HD
ENDBRANCH   8  24
BRANCH  10  26
ATOM     26  O   UNL     1      -0.745   9.037  21.458  0.00  0.00    +0.000 OA
ATOM     27  H   UNL     1      -0.381   8.201  21.784  0.00  0.00    +0.000 HD
ENDBRANCH  10  26
BRANCH   3  28
ATOM     28  O   UNL     1       2.943   5.704  20.400  0.00  0.00    +0.000 OA
BRANCH  28  29
ATOM     29  C   UNL     1       1.893   4.837  20.867  0.00  0.00    +0.000 C 
ATOM     30  O   UNL     1       1.006   4.242  19.922  0.00  0.00    +0.000 OA
ATOM     31  C   UNL     1       1.623   3.348  18.999  0.00  0.00    +0.000 C 
ATOM     32  C   UNL     1       2.520   2.284  19.666  0.00  0.00    +0.000 C 
ATOM     33  C   UNL     1       3.307   2.814  20.891  0.00  0.00    +0.000 C 
ATOM     34  C   UNL     1       2.471   3.739  21.771  0.00  0.00    +0.000 C 
BRANCH  32  35
ATOM     35  O   UNL     1       3.479   1.791  18.715  0.00  0.00    +0.000 OA
ATOM     36  H   UNL     1       4.193   2.468  18.655  0.00  0.00    +0.000 HD
ENDBRANCH  32  35
BRANCH  33  37
ATOM     37  O   UNL     1       3.813   1.727  21.677  0.00  0.00    +0.000 OA
ATOM     38  H   UNL     1       3.067   1.124  21.845  0.00  0.00    +0.000 HD
ENDBRANCH  33  37
BRANCH  34  39
ATOM     39  O   UNL     1       1.420   3.036  22.462  0.00  0.00    +0.000 OA
ATOM     40  H   UNL     1       0.730   2.799  21.821  0.00  0.00    +0.000 HD
ENDBRANCH  34  39
BRANCH  31  41
ATOM     41  C   UNL     1       0.511   2.779  18.090  0.00  0.00    +0.000 C 
BRANCH  41  42
ATOM     42  O   UNL     1       0.362   1.369  18.332  0.00  0.00    +0.000 OA
ATOM     43  H   UNL     1      -0.491   1.227  18.775  0.00  0.00    +0.000 HD
ENDBRANCH  41  42
ENDBRANCH  31  41
ENDBRANCH  28  29
ENDBRANCH   3  28
TORSDOF 13
ENDMDL
MODEL 7
REMARK VINA RESULT:      -5.9      6.184     11.723
REMARK  Name = 
REMARK  13 active torsions:
REMARK  status: ('A' for Active; 'I' for Inactive)
REMARK    1  A    between atoms: C_3  and  O_4
REMARK    2  A    between atoms: O_4  and  C_5
REMARK    3  A    between atoms: C_7  and  C_8
REMARK    4  A    between atoms: C_8  and  O_9
REMARK    5  A    between atoms: C_10  and  O_11
REMARK    6  A    between atoms: C_12  and  O_13
REMARK    7  A    between atoms: C_14  and  O_15
REMARK    8  A    between atoms: C_16  and  C_17
REMARK    9  A    between atoms: C_19  and  O_20
REMARK   10  A    between atoms: C_21  and  O_22
REMARK   11  A    between atoms: C_23  and  O_24
REMARK   12  A    between atoms: C_29  and  O_30
REMARK   13  A    between atoms: C_32  and  O_33
REMARK                            x       y       z     vdW  Elec       q    Type
REMARK                         _______ _______ _______ _____ _____    ______ ____
ROOT
ATOM      1  O   UNL     1       2.572   8.379  16.813  0.00  0.00    +0.000 OA
ATOM      2  C   UNL     1       2.391   7.936  17.943  0.00  0.00    +0.000 A 
ATOM      3  C   UNL     1       2.710   6.488  18.253  0.00  0.00    +0.000 A 
ATOM      4  C   UNL     1       2.064   5.954  19.323  0.00  0.00    +0.000 A 
ATOM      5  O   UNL     1       1.177   6.688  20.116  0.00  0.00    +0.000 OA
ATOM      6  C   UNL     1       1.266   8.063  20.100  0.00  0.00    +0.000 A 
ATOM      7  C   UNL     1       0.726   8.767  21.190  0.00  0.00    +0.000 A 
ATOM      8  C   UNL     1       0.786  10.162  21.213  0.00  0.00    +0.000 A 
ATOM      9  C   UNL     1       1.376  10.860  20.172  0.00  0.00    +0.000 A 
ATOM     10  C   UNL     1       1.918  10.157  19.089  0.00  0.00    +0.000 A 
ATOM     11  C   UNL     1       1.861   8.754  19.050  0.00  0.00    +0.000 A 
ENDROOT
BRANCH   4  12
ATOM     12  C   UNL     1       2.367   4.604  19.889  0.00  0.00    +0.000 A 
ATOM     13  C   UNL     1       3.520   3.877  19.539  0.00  0.00    +0.000 A 
ATOM     14  C   UNL     1       3.954   2.817  20.328  0.00  0.00    +0.000 A 
ATOM     15  C   UNL     1       3.171   2.366  21.370  0.00  0.00    +0.000 A 
ATOM     16  C   UNL     1       1.932   2.938  21.598  0.00  0.00    +0.000 A 
ATOM     17  C   UNL     1       1.519   4.049  20.862  0.00  0.00    +0.000 A 
BRANCH  14  18
ATOM     18  O   UNL     1       5.177   2.226  20.142  0.00  0.00    +0.000 OA
ATOM     19  H   UNL     1       5.476   1.857  20.993  0.00  0.00    +0.000 HD
ENDBRANCH  14  18
BRANCH  15  20
ATOM     20  O   UNL     1       3.612   1.371  22.205  0.00  0.00    +0.000 OA
ATOM     21  H   UNL     1       3.222   0.555  21.829  0.00  0.00    +0.000 HD
ENDBRANCH  15  20
BRANCH  16  22
ATOM     22  O   UNL     1       1.130   2.463  22.594  0.00  0.00    +0.000 OA
ATOM     23  H   UNL     1       1.441   2.930  23.397  0.00  0.00    +0.000 HD
ENDBRANCH  16  22
ENDBRANCH   4  12
BRANCH   8  24
ATOM     24  O   UNL     1       0.276  10.878  22.248  0.00  0.00    +0.000 OA
ATOM     25  H   UNL     1       0.473  11.812  22.138  0.00  0.00    +0.000 HD
ENDBRANCH   8  24
BRANCH  10  26
ATOM     26  O   UNL     1       2.526  10.872  18.093  0.00  0.00    +0.000 OA
ATOM     27  H   UNL     1       1.899  11.042  17.374  0.00  0.00    +0.000 HD
ENDBRANCH  10  26
BRANCH   3  28
ATOM     28  O   UNL     1       3.836   5.982  17.643  0.00  0.00    +0.000 OA
BRANCH  28  29
ATOM     29  C   UNL     1       4.719   6.682  16.747  0.00  0.00    +0.000 C 
ATOM     30  O   UNL     1       5.877   7.329  17.272  0.00  0.00    +0.000 OA
ATOM     31  C   UNL     1       6.832   6.457  17.872  0.00  0.00    +0.000 C 
ATOM     32  C   UNL     1       7.220   5.254  16.986  0.00  0.00    +0.000 C 
ATOM     33  C   UNL     1       6.038   4.678  16.167  0.00  0.00    +0.000 C 
ATOM     34  C   UNL     1       5.139   5.767  15.589  0.00  0.00    +0.000 C 
BRANCH  32  35
ATOM     35  O   UNL     1       7.736   4.193  17.808  0.00  0.00    +0.000 OA
ATOM     36  H   UNL     1       7.084   3.455  17.761  0.00  0.00    +0.000 HD
ENDBRANCH  32  35
BRANCH  33  37
ATOM     37  O   UNL     1       6.517   3.836  15.111  0.00  0.00    +0.000 OA
ATOM     38  H   UNL     1       5.745   3.592  14.568  0.00  0.00    +0.000 HD
ENDBRANCH  33  37
BRANCH  34  39
ATOM     39  O   UNL     1       5.791   6.522  14.549  0.00  0.00    +0.000 OA
ATOM     40  H   UNL     1       6.700   6.195  14.450  0.00  0.00    +0.000 HD
ENDBRANCH  34  39
BRANCH  31  41
ATOM     41  C   UNL     1       8.021   7.325  18.343  0.00  0.00    +0.000 C 
BRANCH  41  42
ATOM     42  O   UNL     1       7.957   8.616  17.713  0.00  0.00    +0.000 OA
ATOM     43  H   UNL     1       8.648   8.655  17.032  0.00  0.00    +0.000 HD
ENDBRANCH  41  42
ENDBRANCH  31  41
ENDBRANCH  28  29
ENDBRANCH   3  28
TORSDOF 13
ENDMDL
MODEL 8
REMARK VINA RESULT:      -5.9      3.660      6.740
REMARK  Name = 
REMARK  13 active torsions:
REMARK  status: ('A' for Active; 'I' for Inactive)
REMARK    1  A    between atoms: C_3  and  O_4
REMARK    2  A    between atoms: O_4  and  C_5
REMARK    3  A    between atoms: C_7  and  C_8
REMARK    4  A    between atoms: C_8  and  O_9
REMARK    5  A    between atoms: C_10  and  O_11
REMARK    6  A    between atoms: C_12  and  O_13
REMARK    7  A    between atoms: C_14  and  O_15
REMARK    8  A    between atoms: C_16  and  C_17
REMARK    9  A    between atoms: C_19  and  O_20
REMARK   10  A    between atoms: C_21  and  O_22
REMARK   11  A    between atoms: C_23  and  O_24
REMARK   12  A    between atoms: C_29  and  O_30
REMARK   13  A    between atoms: C_32  and  O_33
REMARK                            x       y       z     vdW  Elec       q    Type
REMARK                         _______ _______ _______ _____ _____    ______ ____
ROOT
ATOM      1  O   UNL     1      -1.478  11.826  23.483  0.00  0.00    +0.000 OA
ATOM      2  C   UNL     1      -0.723  12.006  22.532  0.00  0.00    +0.000 A 
ATOM      3  C   UNL     1      -0.433  13.410  22.045  0.00  0.00    +0.000 A 
ATOM      4  C   UNL     1      -0.007  13.516  20.759  0.00  0.00    +0.000 A 
ATOM      5  O   UNL     1       0.182  12.407  19.929  0.00  0.00    +0.000 OA
ATOM      6  C   UNL     1       0.361  11.173  20.515  0.00  0.00    +0.000 A 
ATOM      7  C   UNL     1       0.989  10.172  19.755  0.00  0.00    +0.000 A 
ATOM      8  C   UNL     1       1.184   8.902  20.305  0.00  0.00    +0.000 A 
ATOM      9  C   UNL     1       0.766   8.621  21.595  0.00  0.00    +0.000 A 
ATOM     10  C   UNL     1       0.145   9.621  22.353  0.00  0.00    +0.000 A 
ATOM     11  C   UNL     1      -0.062  10.900  21.812  0.00  0.00    +0.000 A 
ENDROOT
BRANCH   4  12
ATOM     12  C   UNL     1       0.488  14.788  20.149  0.00  0.00    +0.000 A 
ATOM     13  C   UNL     1       1.815  15.232  20.294  0.00  0.00    +0.000 A 
ATOM     14  C   UNL     1       2.334  16.200  19.441  0.00  0.00    +0.000 A 
ATOM     15  C   UNL     1       1.507  16.850  18.549  0.00  0.00    +0.000 A 
ATOM     16  C   UNL     1       0.151  16.571  18.538  0.00  0.00    +0.000 A 
ATOM     17  C   UNL     1      -0.368  15.550  19.335  0.00  0.00    +0.000 A 
BRANCH  14  18
ATOM     18  O   UNL     1       3.671  16.502  19.413  0.00  0.00    +0.000 OA
ATOM     19  H   UNL     1       3.834  17.244  20.023  0.00  0.00    +0.000 HD
ENDBRANCH  14  18
BRANCH  15  20
ATOM     20  O   UNL     1       2.010  17.755  17.650  0.00  0.00    +0.000 OA
ATOM     21  H   UNL     1       1.750  17.393  16.778  0.00  0.00    +0.000 HD
ENDBRANCH  15  20
BRANCH  16  22
ATOM     22  O   UNL     1      -0.680  17.247  17.695  0.00  0.00    +0.000 OA
ATOM     23  H   UNL     1      -1.573  16.908  17.913  0.00  0.00    +0.000 HD
ENDBRANCH  16  22
ENDBRANCH   4  12
BRANCH   8  24
ATOM     24  O   UNL     1       1.788   7.910  19.603  0.00  0.00    +0.000 OA
ATOM     25  H   UNL     1       1.958   7.153  20.171  0.00  0.00    +0.000 HD
ENDBRANCH   8  24
BRANCH  10  26
ATOM     26  O   UNL     1      -0.225   9.323  23.637  0.00  0.00    +0.000 OA
ATOM     27  H   UNL     1      -1.010   9.834  23.884  0.00  0.00    +0.000 HD
ENDBRANCH  10  26
BRANCH   3  28
ATOM     28  O   UNL     1      -0.312  14.368  23.026  0.00  0.00    +0.000 OA
BRANCH  28  29
ATOM     29  C   UNL     1      -1.023  15.618  23.101  0.00  0.00    +0.000 C 
ATOM     30  O   UNL     1      -2.425  15.641  22.837  0.00  0.00    +0.000 OA
ATOM     31  C   UNL     1      -3.221  14.891  23.750  0.00  0.00    +0.000 C 
ATOM     32  C   UNL     1      -2.930  15.202  25.233  0.00  0.00    +0.000 C 
ATOM     33  C   UNL     1      -1.432  15.465  25.531  0.00  0.00    +0.000 C 
ATOM     34  C   UNL     1      -0.757  16.303  24.449  0.00  0.00    +0.000 C 
BRANCH  32  35
ATOM     35  O   UNL     1      -3.347  14.096  26.053  0.00  0.00    +0.000 OA
ATOM     36  H   UNL     1      -2.539  13.562  26.242  0.00  0.00    +0.000 HD
ENDBRANCH  32  35
BRANCH  33  37
ATOM     37  O   UNL     1      -1.273  16.102  26.805  0.00  0.00    +0.000 OA
ATOM     38  H   UNL     1      -2.150  16.428  27.073  0.00  0.00    +0.000 HD
ENDBRANCH  33  37
BRANCH  34  39
ATOM     39  O   UNL     1      -1.229  17.664  24.436  0.00  0.00    +0.000 OA
ATOM     40  H   UNL     1      -1.999  17.733  25.023  0.00  0.00    +0.000 HD
ENDBRANCH  34  39
BRANCH  31  41
ATOM     41  C   UNL     1      -4.698  15.064  23.330  0.00  0.00    +0.000 C 
BRANCH  41  42
ATOM     42  O   UNL     1      -5.546  14.329  24.230  0.00  0.00    +0.000 OA
ATOM     43  H   UNL     1      -5.702  14.879  25.016  0.00  0.00    +0.000 HD
ENDBRANCH  41  42
ENDBRANCH  31  41
ENDBRANCH  28  29
ENDBRANCH   3  28
TORSDOF 13
ENDMDL
MODEL 9
REMARK VINA RESULT:      -5.7      3.143      6.039
REMARK  Name = 
REMARK  13 active torsions:
REMARK  status: ('A' for Active; 'I' for Inactive)
REMARK    1  A    between atoms: C_3  and  O_4
REMARK    2  A    between atoms: O_4  and  C_5
REMARK    3  A    between atoms: C_7  and  C_8
REMARK    4  A    between atoms: C_8  and  O_9
REMARK    5  A    between atoms: C_10  and  O_11
REMARK    6  A    between atoms: C_12  and  O_13
REMARK    7  A    between atoms: C_14  and  O_15
REMARK    8  A    between atoms: C_16  and  C_17
REMARK    9  A    between atoms: C_19  and  O_20
REMARK   10  A    between atoms: C_21  and  O_22
REMARK   11  A    between atoms: C_23  and  O_24
REMARK   12  A    between atoms: C_29  and  O_30
REMARK   13  A    between atoms: C_32  and  O_33
REMARK                            x       y       z     vdW  Elec       q    Type
REMARK                         _______ _______ _______ _____ _____    ______ ____
ROOT
ATOM      1  O   UNL     1      -2.405  16.176  20.315  0.00  0.00    +0.000 OA
ATOM      2  C   UNL     1      -1.445  15.464  20.037  0.00  0.00    +0.000 A 
ATOM      3  C   UNL     1      -1.441  14.003  20.434  0.00  0.00    +0.000 A 
ATOM      4  C   UNL     1      -0.218  13.417  20.532  0.00  0.00    +0.000 A 
ATOM      5  O   UNL     1       0.972  14.098  20.261  0.00  0.00    +0.000 OA
ATOM      6  C   UNL     1       0.915  15.231  19.479  0.00  0.00    +0.000 A 
ATOM      7  C   UNL     1       2.096  15.644  18.837  0.00  0.00    +0.000 A 
ATOM      8  C   UNL     1       2.088  16.791  18.041  0.00  0.00    +0.000 A 
ATOM      9  C   UNL     1       0.926  17.526  17.874  0.00  0.00    +0.000 A 
ATOM     10  C   UNL     1      -0.250  17.112  18.510  0.00  0.00    +0.000 A 
ATOM     11  C   UNL     1      -0.257  15.962  19.318  0.00  0.00    +0.000 A 
ENDROOT
BRANCH   4  12
ATOM     12  C   UNL     1      -0.012  11.952  20.746  0.00  0.00    +0.000 A 
ATOM     13  C   UNL     1       0.350  11.078  19.705  0.00  0.00    +0.000 A 
ATOM     14  C   UNL     1       0.877   9.822  19.987  0.00  0.00    +0.000 A 
ATOM     15  C   UNL     1       0.900   9.358  21.285  0.00  0.00    +0.000 A 
ATOM     16  C   UNL     1       0.354  10.125  22.300  0.00  0.00    +0.000 A 
ATOM     17  C   UNL     1      -0.109  11.415  22.041  0.00  0.00    +0.000 A 
BRANCH  14  18
ATOM     18  O   UNL     1       1.435   9.033  19.014  0.00  0.00    +0.000 OA
ATOM     19  H   UNL     1       1.657   9.594  18.249  0.00  0.00    +0.000 HD
ENDBRANCH  14  18
BRANCH  15  20
ATOM     20  O   UNL     1       1.481   8.155  21.595  0.00  0.00    +0.000 OA
ATOM     21  H   UNL     1       1.351   8.071  22.562  0.00  0.00    +0.000 HD
ENDBRANCH  15  20
BRANCH  16  22
ATOM     22  O   UNL     1       0.327   9.650  23.578  0.00  0.00    +0.000 OA
ATOM     23  H   UNL     1       0.935  10.242  24.068  0.00  0.00    +0.000 HD
ENDBRANCH  16  22
ENDBRANCH   4  12
BRANCH   8  24
ATOM     24  O   UNL     1       3.207  17.222  17.404  0.00  0.00    +0.000 OA
ATOM     25  H   UNL     1       3.919  17.360  18.035  0.00  0.00    +0.000 HD
ENDBRANCH   8  24
BRANCH  10  26
ATOM     26  O   UNL     1      -1.391  17.838  18.298  0.00  0.00    +0.000 OA
ATOM     27  H   UNL     1      -1.169  18.766  18.134  0.00  0.00    +0.000 HD
ENDBRANCH  10  26
BRANCH   3  28
ATOM     28  O   UNL     1      -2.651  13.353  20.331  0.00  0.00    +0.000 OA
BRANCH  28  29
ATOM     29  C   UNL     1      -3.408  12.767  21.406  0.00  0.00    +0.000 C 
ATOM     30  O   UNL     1      -3.136  13.163  22.749  0.00  0.00    +0.000 OA
ATOM     31  C   UNL     1      -3.392  14.535  23.034  0.00  0.00    +0.000 C 
ATOM     32  C   UNL     1      -4.788  15.016  22.585  0.00  0.00    +0.000 C 
ATOM     33  C   UNL     1      -5.260  14.391  21.248  0.00  0.00    +0.000 C 
ATOM     34  C   UNL     1      -4.913  12.910  21.138  0.00  0.00    +0.000 C 
BRANCH  32  35
ATOM     35  O   UNL     1      -4.780  16.444  22.417  0.00  0.00    +0.000 OA
ATOM     36  H   UNL     1      -5.389  16.645  21.668  0.00  0.00    +0.000 HD
ENDBRANCH  32  35
BRANCH  33  37
ATOM     37  O   UNL     1      -6.672  14.570  21.076  0.00  0.00    +0.000 OA
ATOM     38  H   UNL     1      -6.894  15.448  21.433  0.00  0.00    +0.000 HD
ENDBRANCH  33  37
BRANCH  34  39
ATOM     39  O   UNL     1      -5.676  12.098  22.051  0.00  0.00    +0.000 OA
ATOM     40  H   UNL     1      -5.653  11.177  21.744  0.00  0.00    +0.000 HD
ENDBRANCH  34  39
BRANCH  31  41
ATOM     41  C   UNL     1      -3.079  14.765  24.530  0.00  0.00    +0.000 C 
BRANCH  41  42
ATOM     42  O   UNL     1      -4.169  15.470  25.150  0.00  0.00    +0.000 OA
ATOM     43  H   UNL     1      -4.850  15.627  24.475  0.00  0.00    +0.000 HD
ENDBRANCH  41  42
ENDBRANCH  31  41
ENDBRANCH  28  29
ENDBRANCH   3  28
TORSDOF 13
ENDMDL
