MODEL 1
REMARK VINA RESULT:      -6.4      0.000      0.000
REMARK  Name = 
REMARK  5 active torsions:
REMARK  status: ('A' for Active; 'I' for Inactive)
REMARK    1  A    between atoms: C_1  and  O_2
REMARK    2  A    between atoms: O_2  and  C_3
REMARK    3  A    between atoms: C_5  and  O_6
REMARK    4  A    between atoms: C_7  and  C_8
REMARK    5  A    between atoms: C_11  and  C_12
REMARK                            x       y       z     vdW  Elec       q    Type
REMARK                         _______ _______ _______ _____ _____    ______ ____
ROOT
ATOM      1  C   UNL     1       2.288   6.107  19.650  0.00  0.00    +0.000 A 
ATOM      2  C   UNL     1       1.489   5.219  20.368  0.00  0.00    +0.000 A 
ATOM      3  C   UNL     1       1.534   3.857  20.080  0.00  0.00    +0.000 A 
ATOM      4  C   UNL     1       2.364   3.347  19.073  0.00  0.00    +0.000 A 
ATOM      5  C   UNL     1       2.413   1.860  18.815  0.00  0.00    +0.000 C 
ATOM      6  C   UNL     1       3.147   4.248  18.301  0.00  0.00    +0.000 A 
ATOM      7  C   UNL     1       3.966   3.830  17.231  0.00  0.00    +0.000 A 
ATOM      8  C   UNL     1       4.693   4.757  16.489  0.00  0.00    +0.000 A 
ATOM      9  C   UNL     1       5.492   4.326  15.297  0.00  0.00    +0.000 C 
ATOM     10  N   UNL     1       4.675   6.076  16.767  0.00  0.00    +0.000 NA
ATOM     11  C   UNL     1       3.895   6.473  17.802  0.00  0.00    +0.000 A 
ATOM     12  C   UNL     1       3.103   5.632  18.596  0.00  0.00    +0.000 A 
ENDROOT
BRANCH   1  14
ATOM     13  C   UNL     1       1.465   7.933  20.936  0.00  0.00    +0.000 C 
ATOM     14  O   UNL     1       2.291   7.465  19.873  0.00  0.00    +0.000 OA
ENDBRANCH   1  14
BRANCH   3  15
ATOM     15  O   UNL     1       0.740   2.995  20.788  0.00  0.00    +0.000 OA
ATOM     16  H   UNL     1       1.299   2.369  21.277  0.00  0.00    +0.000 HD
ENDBRANCH   3  15
TORSDOF 2
ENDMDL
MODEL 2
REMARK VINA RESULT:      -6.3      1.399      1.710
REMARK  Name = 
REMARK  5 active torsions:
REMARK  status: ('A' for Active; 'I' for Inactive)
REMARK    1  A    between atoms: C_1  and  O_2
REMARK    2  A    between atoms: O_2  and  C_3
REMARK    3  A    between atoms: C_5  and  O_6
REMARK    4  A    between atoms: C_7  and  C_8
REMARK    5  A    between atoms: C_11  and  C_12
REMARK                            x       y       z     vdW  Elec       q    Type
REMARK                         _______ _______ _______ _____ _____    ______ ____
ROOT
ATOM      1  C   UNL     1       3.100   6.527  18.218  0.00  0.00    +0.000 A 
ATOM      2  C   UNL     1       2.231   5.733  18.964  0.00  0.00    +0.000 A 
ATOM      3  C   UNL     1       2.270   4.347  18.832  0.00  0.00    +0.000 A 
ATOM      4  C   UNL     1       3.165   3.719  17.955  0.00  0.00    +0.000 A 
ATOM      5  C   UNL     1       3.204   2.213  17.866  0.00  0.00    +0.000 C 
ATOM      6  C   UNL     1       4.023   4.520  17.153  0.00  0.00    +0.000 A 
ATOM      7  C   UNL     1       4.914   3.978  16.204  0.00  0.00    +0.000 A 
ATOM      8  C   UNL     1       5.714   4.808  15.424  0.00  0.00    +0.000 A 
ATOM      9  C   UNL     1       6.595   4.238  14.353  0.00  0.00    +0.000 C 
ATOM     10  N   UNL     1       5.702   6.149  15.553  0.00  0.00    +0.000 NA
ATOM     11  C   UNL     1       4.852   6.668  16.474  0.00  0.00    +0.000 A 
ATOM     12  C   UNL     1       3.985   5.929  17.290  0.00  0.00    +0.000 A 
ENDROOT
BRANCH   1  14
ATOM     13  C   UNL     1       1.939   8.570  17.837  0.00  0.00    +0.000 C 
ATOM     14  O   UNL     1       3.113   7.901  18.290  0.00  0.00    +0.000 OA
ENDBRANCH   1  14
BRANCH   3  15
ATOM     15  O   UNL     1       1.407   3.578  19.565  0.00  0.00    +0.000 OA
ATOM     16  H   UNL     1       1.668   3.602  20.500  0.00  0.00    +0.000 HD
ENDBRANCH   3  15
TORSDOF 2
ENDMDL
MODEL 3
REMARK VINA RESULT:      -6.2      2.469      4.357
REMARK  Name = 
REMARK  5 active torsions:
REMARK  status: ('A' for Active; 'I' for Inactive)
REMARK    1  A    between atoms: C_1  and  O_2
REMARK    2  A    between atoms: O_2  and  C_3
REMARK    3  A    between atoms: C_5  and  O_6
REMARK    4  A    between atoms: C_7  and  C_8
REMARK    5  A    between atoms: C_11  and  C_12
REMARK                            x       y       z     vdW  Elec       q    Type
REMARK                         _______ _______ _______ _____ _____    ______ ____
ROOT
ATOM      1  C   UNL     1       3.599   4.301  19.314  0.00  0.00    +0.000 A 
ATOM      2  C   UNL     1       4.431   3.563  18.474  0.00  0.00    +0.000 A 
ATOM      3  C   UNL     1       4.943   4.146  17.318  0.00  0.00    +0.000 A 
ATOM      4  C   UNL     1       4.639   5.467  16.966  0.00  0.00    +0.000 A 
ATOM      5  C   UNL     1       5.242   6.077  15.724  0.00  0.00    +0.000 C 
ATOM      6  C   UNL     1       3.753   6.215  17.789  0.00  0.00    +0.000 A 
ATOM      7  C   UNL     1       3.346   7.530  17.482  0.00  0.00    +0.000 A 
ATOM      8  C   UNL     1       2.455   8.209  18.309  0.00  0.00    +0.000 A 
ATOM      9  C   UNL     1       1.952   9.572  17.937  0.00  0.00    +0.000 C 
ATOM     10  N   UNL     1       1.966   7.667  19.441  0.00  0.00    +0.000 NA
ATOM     11  C   UNL     1       2.366   6.406  19.739  0.00  0.00    +0.000 A 
ATOM     12  C   UNL     1       3.235   5.623  18.966  0.00  0.00    +0.000 A 
ENDROOT
BRANCH   1  14
ATOM     13  C   UNL     1       2.184   2.669  20.315  0.00  0.00    +0.000 C 
ATOM     14  O   UNL     1       3.050   3.790  20.468  0.00  0.00    +0.000 OA
ENDBRANCH   1  14
BRANCH   3  15
ATOM     15  O   UNL     1       5.753   3.408  16.497  0.00  0.00    +0.000 OA
ATOM     16  H   UNL     1       5.736   2.479  16.777  0.00  0.00    +0.000 HD
ENDBRANCH   3  15
TORSDOF 2
ENDMDL
MODEL 4
REMARK VINA RESULT:      -6.2      2.148      3.700
REMARK  Name = 
REMARK  5 active torsions:
REMARK  status: ('A' for Active; 'I' for Inactive)
REMARK    1  A    between atoms: C_1  and  O_2
REMARK    2  A    between atoms: O_2  and  C_3
REMARK    3  A    between atoms: C_5  and  O_6
REMARK    4  A    between atoms: C_7  and  C_8
REMARK    5  A    between atoms: C_11  and  C_12
REMARK                            x       y       z     vdW  Elec       q    Type
REMARK                         _______ _______ _______ _____ _____    ______ ____
ROOT
ATOM      1  C   UNL     1       2.683   3.742  20.384  0.00  0.00    +0.000 A 
ATOM      2  C   UNL     1       3.216   2.632  19.730  0.00  0.00    +0.000 A 
ATOM      3  C   UNL     1       3.772   2.775  18.461  0.00  0.00    +0.000 A 
ATOM      4  C   UNL     1       3.807   4.015  17.811  0.00  0.00    +0.000 A 
ATOM      5  C   UNL     1       4.451   4.139  16.452  0.00  0.00    +0.000 C 
ATOM      6  C   UNL     1       3.224   5.146  18.447  0.00  0.00    +0.000 A 
ATOM      7  C   UNL     1       3.163   6.419  17.844  0.00  0.00    +0.000 A 
ATOM      8  C   UNL     1       2.557   7.487  18.500  0.00  0.00    +0.000 A 
ATOM      9  C   UNL     1       2.411   8.817  17.824  0.00  0.00    +0.000 C 
ATOM     10  N   UNL     1       2.031   7.370  19.735  0.00  0.00    +0.000 NA
ATOM     11  C   UNL     1       2.100   6.147  20.317  0.00  0.00    +0.000 A 
ATOM     12  C   UNL     1       2.661   5.000  19.738  0.00  0.00    +0.000 A 
ENDROOT
BRANCH   1  14
ATOM     13  C   UNL     1       1.420   2.470  21.950  0.00  0.00    +0.000 C 
ATOM     14  O   UNL     1       2.111   3.675  21.633  0.00  0.00    +0.000 OA
ENDBRANCH   1  14
BRANCH   3  15
ATOM     15  O   UNL     1       4.285   1.676  17.826  0.00  0.00    +0.000 OA
ATOM     16  H   UNL     1       4.141   1.760  16.869  0.00  0.00    +0.000 HD
ENDBRANCH   3  15
TORSDOF 2
ENDMDL
MODEL 5
REMARK VINA RESULT:      -6.2      1.377      3.267
REMARK  Name = 
REMARK  5 active torsions:
REMARK  status: ('A' for Active; 'I' for Inactive)
REMARK    1  A    between atoms: C_1  and  O_2
REMARK    2  A    between atoms: O_2  and  C_3
REMARK    3  A    between atoms: C_5  and  O_6
REMARK    4  A    between atoms: C_7  and  C_8
REMARK    5  A    between atoms: C_11  and  C_12
REMARK                            x       y       z     vdW  Elec       q    Type
REMARK                         _______ _______ _______ _____ _____    ______ ____
ROOT
ATOM      1  C   UNL     1       2.724   4.115  20.050  0.00  0.00    +0.000 A 
ATOM      2  C   UNL     1       2.153   5.224  20.673  0.00  0.00    +0.000 A 
ATOM      3  C   UNL     1       2.209   6.471  20.058  0.00  0.00    +0.000 A 
ATOM      4  C   UNL     1       2.836   6.650  18.817  0.00  0.00    +0.000 A 
ATOM      5  C   UNL     1       2.844   8.010  18.163  0.00  0.00    +0.000 C 
ATOM      6  C   UNL     1       3.464   5.537  18.194  0.00  0.00    +0.000 A 
ATOM      7  C   UNL     1       4.167   5.636  16.975  0.00  0.00    +0.000 A 
ATOM      8  C   UNL     1       4.787   4.520  16.420  0.00  0.00    +0.000 A 
ATOM      9  C   UNL     1       5.610   4.642  15.173  0.00  0.00    +0.000 C 
ATOM     10  N   UNL     1       4.726   3.302  16.994  0.00  0.00    +0.000 NA
ATOM     11  C   UNL     1       4.042   3.208  18.160  0.00  0.00    +0.000 A 
ATOM     12  C   UNL     1       3.405   4.269  18.819  0.00  0.00    +0.000 A 
ENDROOT
BRANCH   1  14
ATOM     13  C   UNL     1       1.735   2.612  21.607  0.00  0.00    +0.000 C 
ATOM     14  O   UNL     1       2.714   2.854  20.601  0.00  0.00    +0.000 OA
ENDBRANCH   1  14
BRANCH   3  15
ATOM     15  O   UNL     1       1.650   7.554  20.682  0.00  0.00    +0.000 OA
ATOM     16  H   UNL     1       0.683   7.506  20.608  0.00  0.00    +0.000 HD
ENDBRANCH   3  15
TORSDOF 2
ENDMDL
MODEL 6
REMARK VINA RESULT:      -6.2      3.230      5.160
REMARK  Name = 
REMARK  5 active torsions:
REMARK  status: ('A' for Active; 'I' for Inactive)
REMARK    1  A    between atoms: C_1  and  O_2
REMARK    2  A    between atoms: O_2  and  C_3
REMARK    3  A    between atoms: C_5  and  O_6
REMARK    4  A    between atoms: C_7  and  C_8
REMARK    5  A    between atoms: C_11  and  C_12
REMARK                            x       y       z     vdW  Elec       q    Type
REMARK                         _______ _______ _______ _____ _____    ______ ____
ROOT
ATOM      1  C   UNL     1       6.602   5.227  18.600  0.00  0.00    +0.000 A 
ATOM      2  C   UNL     1       7.382   5.527  17.483  0.00  0.00    +0.000 A 
ATOM      3  C   UNL     1       6.922   5.206  16.209  0.00  0.00    +0.000 A 
ATOM      4  C   UNL     1       5.686   4.576  16.012  0.00  0.00    +0.000 A 
ATOM      5  C   UNL     1       5.204   4.276  14.614  0.00  0.00    +0.000 C 
ATOM      6  C   UNL     1       4.903   4.221  17.145  0.00  0.00    +0.000 A 
ATOM      7  C   UNL     1       3.675   3.535  17.045  0.00  0.00    +0.000 A 
ATOM      8  C   UNL     1       2.961   3.187  18.188  0.00  0.00    +0.000 A 
ATOM      9  C   UNL     1       1.702   2.379  18.088  0.00  0.00    +0.000 C 
ATOM     10  N   UNL     1       3.383   3.507  19.427  0.00  0.00    +0.000 NA
ATOM     11  C   UNL     1       4.558   4.176  19.520  0.00  0.00    +0.000 A 
ATOM     12  C   UNL     1       5.370   4.550  18.440  0.00  0.00    +0.000 A 
ENDROOT
BRANCH   1  14
ATOM     13  C   UNL     1       8.397   5.498  20.139  0.00  0.00    +0.000 C 
ATOM     14  O   UNL     1       6.994   5.508  19.888  0.00  0.00    +0.000 OA
ENDBRANCH   1  14
BRANCH   3  15
ATOM     15  O   UNL     1       7.699   5.500  15.121  0.00  0.00    +0.000 OA
ATOM     16  H   UNL     1       8.379   6.145  15.375  0.00  0.00    +0.000 HD
ENDBRANCH   3  15
TORSDOF 2
ENDMDL
MODEL 7
REMARK VINA RESULT:      -6.1      2.412      4.026
REMARK  Name = 
REMARK  5 active torsions:
REMARK  status: ('A' for Active; 'I' for Inactive)
REMARK    1  A    between atoms: C_1  and  O_2
REMARK    2  A    between atoms: O_2  and  C_3
REMARK    3  A    between atoms: C_5  and  O_6
REMARK    4  A    between atoms: C_7  and  C_8
REMARK    5  A    between atoms: C_11  and  C_12
REMARK                            x       y       z     vdW  Elec       q    Type
REMARK                         _______ _______ _______ _____ _____    ______ ____
ROOT
ATOM      1  C   UNL     1       2.863   4.584  20.189  0.00  0.00    +0.000 A 
ATOM      2  C   UNL     1       3.609   3.623  19.508  0.00  0.00    +0.000 A 
ATOM      3  C   UNL     1       4.214   3.945  18.297  0.00  0.00    +0.000 A 
ATOM      4  C   UNL     1       4.091   5.220  17.730  0.00  0.00    +0.000 A 
ATOM      5  C   UNL     1       4.792   5.543  16.433  0.00  0.00    +0.000 C 
ATOM      6  C   UNL     1       3.293   6.195  18.391  0.00  0.00    +0.000 A 
ATOM      7  C   UNL     1       3.066   7.484  17.866  0.00  0.00    +0.000 A 
ATOM      8  C   UNL     1       2.254   8.392  18.540  0.00  0.00    +0.000 A 
ATOM      9  C   UNL     1       1.939   9.729  17.940  0.00  0.00    +0.000 C 
ATOM     10  N   UNL     1       1.677   8.103  19.722  0.00  0.00    +0.000 NA
ATOM     11  C   UNL     1       1.905   6.866  20.230  0.00  0.00    +0.000 A 
ATOM     12  C   UNL     1       2.680   5.868  19.624  0.00  0.00    +0.000 A 
ENDROOT
BRANCH   1  14
ATOM     13  C   UNL     1       1.981   2.969  21.698  0.00  0.00    +0.000 C 
ATOM     14  O   UNL     1       2.231   4.337  21.386  0.00  0.00    +0.000 OA
ENDBRANCH   1  14
BRANCH   3  15
ATOM     15  O   UNL     1       4.939   2.990  17.634  0.00  0.00    +0.000 OA
ATOM     16  H   UNL     1       4.650   2.951  16.708  0.00  0.00    +0.000 HD
ENDBRANCH   3  15
TORSDOF 2
ENDMDL
MODEL 8
REMARK VINA RESULT:      -6.0      1.905      4.090
REMARK  Name = 
REMARK  5 active torsions:
REMARK  status: ('A' for Active; 'I' for Inactive)
REMARK    1  A    between atoms: C_1  and  O_2
REMARK    2  A    between atoms: O_2  and  C_3
REMARK    3  A    between atoms: C_5  and  O_6
REMARK    4  A    between atoms: C_7  and  C_8
REMARK    5  A    between atoms: C_11  and  C_12
REMARK                            x       y       z     vdW  Elec       q    Type
REMARK                         _______ _______ _______ _____ _____    ______ ____
ROOT
ATOM      1  C   UNL     1       3.655   4.551  17.444  0.00  0.00    +0.000 A 
ATOM      2  C   UNL     1       3.559   3.169  17.591  0.00  0.00    +0.000 A 
ATOM      3  C   UNL     1       2.788   2.632  18.619  0.00  0.00    +0.000 A 
ATOM      4  C   UNL     1       2.102   3.451  19.526  0.00  0.00    +0.000 A 
ATOM      5  C   UNL     1       1.247   2.833  20.605  0.00  0.00    +0.000 C 
ATOM      6  C   UNL     1       2.230   4.863  19.416  0.00  0.00    +0.000 A 
ATOM      7  C   UNL     1       1.623   5.762  20.317  0.00  0.00    +0.000 A 
ATOM      8  C   UNL     1       1.802   7.135  20.180  0.00  0.00    +0.000 A 
ATOM      9  C   UNL     1       1.232   8.086  21.189  0.00  0.00    +0.000 C 
ATOM     10  N   UNL     1       2.529   7.671  19.180  0.00  0.00    +0.000 NA
ATOM     11  C   UNL     1       3.104   6.805  18.308  0.00  0.00    +0.000 A 
ATOM     12  C   UNL     1       3.011   5.408  18.368  0.00  0.00    +0.000 A 
ENDROOT
BRANCH   1  14
ATOM     13  C   UNL     1       5.627   4.511  16.112  0.00  0.00    +0.000 C 
ATOM     14  O   UNL     1       4.402   5.153  16.457  0.00  0.00    +0.000 OA
ENDBRANCH   1  14
BRANCH   3  15
ATOM     15  O   UNL     1       2.707   1.273  18.758  0.00  0.00    +0.000 OA
ATOM     16  H   UNL     1       3.047   1.017  19.631  0.00  0.00    +0.000 HD
ENDBRANCH   3  15
TORSDOF 2
ENDMDL
MODEL 9
REMARK VINA RESULT:      -6.0      2.726      3.921
REMARK  Name = 
REMARK  5 active torsions:
REMARK  status: ('A' for Active; 'I' for Inactive)
REMARK    1  A    between atoms: C_1  and  O_2
REMARK    2  A    between atoms: O_2  and  C_3
REMARK    3  A    between atoms: C_5  and  O_6
REMARK    4  A    between atoms: C_7  and  C_8
REMARK    5  A    between atoms: C_11  and  C_12
REMARK                            x       y       z     vdW  Elec       q    Type
REMARK                         _______ _______ _______ _____ _____    ______ ____
ROOT
ATOM      1  C   UNL     1       6.705   5.432  18.326  0.00  0.00    +0.000 A 
ATOM      2  C   UNL     1       5.676   5.327  19.261  0.00  0.00    +0.000 A 
ATOM      3  C   UNL     1       4.479   4.708  18.909  0.00  0.00    +0.000 A 
ATOM      4  C   UNL     1       4.273   4.186  17.626  0.00  0.00    +0.000 A 
ATOM      5  C   UNL     1       2.976   3.489  17.292  0.00  0.00    +0.000 C 
ATOM      6  C   UNL     1       5.296   4.330  16.648  0.00  0.00    +0.000 A 
ATOM      7  C   UNL     1       5.153   3.887  15.317  0.00  0.00    +0.000 A 
ATOM      8  C   UNL     1       6.176   4.075  14.392  0.00  0.00    +0.000 A 
ATOM      9  C   UNL     1       5.991   3.687  12.956  0.00  0.00    +0.000 C 
ATOM     10  N   UNL     1       7.347   4.655  14.721  0.00  0.00    +0.000 NA
ATOM     11  C   UNL     1       7.486   5.071  16.004  0.00  0.00    +0.000 A 
ATOM     12  C   UNL     1       6.513   4.956  17.007  0.00  0.00    +0.000 A 
ENDROOT
BRANCH   1  14
ATOM     13  C   UNL     1       7.995   7.432  18.327  0.00  0.00    +0.000 C 
ATOM     14  O   UNL     1       7.911   6.035  18.599  0.00  0.00    +0.000 OA
ENDBRANCH   1  14
BRANCH   3  15
ATOM     15  O   UNL     1       3.474   4.617  19.834  0.00  0.00    +0.000 OA
ATOM     16  H   UNL     1       3.731   5.096  20.638  0.00  0.00    +0.000 HD
ENDBRANCH   3  15
TORSDOF 2
ENDMDL
