MODEL 1
REMARK VINA RESULT:      -8.3      0.000      0.000
REMARK  Name = 
REMARK  12 active torsions:
REMARK  status: ('A' for Active; 'I' for Inactive)
REMARK    1  A    between atoms: C_1  and  C_2
REMARK    2  A    between atoms: C_2  and  N_3
REMARK    3  A    between atoms: C_2  and  C_30
REMARK    4  A    between atoms: C_4  and  C_6
REMARK    5  A    between atoms: C_6  and  C_7
REMARK    6  A    between atoms: C_6  and  N_14
REMARK    7  A    between atoms: C_7  and  C_8
REMARK    8  A    between atoms: C_8  and  C_9
REMARK    9  A    between atoms: C_9  and  N_10
REMARK   10  A    between atoms: C_15  and  C_17
REMARK   11  A    between atoms: C_17  and  C_18
REMARK   12  A    between atoms: C_17  and  C_24
REMARK                            x       y       z     vdW  Elec       q    Type
REMARK                         _______ _______ _______ _____ _____    ______ ____
ROOT
ATOM      1  C   UNL     1       1.769   8.908  19.940  0.00  0.00    +0.000 C 
ENDROOT
BRANCH   1   3
ATOM      2  N   UNL     1       0.676  11.032  19.417  0.00  0.00    +0.000 N 
ATOM      3  C   UNL     1       0.782   9.707  19.057  0.00  0.00    +0.000 C 
ATOM      4  O   UNL     1       0.183   9.217  18.104  0.00  0.00    +0.000 OA
ATOM      5  H   UNL     1       1.376  11.405  20.056  0.00  0.00    +0.000 HD
BRANCH   2   7
ATOM      6  C   UNL     1      -1.596  12.002  19.408  0.00  0.00    +0.000 C 
ATOM      7  C   UNL     1      -0.215  11.965  18.742  0.00  0.00    +0.000 C 
BRANCH   7   8
ATOM      8  C   UNL     1       0.418  13.344  18.707  0.00  0.00    +0.000 A 
ATOM      9  C   UNL     1       1.789  13.488  18.446  0.00  0.00    +0.000 A 
ATOM     10  C   UNL     1       2.387  14.750  18.459  0.00  0.00    +0.000 A 
ATOM     11  C   UNL     1       1.622  15.884  18.732  0.00  0.00    +0.000 A 
ATOM     12  C   UNL     1       0.260  15.757  18.989  0.00  0.00    +0.000 A 
ATOM     13  C   UNL     1      -0.339  14.499  18.974  0.00  0.00    +0.000 A 
ENDBRANCH   7   8
ENDBRANCH   2   7
ENDBRANCH   1   3
BRANCH   1  14
ATOM     14  N   UNL     1       1.915   7.542  19.435  0.00  0.00    +0.000 N 
ATOM     15  C   UNL     1       2.800   7.236  18.417  0.00  0.00    +0.000 C 
ATOM     16  O   UNL     1       3.475   8.118  17.878  0.00  0.00    +0.000 OA
ATOM     17  H   UNL     1       1.280   6.839  19.781  0.00  0.00    +0.000 HD
BRANCH  15  18
ATOM     18  C   UNL     1       2.879   5.730  18.039  0.00  0.00    +0.000 C 
BRANCH  18  19
ATOM     19  C   UNL     1       4.320   5.399  17.649  0.00  0.00    +0.000 A 
ATOM     20  C   UNL     1       4.647   4.895  16.381  0.00  0.00    +0.000 A 
ATOM     21  C   UNL     1       5.945   4.458  16.104  0.00  0.00    +0.000 A 
ATOM     22  C   UNL     1       6.928   4.504  17.090  0.00  0.00    +0.000 A 
ATOM     23  C   UNL     1       6.625   5.015  18.348  0.00  0.00    +0.000 A 
ATOM     24  C   UNL     1       5.331   5.467  18.626  0.00  0.00    +0.000 A 
ENDBRANCH  18  19
BRANCH  18  25
ATOM     25  C   UNL     1       2.201   4.788  19.050  0.00  0.00    +0.000 A 
ATOM     26  C   UNL     1       1.331   3.757  18.653  0.00  0.00    +0.000 A 
ATOM     27  C   UNL     1       0.868   2.803  19.564  0.00  0.00    +0.000 A 
ATOM     28  C   UNL     1       1.247   2.865  20.901  0.00  0.00    +0.000 A 
ATOM     29  C   UNL     1       2.067   3.902  21.332  0.00  0.00    +0.000 A 
ATOM     30  C   UNL     1       2.539   4.855  20.419  0.00  0.00    +0.000 A 
ENDBRANCH  18  25
ENDBRANCH  15  18
ENDBRANCH   1  14
BRANCH   1  31
ATOM     31  C   UNL     1       1.293   8.904  21.399  0.00  0.00    +0.000 C 
BRANCH  31  32
ATOM     32  C   UNL     1      -0.232   8.994  21.554  0.00  0.00    +0.000 C 
BRANCH  32  33
ATOM     33  C   UNL     1      -0.652   9.710  22.835  0.00  0.00    +0.000 C 
BRANCH  33  34
ATOM     34  N   UNL     1      -0.259  11.115  22.735  0.00  0.00    +0.000 NA
ATOM     35  C   UNL     1      -1.172  11.993  22.926  0.00  0.00    +0.000 C 
ATOM     36  N   UNL     1      -2.474  11.818  23.240  0.00  0.00    +0.000 N 
ATOM     37  N   UNL     1      -0.865  13.296  22.768  0.00  0.00    +0.000 N 
ATOM     38  H   UNL     1      -2.751  10.904  23.566  0.00  0.00    +0.000 HD
ATOM     39  H   UNL     1      -2.953  12.577  23.699  0.00  0.00    +0.000 HD
ATOM     40  H   UNL     1       0.137  13.411  22.649  0.00  0.00    +0.000 HD
ATOM     41  H   UNL     1      -1.234  13.930  23.461  0.00  0.00    +0.000 HD
ENDBRANCH  33  34
ENDBRANCH  32  33
ENDBRANCH  31  32
ENDBRANCH   1  31
TORSDOF 11
ENDMDL
MODEL 2
REMARK VINA RESULT:      -8.3      4.693      9.094
REMARK  Name = 
REMARK  12 active torsions:
REMARK  status: ('A' for Active; 'I' for Inactive)
REMARK    1  A    between atoms: C_1  and  C_2
REMARK    2  A    between atoms: C_2  and  N_3
REMARK    3  A    between atoms: C_2  and  C_30
REMARK    4  A    between atoms: C_4  and  C_6
REMARK    5  A    between atoms: C_6  and  C_7
REMARK    6  A    between atoms: C_6  and  N_14
REMARK    7  A    between atoms: C_7  and  C_8
REMARK    8  A    between atoms: C_8  and  C_9
REMARK    9  A    between atoms: C_9  and  N_10
REMARK   10  A    between atoms: C_15  and  C_17
REMARK   11  A    between atoms: C_17  and  C_18
REMARK   12  A    between atoms: C_17  and  C_24
REMARK                            x       y       z     vdW  Elec       q    Type
REMARK                         _______ _______ _______ _____ _____    ______ ____
ROOT
ATOM      1  C   UNL     1       6.179   4.931  16.988  0.00  0.00    +0.000 C 
ENDROOT
BRANCH   1   3
ATOM      2  N   UNL     1       6.870   4.746  14.650  0.00  0.00    +0.000 N 
ATOM      3  C   UNL     1       6.035   5.406  15.524  0.00  0.00    +0.000 C 
ATOM      4  O   UNL     1       5.227   6.260  15.170  0.00  0.00    +0.000 OA
ATOM      5  H   UNL     1       7.329   3.901  14.983  0.00  0.00    +0.000 HD
BRANCH   2   7
ATOM      6  C   UNL     1       8.302   5.586  12.820  0.00  0.00    +0.000 C 
ATOM      7  C   UNL     1       6.923   5.051  13.227  0.00  0.00    +0.000 C 
BRANCH   7   8
ATOM      8  C   UNL     1       6.552   3.816  12.425  0.00  0.00    +0.000 A 
ATOM      9  C   UNL     1       5.205   3.471  12.239  0.00  0.00    +0.000 A 
ATOM     10  C   UNL     1       4.858   2.311  11.542  0.00  0.00    +0.000 A 
ATOM     11  C   UNL     1       5.852   1.483  11.022  0.00  0.00    +0.000 A 
ATOM     12  C   UNL     1       7.193   1.815  11.195  0.00  0.00    +0.000 A 
ATOM     13  C   UNL     1       7.542   2.974  11.887  0.00  0.00    +0.000 A 
ENDBRANCH   7   8
ENDBRANCH   2   7
ENDBRANCH   1   3
BRANCH   1  14
ATOM     14  N   UNL     1       4.921   5.114  17.711  0.00  0.00    +0.000 N 
ATOM     15  C   UNL     1       4.892   5.310  19.079  0.00  0.00    +0.000 C 
ATOM     16  O   UNL     1       5.934   5.306  19.742  0.00  0.00    +0.000 OA
ATOM     17  H   UNL     1       4.059   4.994  17.200  0.00  0.00    +0.000 HD
BRANCH  15  18
ATOM     18  C   UNL     1       3.480   5.548  19.686  0.00  0.00    +0.000 C 
BRANCH  18  19
ATOM     19  C   UNL     1       2.964   6.904  19.205  0.00  0.00    +0.000 A 
ATOM     20  C   UNL     1       2.033   7.648  19.947  0.00  0.00    +0.000 A 
ATOM     21  C   UNL     1       1.463   8.808  19.413  0.00  0.00    +0.000 A 
ATOM     22  C   UNL     1       1.802   9.231  18.130  0.00  0.00    +0.000 A 
ATOM     23  C   UNL     1       2.734   8.513  17.387  0.00  0.00    +0.000 A 
ATOM     24  C   UNL     1       3.318   7.361  17.921  0.00  0.00    +0.000 A 
ENDBRANCH  18  19
BRANCH  18  25
ATOM     25  C   UNL     1       2.522   4.352  19.544  0.00  0.00    +0.000 A 
ATOM     26  C   UNL     1       1.673   4.195  18.434  0.00  0.00    +0.000 A 
ATOM     27  C   UNL     1       0.944   3.018  18.235  0.00  0.00    +0.000 A 
ATOM     28  C   UNL     1       1.032   1.974  19.149  0.00  0.00    +0.000 A 
ATOM     29  C   UNL     1       1.826   2.120  20.281  0.00  0.00    +0.000 A 
ATOM     30  C   UNL     1       2.563   3.295  20.479  0.00  0.00    +0.000 A 
ENDBRANCH  18  25
ENDBRANCH  15  18
ENDBRANCH   1  14
BRANCH   1  31
ATOM     31  C   UNL     1       7.323   5.685  17.681  0.00  0.00    +0.000 C 
BRANCH  31  32
ATOM     32  C   UNL     1       7.399   7.172  17.312  0.00  0.00    +0.000 C 
BRANCH  32  33
ATOM     33  C   UNL     1       8.215   7.987  18.311  0.00  0.00    +0.000 C 
BRANCH  33  34
ATOM     34  N   UNL     1       8.352   9.351  17.801  0.00  0.00    +0.000 NA
ATOM     35  C   UNL     1       8.921  10.207  18.564  0.00  0.00    +0.000 C 
ATOM     36  N   UNL     1       9.451  10.036  19.794  0.00  0.00    +0.000 N 
ATOM     37  N   UNL     1       8.998  11.490  18.159  0.00  0.00    +0.000 N 
ATOM     38  H   UNL     1       9.616   9.087  20.098  0.00  0.00    +0.000 HD
ATOM     39  H   UNL     1      10.159  10.689  20.095  0.00  0.00    +0.000 HD
ATOM     40  H   UNL     1       8.700  11.573  17.191  0.00  0.00    +0.000 HD
ATOM     41  H   UNL     1       9.875  11.959  18.322  0.00  0.00    +0.000 HD
ENDBRANCH  33  34
ENDBRANCH  32  33
ENDBRANCH  31  32
ENDBRANCH   1  31
TORSDOF 11
ENDMDL
MODEL 3
REMARK VINA RESULT:      -8.2      1.832      2.970
REMARK  Name = 
REMARK  12 active torsions:
REMARK  status: ('A' for Active; 'I' for Inactive)
REMARK    1  A    between atoms: C_1  and  C_2
REMARK    2  A    between atoms: C_2  and  N_3
REMARK    3  A    between atoms: C_2  and  C_30
REMARK    4  A    between atoms: C_4  and  C_6
REMARK    5  A    between atoms: C_6  and  C_7
REMARK    6  A    between atoms: C_6  and  N_14
REMARK    7  A    between atoms: C_7  and  C_8
REMARK    8  A    between atoms: C_8  and  C_9
REMARK    9  A    between atoms: C_9  and  N_10
REMARK   10  A    between atoms: C_15  and  C_17
REMARK   11  A    between atoms: C_17  and  C_18
REMARK   12  A    between atoms: C_17  and  C_24
REMARK                            x       y       z     vdW  Elec       q    Type
REMARK                         _______ _______ _______ _____ _____    ______ ____
ROOT
ATOM      1  C   UNL     1       1.251   9.244  20.063  0.00  0.00    +0.000 C 
ENDROOT
BRANCH   1   3
ATOM      2  N   UNL     1      -0.668  10.700  19.642  0.00  0.00    +0.000 N 
ATOM      3  C   UNL     1       0.646  10.452  19.312  0.00  0.00    +0.000 C 
ATOM      4  O   UNL     1       1.288  11.147  18.528  0.00  0.00    +0.000 OA
ATOM      5  H   UNL     1      -1.044  10.231  20.463  0.00  0.00    +0.000 HD
BRANCH   2   7
ATOM      6  C   UNL     1      -0.540  12.901  18.528  0.00  0.00    +0.000 C 
ATOM      7  C   UNL     1      -1.445  11.771  19.036  0.00  0.00    +0.000 C 
BRANCH   7   8
ATOM      8  C   UNL     1      -2.307  11.211  17.919  0.00  0.00    +0.000 A 
ATOM      9  C   UNL     1      -1.778  10.274  17.019  0.00  0.00    +0.000 A 
ATOM     10  C   UNL     1      -2.551   9.789  15.961  0.00  0.00    +0.000 A 
ATOM     11  C   UNL     1      -3.861  10.234  15.790  0.00  0.00    +0.000 A 
ATOM     12  C   UNL     1      -4.401  11.161  16.678  0.00  0.00    +0.000 A 
ATOM     13  C   UNL     1      -3.632  11.643  17.736  0.00  0.00    +0.000 A 
ENDBRANCH   7   8
ENDBRANCH   2   7
ENDBRANCH   1   3
BRANCH   1  14
ATOM     14  N   UNL     1       1.688   8.219  19.115  0.00  0.00    +0.000 N 
ATOM     15  C   UNL     1       2.353   7.081  19.532  0.00  0.00    +0.000 C 
ATOM     16  O   UNL     1       2.628   6.909  20.724  0.00  0.00    +0.000 OA
ATOM     17  H   UNL     1       1.581   8.408  18.130  0.00  0.00    +0.000 HD
BRANCH  15  18
ATOM     18  C   UNL     1       2.695   6.063  18.408  0.00  0.00    +0.000 C 
BRANCH  18  19
ATOM     19  C   UNL     1       4.207   6.068  18.187  0.00  0.00    +0.000 A 
ATOM     20  C   UNL     1       5.083   5.381  19.042  0.00  0.00    +0.000 A 
ATOM     21  C   UNL     1       6.467   5.528  18.909  0.00  0.00    +0.000 A 
ATOM     22  C   UNL     1       6.993   6.372  17.933  0.00  0.00    +0.000 A 
ATOM     23  C   UNL     1       6.139   7.048  17.067  0.00  0.00    +0.000 A 
ATOM     24  C   UNL     1       4.755   6.894  17.188  0.00  0.00    +0.000 A 
ENDBRANCH  18  19
BRANCH  18  25
ATOM     25  C   UNL     1       2.024   4.688  18.577  0.00  0.00    +0.000 A 
ATOM     26  C   UNL     1       2.243   3.628  17.678  0.00  0.00    +0.000 A 
ATOM     27  C   UNL     1       1.771   2.339  17.943  0.00  0.00    +0.000 A 
ATOM     28  C   UNL     1       1.051   2.079  19.105  0.00  0.00    +0.000 A 
ATOM     29  C   UNL     1       0.778   3.118  19.987  0.00  0.00    +0.000 A 
ATOM     30  C   UNL     1       1.256   4.408  19.728  0.00  0.00    +0.000 A 
ENDBRANCH  18  25
ENDBRANCH  15  18
ENDBRANCH   1  14
BRANCH   1  31
ATOM     31  C   UNL     1       0.230   8.671  21.056  0.00  0.00    +0.000 C 
BRANCH  31  32
ATOM     32  C   UNL     1       0.478   9.090  22.512  0.00  0.00    +0.000 C 
BRANCH  32  33
ATOM     33  C   UNL     1      -0.654   9.939  23.083  0.00  0.00    +0.000 C 
BRANCH  33  34
ATOM     34  N   UNL     1      -0.345  11.349  22.849  0.00  0.00    +0.000 NA
ATOM     35  C   UNL     1      -1.316  12.181  22.923  0.00  0.00    +0.000 C 
ATOM     36  N   UNL     1      -2.614  11.955  23.215  0.00  0.00    +0.000 N 
ATOM     37  N   UNL     1      -1.083  13.478  22.640  0.00  0.00    +0.000 N 
ATOM     38  H   UNL     1      -2.846  11.062  23.627  0.00  0.00    +0.000 HD
ATOM     39  H   UNL     1      -3.154  12.725  23.580  0.00  0.00    +0.000 HD
ATOM     40  H   UNL     1      -0.087  13.644  22.538  0.00  0.00    +0.000 HD
ATOM     41  H   UNL     1      -1.514  14.153  23.252  0.00  0.00    +0.000 HD
ENDBRANCH  33  34
ENDBRANCH  32  33
ENDBRANCH  31  32
ENDBRANCH   1  31
TORSDOF 11
ENDMDL
MODEL 4
REMARK VINA RESULT:      -8.2      0.682      1.280
REMARK  Name = 
REMARK  12 active torsions:
REMARK  status: ('A' for Active; 'I' for Inactive)
REMARK    1  A    between atoms: C_1  and  C_2
REMARK    2  A    between atoms: C_2  and  N_3
REMARK    3  A    between atoms: C_2  and  C_30
REMARK    4  A    between atoms: C_4  and  C_6
REMARK    5  A    between atoms: C_6  and  C_7
REMARK    6  A    between atoms: C_6  and  N_14
REMARK    7  A    between atoms: C_7  and  C_8
REMARK    8  A    between atoms: C_8  and  C_9
REMARK    9  A    between atoms: C_9  and  N_10
REMARK   10  A    between atoms: C_15  and  C_17
REMARK   11  A    between atoms: C_17  and  C_18
REMARK   12  A    between atoms: C_17  and  C_24
REMARK                            x       y       z     vdW  Elec       q    Type
REMARK                         _______ _______ _______ _____ _____    ______ ____
ROOT
ATOM      1  C   UNL     1       1.741   8.422  19.930  0.00  0.00    +0.000 C 
ENDROOT
BRANCH   1   3
ATOM      2  N   UNL     1       0.707  10.591  19.476  0.00  0.00    +0.000 N 
ATOM      3  C   UNL     1       1.011   9.358  18.941  0.00  0.00    +0.000 C 
ATOM      4  O   UNL     1       0.762   9.048  17.779  0.00  0.00    +0.000 OA
ATOM      5  H   UNL     1       1.155  10.846  20.355  0.00  0.00    +0.000 HD
BRANCH   2   7
ATOM      6  C   UNL     1      -1.514  11.558  18.994  0.00  0.00    +0.000 C 
ATOM      7  C   UNL     1      -0.004  11.621  18.733  0.00  0.00    +0.000 C 
BRANCH   7   8
ATOM      8  C   UNL     1       0.560  12.986  19.083  0.00  0.00    +0.000 A 
ATOM      9  C   UNL     1      -0.093  14.152  18.656  0.00  0.00    +0.000 A 
ATOM     10  C   UNL     1       0.445  15.411  18.935  0.00  0.00    +0.000 A 
ATOM     11  C   UNL     1       1.640  15.520  19.644  0.00  0.00    +0.000 A 
ATOM     12  C   UNL     1       2.298  14.372  20.077  0.00  0.00    +0.000 A 
ATOM     13  C   UNL     1       1.761  13.115  19.803  0.00  0.00    +0.000 A 
ENDBRANCH   7   8
ENDBRANCH   2   7
ENDBRANCH   1   3
BRANCH   1  14
ATOM     14  N   UNL     1       2.028   7.134  19.298  0.00  0.00    +0.000 N 
ATOM     15  C   UNL     1       3.053   6.987  18.382  0.00  0.00    +0.000 C 
ATOM     16  O   UNL     1       3.742   7.954  18.043  0.00  0.00    +0.000 OA
ATOM     17  H   UNL     1       1.393   6.369  19.472  0.00  0.00    +0.000 HD
BRANCH  15  18
ATOM     18  C   UNL     1       3.264   5.542  17.848  0.00  0.00    +0.000 C 
BRANCH  18  19
ATOM     19  C   UNL     1       4.747   5.352  17.529  0.00  0.00    +0.000 A 
ATOM     20  C   UNL     1       5.183   4.917  16.268  0.00  0.00    +0.000 A 
ATOM     21  C   UNL     1       6.528   4.604  16.050  0.00  0.00    +0.000 A 
ATOM     22  C   UNL     1       7.451   4.706  17.090  0.00  0.00    +0.000 A 
ATOM     23  C   UNL     1       7.038   5.151  18.342  0.00  0.00    +0.000 A 
ATOM     24  C   UNL     1       5.696   5.478  18.561  0.00  0.00    +0.000 A 
ENDBRANCH  18  19
BRANCH  18  25
ATOM     25  C   UNL     1       2.593   4.450  18.700  0.00  0.00    +0.000 A 
ATOM     26  C   UNL     1       2.880   4.278  20.066  0.00  0.00    +0.000 A 
ATOM     27  C   UNL     1       2.134   3.404  20.862  0.00  0.00    +0.000 A 
ATOM     28  C   UNL     1       1.092   2.666  20.311  0.00  0.00    +0.000 A 
ATOM     29  C   UNL     1       0.817   2.780  18.953  0.00  0.00    +0.000 A 
ATOM     30  C   UNL     1       1.558   3.660  18.154  0.00  0.00    +0.000 A 
ENDBRANCH  18  25
ENDBRANCH  15  18
ENDBRANCH   1  14
BRANCH   1  31
ATOM     31  C   UNL     1       0.901   8.232  21.201  0.00  0.00    +0.000 C 
BRANCH  31  32
ATOM     32  C   UNL     1       1.214   9.247  22.309  0.00  0.00    +0.000 C 
BRANCH  32  33
ATOM     33  C   UNL     1      -0.040   9.914  22.868  0.00  0.00    +0.000 C 
BRANCH  33  34
ATOM     34  N   UNL     1      -0.047  11.316  22.453  0.00  0.00    +0.000 NA
ATOM     35  C   UNL     1      -1.107  11.993  22.697  0.00  0.00    +0.000 C 
ATOM     36  N   UNL     1      -2.242  11.609  23.318  0.00  0.00    +0.000 N 
ATOM     37  N   UNL     1      -1.180  13.267  22.262  0.00  0.00    +0.000 N 
ATOM     38  H   UNL     1      -2.212  10.747  23.844  0.00  0.00    +0.000 HD
ATOM     39  H   UNL     1      -2.812  12.325  23.742  0.00  0.00    +0.000 HD
ATOM     40  H   UNL     1      -0.279  13.570  21.904  0.00  0.00    +0.000 HD
ATOM     41  H   UNL     1      -1.571  13.937  22.905  0.00  0.00    +0.000 HD
ENDBRANCH  33  34
ENDBRANCH  32  33
ENDBRANCH  31  32
ENDBRANCH   1  31
TORSDOF 11
ENDMDL
MODEL 5
REMARK VINA RESULT:      -8.1      2.138      2.954
REMARK  Name = 
REMARK  12 active torsions:
REMARK  status: ('A' for Active; 'I' for Inactive)
REMARK    1  A    between atoms: C_1  and  C_2
REMARK    2  A    between atoms: C_2  and  N_3
REMARK    3  A    between atoms: C_2  and  C_30
REMARK    4  A    between atoms: C_4  and  C_6
REMARK    5  A    between atoms: C_6  and  C_7
REMARK    6  A    between atoms: C_6  and  N_14
REMARK    7  A    between atoms: C_7  and  C_8
REMARK    8  A    between atoms: C_8  and  C_9
REMARK    9  A    between atoms: C_9  and  N_10
REMARK   10  A    between atoms: C_15  and  C_17
REMARK   11  A    between atoms: C_17  and  C_18
REMARK   12  A    between atoms: C_17  and  C_24
REMARK                            x       y       z     vdW  Elec       q    Type
REMARK                         _______ _______ _______ _____ _____    ______ ____
ROOT
ATOM      1  C   UNL     1       1.103   9.512  19.772  0.00  0.00    +0.000 C 
ENDROOT
BRANCH   1   3
ATOM      2  N   UNL     1      -0.891  10.166  18.518  0.00  0.00    +0.000 N 
ATOM      3  C   UNL     1       0.384  10.545  18.876  0.00  0.00    +0.000 C 
ATOM      4  O   UNL     1       0.885  11.618  18.549  0.00  0.00    +0.000 OA
ATOM      5  H   UNL     1      -1.309   9.386  19.021  0.00  0.00    +0.000 HD
BRANCH   2   7
ATOM      6  C   UNL     1      -2.240  10.168  16.449  0.00  0.00    +0.000 C 
ATOM      7  C   UNL     1      -1.742  10.973  17.656  0.00  0.00    +0.000 C 
BRANCH   7   8
ATOM      8  C   UNL     1      -2.901  11.535  18.460  0.00  0.00    +0.000 A 
ATOM      9  C   UNL     1      -2.660  12.254  19.640  0.00  0.00    +0.000 A 
ATOM     10  C   UNL     1      -3.723  12.734  20.409  0.00  0.00    +0.000 A 
ATOM     11  C   UNL     1      -5.038  12.501  20.008  0.00  0.00    +0.000 A 
ATOM     12  C   UNL     1      -5.292  11.792  18.838  0.00  0.00    +0.000 A 
ATOM     13  C   UNL     1      -4.233  11.316  18.067  0.00  0.00    +0.000 A 
ENDBRANCH   7   8
ENDBRANCH   2   7
ENDBRANCH   1   3
BRANCH   1  14
ATOM     14  N   UNL     1       1.592   8.391  18.969  0.00  0.00    +0.000 N 
ATOM     15  C   UNL     1       2.217   7.302  19.547  0.00  0.00    +0.000 C 
ATOM     16  O   UNL     1       2.411   7.256  20.766  0.00  0.00    +0.000 OA
ATOM     17  H   UNL     1       1.553   8.475  17.964  0.00  0.00    +0.000 HD
BRANCH  15  18
ATOM     18  C   UNL     1       2.623   6.169  18.562  0.00  0.00    +0.000 C 
BRANCH  18  19
ATOM     19  C   UNL     1       4.128   6.255  18.313  0.00  0.00    +0.000 A 
ATOM     20  C   UNL     1       4.657   6.917  17.195  0.00  0.00    +0.000 A 
ATOM     21  C   UNL     1       6.025   6.849  16.909  0.00  0.00    +0.000 A 
ATOM     22  C   UNL     1       6.877   6.108  17.726  0.00  0.00    +0.000 A 
ATOM     23  C   UNL     1       6.371   5.458  18.847  0.00  0.00    +0.000 A 
ATOM     24  C   UNL     1       5.007   5.535  19.144  0.00  0.00    +0.000 A 
ENDBRANCH  18  19
BRANCH  18  25
ATOM     25  C   UNL     1       2.058   4.784  18.925  0.00  0.00    +0.000 A 
ATOM     26  C   UNL     1       1.440   4.524  20.161  0.00  0.00    +0.000 A 
ATOM     27  C   UNL     1       0.776   3.317  20.403  0.00  0.00    +0.000 A 
ATOM     28  C   UNL     1       0.727   2.332  19.422  0.00  0.00    +0.000 A 
ATOM     29  C   UNL     1       1.371   2.543  18.208  0.00  0.00    +0.000 A 
ATOM     30  C   UNL     1       2.031   3.754  17.961  0.00  0.00    +0.000 A 
ENDBRANCH  18  25
ENDBRANCH  15  18
ENDBRANCH   1  14
BRANCH   1  31
ATOM     31  C   UNL     1       0.161   9.021  20.880  0.00  0.00    +0.000 C 
BRANCH  31  32
ATOM     32  C   UNL     1       0.335   9.758  22.215  0.00  0.00    +0.000 C 
BRANCH  32  33
ATOM     33  C   UNL     1      -0.832  10.689  22.531  0.00  0.00    +0.000 C 
BRANCH  33  34
ATOM     34  N   UNL     1      -0.337  12.065  22.559  0.00  0.00    +0.000 NA
ATOM     35  C   UNL     1      -1.120  12.959  23.036  0.00  0.00    +0.000 C 
ATOM     36  N   UNL     1      -2.359  12.821  23.554  0.00  0.00    +0.000 N 
ATOM     37  N   UNL     1      -0.729  14.248  23.009  0.00  0.00    +0.000 N 
ATOM     38  H   UNL     1      -2.658  11.886  23.794  0.00  0.00    +0.000 HD
ATOM     39  H   UNL     1      -2.682  13.529  24.196  0.00  0.00    +0.000 HD
ATOM     40  H   UNL     1       0.244  14.316  22.726  0.00  0.00    +0.000 HD
ATOM     41  H   UNL     1      -0.914  14.789  23.839  0.00  0.00    +0.000 HD
ENDBRANCH  33  34
ENDBRANCH  32  33
ENDBRANCH  31  32
ENDBRANCH   1  31
TORSDOF 11
ENDMDL
MODEL 6
REMARK VINA RESULT:      -8.1      2.808      6.428
REMARK  Name = 
REMARK  12 active torsions:
REMARK  status: ('A' for Active; 'I' for Inactive)
REMARK    1  A    between atoms: C_1  and  C_2
REMARK    2  A    between atoms: C_2  and  N_3
REMARK    3  A    between atoms: C_2  and  C_30
REMARK    4  A    between atoms: C_4  and  C_6
REMARK    5  A    between atoms: C_6  and  C_7
REMARK    6  A    between atoms: C_6  and  N_14
REMARK    7  A    between atoms: C_7  and  C_8
REMARK    8  A    between atoms: C_8  and  C_9
REMARK    9  A    between atoms: C_9  and  N_10
REMARK   10  A    between atoms: C_15  and  C_17
REMARK   11  A    between atoms: C_17  and  C_18
REMARK   12  A    between atoms: C_17  and  C_24
REMARK                            x       y       z     vdW  Elec       q    Type
REMARK                         _______ _______ _______ _____ _____    ______ ____
ROOT
ATOM      1  C   UNL     1       2.893   6.626  18.589  0.00  0.00    +0.000 C 
ENDROOT
BRANCH   1   3
ATOM      2  N   UNL     1       1.504   8.485  19.357  0.00  0.00    +0.000 N 
ATOM      3  C   UNL     1       2.263   8.010  18.311  0.00  0.00    +0.000 C 
ATOM      4  O   UNL     1       2.453   8.640  17.274  0.00  0.00    +0.000 OA
ATOM      5  H   UNL     1       1.593   8.015  20.256  0.00  0.00    +0.000 HD
BRANCH   2   7
ATOM      6  C   UNL     1      -0.242   9.771  18.173  0.00  0.00    +0.000 C 
ATOM      7  C   UNL     1       0.794   9.756  19.304  0.00  0.00    +0.000 C 
BRANCH   7   8
ATOM      8  C   UNL     1       0.148  10.038  20.648  0.00  0.00    +0.000 A 
ATOM      9  C   UNL     1      -0.432  11.289  20.906  0.00  0.00    +0.000 A 
ATOM     10  C   UNL     1      -0.987  11.572  22.156  0.00  0.00    +0.000 A 
ATOM     11  C   UNL     1      -0.969  10.608  23.164  0.00  0.00    +0.000 A 
ATOM     12  C   UNL     1      -0.400   9.360  22.922  0.00  0.00    +0.000 A 
ATOM     13  C   UNL     1       0.151   9.075  21.673  0.00  0.00    +0.000 A 
ENDBRANCH   7   8
ENDBRANCH   2   7
ENDBRANCH   1   3
BRANCH   1  14
ATOM     14  N   UNL     1       4.238   6.552  18.016  0.00  0.00    +0.000 N 
ATOM     15  C   UNL     1       5.217   5.744  18.563  0.00  0.00    +0.000 C 
ATOM     16  O   UNL     1       4.994   5.079  19.579  0.00  0.00    +0.000 OA
ATOM     17  H   UNL     1       4.468   7.185  17.264  0.00  0.00    +0.000 HD
BRANCH  15  18
ATOM     18  C   UNL     1       6.572   5.734  17.800  0.00  0.00    +0.000 C 
BRANCH  18  19
ATOM     19  C   UNL     1       6.333   5.197  16.389  0.00  0.00    +0.000 A 
ATOM     20  C   UNL     1       5.199   4.436  16.068  0.00  0.00    +0.000 A 
ATOM     21  C   UNL     1       5.082   3.829  14.814  0.00  0.00    +0.000 A 
ATOM     22  C   UNL     1       6.100   3.961  13.872  0.00  0.00    +0.000 A 
ATOM     23  C   UNL     1       7.224   4.725  14.168  0.00  0.00    +0.000 A 
ATOM     24  C   UNL     1       7.339   5.345  15.416  0.00  0.00    +0.000 A 
ENDBRANCH  18  19
BRANCH  18  25
ATOM     25  C   UNL     1       7.372   7.043  17.918  0.00  0.00    +0.000 A 
ATOM     26  C   UNL     1       7.075   8.179  17.145  0.00  0.00    +0.000 A 
ATOM     27  C   UNL     1       7.693   9.409  17.391  0.00  0.00    +0.000 A 
ATOM     28  C   UNL     1       8.638   9.532  18.404  0.00  0.00    +0.000 A 
ATOM     29  C   UNL     1       8.987   8.413  19.152  0.00  0.00    +0.000 A 
ATOM     30  C   UNL     1       8.364   7.181  18.912  0.00  0.00    +0.000 A 
ENDBRANCH  18  25
ENDBRANCH  15  18
ENDBRANCH   1  14
BRANCH   1  31
ATOM     31  C   UNL     1       1.998   5.512  18.029  0.00  0.00    +0.000 C 
BRANCH  31  32
ATOM     32  C   UNL     1       1.417   4.584  19.104  0.00  0.00    +0.000 C 
BRANCH  32  33
ATOM     33  C   UNL     1       1.798   3.121  18.890  0.00  0.00    +0.000 C 
BRANCH  33  34
ATOM     34  N   UNL     1       2.956   2.813  19.728  0.00  0.00    +0.000 NA
ATOM     35  C   UNL     1       3.891   2.116  19.200  0.00  0.00    +0.000 C 
ATOM     36  N   UNL     1       3.989   1.628  17.945  0.00  0.00    +0.000 N 
ATOM     37  N   UNL     1       4.940   1.749  19.964  0.00  0.00    +0.000 N 
ATOM     38  H   UNL     1       3.359   2.006  17.252  0.00  0.00    +0.000 HD
ATOM     39  H   UNL     1       4.911   1.424  17.590  0.00  0.00    +0.000 HD
ATOM     40  H   UNL     1       4.904   2.220  20.862  0.00  0.00    +0.000 HD
ATOM     41  H   UNL     1       5.851   1.823  19.539  0.00  0.00    +0.000 HD
ENDBRANCH  33  34
ENDBRANCH  32  33
ENDBRANCH  31  32
ENDBRANCH   1  31
TORSDOF 11
ENDMDL
MODEL 7
REMARK VINA RESULT:      -8.1      1.930      2.729
REMARK  Name = 
REMARK  12 active torsions:
REMARK  status: ('A' for Active; 'I' for Inactive)
REMARK    1  A    between atoms: C_1  and  C_2
REMARK    2  A    between atoms: C_2  and  N_3
REMARK    3  A    between atoms: C_2  and  C_30
REMARK    4  A    between atoms: C_4  and  C_6
REMARK    5  A    between atoms: C_6  and  C_7
REMARK    6  A    between atoms: C_6  and  N_14
REMARK    7  A    between atoms: C_7  and  C_8
REMARK    8  A    between atoms: C_8  and  C_9
REMARK    9  A    between atoms: C_9  and  N_10
REMARK   10  A    between atoms: C_15  and  C_17
REMARK   11  A    between atoms: C_17  and  C_18
REMARK   12  A    between atoms: C_17  and  C_24
REMARK                            x       y       z     vdW  Elec       q    Type
REMARK                         _______ _______ _______ _____ _____    ______ ____
ROOT
ATOM      1  C   UNL     1       1.453   8.812  19.547  0.00  0.00    +0.000 C 
ENDROOT
BRANCH   1   3
ATOM      2  N   UNL     1      -0.553   9.871  18.634  0.00  0.00    +0.000 N 
ATOM      3  C   UNL     1       0.794   9.659  18.435  0.00  0.00    +0.000 C 
ATOM      4  O   UNL     1       1.418  10.129  17.488  0.00  0.00    +0.000 OA
ATOM      5  H   UNL     1      -0.934   9.651  19.552  0.00  0.00    +0.000 HD
BRANCH   2   7
ATOM      6  C   UNL     1      -1.926   9.712  16.587  0.00  0.00    +0.000 C 
ATOM      7  C   UNL     1      -1.381  10.618  17.698  0.00  0.00    +0.000 C 
BRANCH   7   8
ATOM      8  C   UNL     1      -2.506  11.308  18.448  0.00  0.00    +0.000 A 
ATOM      9  C   UNL     1      -3.842  11.086  18.082  0.00  0.00    +0.000 A 
ATOM     10  C   UNL     1      -4.879  11.753  18.738  0.00  0.00    +0.000 A 
ATOM     11  C   UNL     1      -4.594  12.651  19.766  0.00  0.00    +0.000 A 
ATOM     12  C   UNL     1      -3.274  12.879  20.143  0.00  0.00    +0.000 A 
ATOM     13  C   UNL     1      -2.237  12.211  19.492  0.00  0.00    +0.000 A 
ENDBRANCH   7   8
ENDBRANCH   2   7
ENDBRANCH   1   3
BRANCH   1  14
ATOM     14  N   UNL     1       1.737   7.461  19.061  0.00  0.00    +0.000 N 
ATOM     15  C   UNL     1       2.872   7.179  18.323  0.00  0.00    +0.000 C 
ATOM     16  O   UNL     1       3.670   8.073  18.022  0.00  0.00    +0.000 OA
ATOM     17  H   UNL     1       1.032   6.752  19.193  0.00  0.00    +0.000 HD
BRANCH  15  18
ATOM     18  C   UNL     1       3.057   5.685  17.934  0.00  0.00    +0.000 C 
BRANCH  18  19
ATOM     19  C   UNL     1       4.514   5.462  17.531  0.00  0.00    +0.000 A 
ATOM     20  C   UNL     1       4.891   5.271  16.193  0.00  0.00    +0.000 A 
ATOM     21  C   UNL     1       6.205   4.917  15.869  0.00  0.00    +0.000 A 
ATOM     22  C   UNL     1       7.152   4.734  16.874  0.00  0.00    +0.000 A 
ATOM     23  C   UNL     1       6.798   4.934  18.205  0.00  0.00    +0.000 A 
ATOM     24  C   UNL     1       5.490   5.302  18.533  0.00  0.00    +0.000 A 
ENDBRANCH  18  19
BRANCH  18  25
ATOM     25  C   UNL     1       2.457   4.692  18.945  0.00  0.00    +0.000 A 
ATOM     26  C   UNL     1       2.717   4.771  20.324  0.00  0.00    +0.000 A 
ATOM     27  C   UNL     1       2.025   3.976  21.243  0.00  0.00    +0.000 A 
ATOM     28  C   UNL     1       1.068   3.067  20.806  0.00  0.00    +0.000 A 
ATOM     29  C   UNL     1       0.825   2.932  19.444  0.00  0.00    +0.000 A 
ATOM     30  C   UNL     1       1.511   3.733  18.522  0.00  0.00    +0.000 A 
ENDBRANCH  18  25
ENDBRANCH  15  18
ENDBRANCH   1  14
BRANCH   1  31
ATOM     31  C   UNL     1       0.550   8.767  20.787  0.00  0.00    +0.000 C 
BRANCH  31  32
ATOM     32  C   UNL     1       1.036   9.655  21.941  0.00  0.00    +0.000 C 
BRANCH  32  33
ATOM     33  C   UNL     1       0.324  11.005  21.987  0.00  0.00    +0.000 C 
BRANCH  33  34
ATOM     34  N   UNL     1      -1.026  10.803  22.510  0.00  0.00    +0.000 NA
ATOM     35  C   UNL     1      -1.608  11.816  23.035  0.00  0.00    +0.000 C 
ATOM     36  N   UNL     1      -1.165  13.085  23.161  0.00  0.00    +0.000 N 
ATOM     37  N   UNL     1      -2.823  11.650  23.595  0.00  0.00    +0.000 N 
ATOM     38  H   UNL     1      -0.362  13.351  22.609  0.00  0.00    +0.000 HD
ATOM     39  H   UNL     1      -1.853  13.816  23.258  0.00  0.00    +0.000 HD
ATOM     40  H   UNL     1      -3.184  10.725  23.387  0.00  0.00    +0.000 HD
ATOM     41  H   UNL     1      -3.504  12.369  23.406  0.00  0.00    +0.000 HD
ENDBRANCH  33  34
ENDBRANCH  32  33
ENDBRANCH  31  32
ENDBRANCH   1  31
TORSDOF 11
ENDMDL
MODEL 8
REMARK VINA RESULT:      -8.0      1.910      2.644
REMARK  Name = 
REMARK  12 active torsions:
REMARK  status: ('A' for Active; 'I' for Inactive)
REMARK    1  A    between atoms: C_1  and  C_2
REMARK    2  A    between atoms: C_2  and  N_3
REMARK    3  A    between atoms: C_2  and  C_30
REMARK    4  A    between atoms: C_4  and  C_6
REMARK    5  A    between atoms: C_6  and  C_7
REMARK    6  A    between atoms: C_6  and  N_14
REMARK    7  A    between atoms: C_7  and  C_8
REMARK    8  A    between atoms: C_8  and  C_9
REMARK    9  A    between atoms: C_9  and  N_10
REMARK   10  A    between atoms: C_15  and  C_17
REMARK   11  A    between atoms: C_17  and  C_18
REMARK   12  A    between atoms: C_17  and  C_24
REMARK                            x       y       z     vdW  Elec       q    Type
REMARK                         _______ _______ _______ _____ _____    ______ ____
ROOT
ATOM      1  C   UNL     1       1.233   9.749  19.213  0.00  0.00    +0.000 C 
ENDROOT
BRANCH   1   3
ATOM      2  N   UNL     1       1.333  12.191  19.142  0.00  0.00    +0.000 N 
ATOM      3  C   UNL     1       1.727  11.033  18.508  0.00  0.00    +0.000 C 
ATOM      4  O   UNL     1       2.436  11.020  17.505  0.00  0.00    +0.000 OA
ATOM      5  H   UNL     1       0.957  12.108  20.084  0.00  0.00    +0.000 HD
BRANCH   2   7
ATOM      6  C   UNL     1       0.468  14.472  18.758  0.00  0.00    +0.000 C 
ATOM      7  C   UNL     1       1.662  13.517  18.639  0.00  0.00    +0.000 C 
BRANCH   7   8
ATOM      8  C   UNL     1       2.875  14.057  19.373  0.00  0.00    +0.000 A 
ATOM      9  C   UNL     1       3.907  14.691  18.664  0.00  0.00    +0.000 A 
ATOM     10  C   UNL     1       5.048  15.149  19.328  0.00  0.00    +0.000 A 
ATOM     11  C   UNL     1       5.172  14.980  20.706  0.00  0.00    +0.000 A 
ATOM     12  C   UNL     1       4.154  14.356  21.423  0.00  0.00    +0.000 A 
ATOM     13  C   UNL     1       3.014  13.901  20.764  0.00  0.00    +0.000 A 
ENDBRANCH   7   8
ENDBRANCH   2   7
ENDBRANCH   1   3
BRANCH   1  14
ATOM     14  N   UNL     1       1.740   8.561  18.525  0.00  0.00    +0.000 N 
ATOM     15  C   UNL     1       2.214   7.465  19.222  0.00  0.00    +0.000 C 
ATOM     16  O   UNL     1       2.254   7.468  20.456  0.00  0.00    +0.000 OA
ATOM     17  H   UNL     1       1.828   8.597  17.520  0.00  0.00    +0.000 HD
BRANCH  15  18
ATOM     18  C   UNL     1       2.659   6.262  18.343  0.00  0.00    +0.000 C 
BRANCH  18  19
ATOM     19  C   UNL     1       4.185   6.266  18.246  0.00  0.00    +0.000 A 
ATOM     20  C   UNL     1       4.858   6.899  17.190  0.00  0.00    +0.000 A 
ATOM     21  C   UNL     1       6.241   6.757  17.042  0.00  0.00    +0.000 A 
ATOM     22  C   UNL     1       6.966   5.971  17.935  0.00  0.00    +0.000 A 
ATOM     23  C   UNL     1       6.316   5.350  18.998  0.00  0.00    +0.000 A 
ATOM     24  C   UNL     1       4.935   5.500  19.157  0.00  0.00    +0.000 A 
ENDBRANCH  18  19
BRANCH  18  25
ATOM     25  C   UNL     1       1.992   4.926  18.717  0.00  0.00    +0.000 A 
ATOM     26  C   UNL     1       1.973   3.824  17.843  0.00  0.00    +0.000 A 
ATOM     27  C   UNL     1       1.523   2.569  18.265  0.00  0.00    +0.000 A 
ATOM     28  C   UNL     1       1.064   2.386  19.565  0.00  0.00    +0.000 A 
ATOM     29  C   UNL     1       1.025   3.470  20.435  0.00  0.00    +0.000 A 
ATOM     30  C   UNL     1       1.482   4.727  20.018  0.00  0.00    +0.000 A 
ENDBRANCH  18  25
ENDBRANCH  15  18
ENDBRANCH   1  14
BRANCH   1  31
ATOM     31  C   UNL     1      -0.300   9.733  19.275  0.00  0.00    +0.000 C 
BRANCH  31  32
ATOM     32  C   UNL     1      -0.978  10.111  17.951  0.00  0.00    +0.000 C 
BRANCH  32  33
ATOM     33  C   UNL     1      -2.077  11.155  18.128  0.00  0.00    +0.000 C 
BRANCH  33  34
ATOM     34  N   UNL     1      -1.854  11.859  19.390  0.00  0.00    +0.000 NA
ATOM     35  C   UNL     1      -2.832  12.534  19.865  0.00  0.00    +0.000 C 
ATOM     36  N   UNL     1      -4.084  12.682  19.380  0.00  0.00    +0.000 N 
ATOM     37  N   UNL     1      -2.641  13.256  20.987  0.00  0.00    +0.000 N 
ATOM     38  H   UNL     1      -4.380  12.036  18.662  0.00  0.00    +0.000 HD
ATOM     39  H   UNL     1      -4.813  12.931  20.030  0.00  0.00    +0.000 HD
ATOM     40  H   UNL     1      -1.737  13.040  21.396  0.00  0.00    +0.000 HD
ATOM     41  H   UNL     1      -3.379  13.222  21.672  0.00  0.00    +0.000 HD
ENDBRANCH  33  34
ENDBRANCH  32  33
ENDBRANCH  31  32
ENDBRANCH   1  31
TORSDOF 11
ENDMDL
MODEL 9
REMARK VINA RESULT:      -8.0      4.344      9.113
REMARK  Name = 
REMARK  12 active torsions:
REMARK  status: ('A' for Active; 'I' for Inactive)
REMARK    1  A    between atoms: C_1  and  C_2
REMARK    2  A    between atoms: C_2  and  N_3
REMARK    3  A    between atoms: C_2  and  C_30
REMARK    4  A    between atoms: C_4  and  C_6
REMARK    5  A    between atoms: C_6  and  C_7
REMARK    6  A    between atoms: C_6  and  N_14
REMARK    7  A    between atoms: C_7  and  C_8
REMARK    8  A    between atoms: C_8  and  C_9
REMARK    9  A    between atoms: C_9  and  N_10
REMARK   10  A    between atoms: C_15  and  C_17
REMARK   11  A    between atoms: C_17  and  C_18
REMARK   12  A    between atoms: C_17  and  C_24
REMARK                            x       y       z     vdW  Elec       q    Type
REMARK                         _______ _______ _______ _____ _____    ______ ____
ROOT
ATOM      1  C   UNL     1       5.916   5.531  17.208  0.00  0.00    +0.000 C 
ENDROOT
BRANCH   1   3
ATOM      2  N   UNL     1       6.787   5.082  14.968  0.00  0.00    +0.000 N 
ATOM      3  C   UNL     1       5.998   5.927  15.716  0.00  0.00    +0.000 C 
ATOM      4  O   UNL     1       5.386   6.879  15.238  0.00  0.00    +0.000 OA
ATOM      5  H   UNL     1       7.059   4.196  15.389  0.00  0.00    +0.000 HD
BRANCH   2   7
ATOM      6  C   UNL     1       8.519   5.492  13.255  0.00  0.00    +0.000 C 
ATOM      7  C   UNL     1       7.028   5.280  13.546  0.00  0.00    +0.000 C 
BRANCH   7   8
ATOM      8  C   UNL     1       6.477   4.102  12.764  0.00  0.00    +0.000 A 
ATOM      9  C   UNL     1       7.346   3.221  12.104  0.00  0.00    +0.000 A 
ATOM     10  C   UNL     1       6.844   2.162  11.344  0.00  0.00    +0.000 A 
ATOM     11  C   UNL     1       5.467   1.970  11.235  0.00  0.00    +0.000 A 
ATOM     12  C   UNL     1       4.592   2.834  11.888  0.00  0.00    +0.000 A 
ATOM     13  C   UNL     1       5.091   3.890  12.649  0.00  0.00    +0.000 A 
ENDBRANCH   7   8
ENDBRANCH   2   7
ENDBRANCH   1   3
BRANCH   1  14
ATOM     14  N   UNL     1       4.594   5.847  17.750  0.00  0.00    +0.000 N 
ATOM     15  C   UNL     1       3.519   4.994  17.582  0.00  0.00    +0.000 C 
ATOM     16  O   UNL     1       3.635   3.947  16.938  0.00  0.00    +0.000 OA
ATOM     17  H   UNL     1       4.457   6.755  18.167  0.00  0.00    +0.000 HD
BRANCH  15  18
ATOM     18  C   UNL     1       2.200   5.447  18.269  0.00  0.00    +0.000 C 
BRANCH  18  19
ATOM     19  C   UNL     1       1.910   4.505  19.438  0.00  0.00    +0.000 A 
ATOM     20  C   UNL     1       2.587   4.615  20.663  0.00  0.00    +0.000 A 
ATOM     21  C   UNL     1       2.414   3.649  21.659  0.00  0.00    +0.000 A 
ATOM     22  C   UNL     1       1.578   2.556  21.441  0.00  0.00    +0.000 A 
ATOM     23  C   UNL     1       0.887   2.441  20.239  0.00  0.00    +0.000 A 
ATOM     24  C   UNL     1       1.046   3.412  19.245  0.00  0.00    +0.000 A 
ENDBRANCH  18  19
BRANCH  18  25
ATOM     25  C   UNL     1       2.125   6.956  18.560  0.00  0.00    +0.000 A 
ATOM     26  C   UNL     1       2.231   7.924  17.546  0.00  0.00    +0.000 A 
ATOM     27  C   UNL     1       1.983   9.277  17.801  0.00  0.00    +0.000 A 
ATOM     28  C   UNL     1       1.640   9.699  19.081  0.00  0.00    +0.000 A 
ATOM     29  C   UNL     1       1.576   8.771  20.114  0.00  0.00    +0.000 A 
ATOM     30  C   UNL     1       1.817   7.415  19.859  0.00  0.00    +0.000 A 
ENDBRANCH  18  25
ENDBRANCH  15  18
ENDBRANCH   1  14
BRANCH   1  31
ATOM     31  C   UNL     1       7.018   6.241  18.008  0.00  0.00    +0.000 C 
BRANCH  31  32
ATOM     32  C   UNL     1       7.777   7.308  17.206  0.00  0.00    +0.000 C 
BRANCH  32  33
ATOM     33  C   UNL     1       7.531   8.721  17.725  0.00  0.00    +0.000 C 
BRANCH  33  34
ATOM     34  N   UNL     1       8.635   9.093  18.609  0.00  0.00    +0.000 NA
ATOM     35  C   UNL     1       9.027  10.312  18.574  0.00  0.00    +0.000 C 
ATOM     36  N   UNL     1       8.548  11.343  17.846  0.00  0.00    +0.000 N 
ATOM     37  N   UNL     1      10.090  10.675  19.319  0.00  0.00    +0.000 N 
ATOM     38  H   UNL     1       7.644  11.222  17.412  0.00  0.00    +0.000 HD
ATOM     39  H   UNL     1       8.714  12.277  18.188  0.00  0.00    +0.000 HD
ATOM     40  H   UNL     1      10.359   9.919  19.942  0.00  0.00    +0.000 HD
ATOM     41  H   UNL     1      10.016  11.553  19.807  0.00  0.00    +0.000 HD
ENDBRANCH  33  34
ENDBRANCH  32  33
ENDBRANCH  31  32
ENDBRANCH   1  31
TORSDOF 11
ENDMDL
