MODEL 1
REMARK VINA RESULT:      -8.2      0.000      0.000
REMARK  Name = 
REMARK  5 active torsions:
REMARK  status: ('A' for Active; 'I' for Inactive)
REMARK    1  A    between atoms: C_3  and  O_4
REMARK    2  A    between atoms: C_5  and  C_6
REMARK    3  A    between atoms: C_6  and  C_7
REMARK    4  A    between atoms: C_6  and  C_20
REMARK    5  A    between atoms: C_8  and  O_9
REMARK                            x       y       z     vdW  Elec       q    Type
REMARK                         _______ _______ _______ _____ _____    ______ ____
ROOT
ATOM      1  C   UNL     1       0.331  10.935  18.473  0.00  0.00    +0.000 C 
ENDROOT
BRANCH   1   5
ATOM      2  O   UNL     1       3.644  14.509  18.446  0.00  0.00    +0.000 OA
ATOM      3  C   UNL     1       2.674  14.031  19.027  0.00  0.00    +0.000 C 
ATOM      4  C   UNL     1       2.015  12.824  18.461  0.00  0.00    +0.000 C 
ATOM      5  C   UNL     1       0.996  12.189  19.068  0.00  0.00    +0.000 C 
ATOM      6  C   UNL     1       0.502  12.729  20.365  0.00  0.00    +0.000 C 
ATOM      7  O   UNL     1      -0.332  12.118  21.024  0.00  0.00    +0.000 OA
ATOM      8  C   UNL     1       1.054  13.992  20.890  0.00  0.00    +0.000 A 
ATOM      9  C   UNL     1       0.513  14.557  22.052  0.00  0.00    +0.000 A 
ATOM     10  C   UNL     1       1.037  15.747  22.563  0.00  0.00    +0.000 A 
ATOM     11  C   UNL     1       2.109  16.368  21.923  0.00  0.00    +0.000 A 
ATOM     12  C   UNL     1       2.655  15.803  20.768  0.00  0.00    +0.000 A 
ATOM     13  C   UNL     1       2.119  14.617  20.252  0.00  0.00    +0.000 A 
BRANCH   4  14
ATOM     14  O   UNL     1       2.536  12.366  17.262  0.00  0.00    +0.000 OA
ATOM     15  H   UNL     1       1.807  12.445  16.608  0.00  0.00    +0.000 HD
ENDBRANCH   4  14
ENDBRANCH   1   5
BRANCH   1  16
ATOM     16  C   UNL     1       0.926   9.637  19.045  0.00  0.00    +0.000 C 
ATOM     17  C   UNL     1       0.624   9.055  20.228  0.00  0.00    +0.000 C 
ATOM     18  C   UNL     1       1.252   7.767  20.663  0.00  0.00    +0.000 C 
ATOM     19  O   UNL     1       0.948   7.227  21.722  0.00  0.00    +0.000 OA
ATOM     20  C   UNL     1       2.243   7.140  19.788  0.00  0.00    +0.000 A 
ATOM     21  C   UNL     1       2.833   5.929  20.174  0.00  0.00    +0.000 A 
ATOM     22  C   UNL     1       3.791   5.327  19.361  0.00  0.00    +0.000 A 
ATOM     23  C   UNL     1       4.165   5.937  18.165  0.00  0.00    +0.000 A 
ATOM     24  C   UNL     1       3.565   7.137  17.775  0.00  0.00    +0.000 A 
ATOM     25  C   UNL     1       2.593   7.738  18.588  0.00  0.00    +0.000 A 
ATOM     26  C   UNL     1       1.935   8.980  18.148  0.00  0.00    +0.000 C 
ATOM     27  O   UNL     1       2.215   9.436  17.047  0.00  0.00    +0.000 OA
BRANCH  17  28
ATOM     28  O   UNL     1      -0.316   9.536  21.121  0.00  0.00    +0.000 OA
ATOM     29  H   UNL     1      -1.232   9.506  20.776  0.00  0.00    +0.000 HD
ENDBRANCH  17  28
ENDBRANCH   1  16
BRANCH   1  30
ATOM     30  C   UNL     1      -1.213  10.973  18.412  0.00  0.00    +0.000 A 
ATOM     31  C   UNL     1      -1.903   9.908  17.799  0.00  0.00    +0.000 A 
ATOM     32  C   UNL     1      -3.291   9.953  17.624  0.00  0.00    +0.000 A 
ATOM     33  C   UNL     1      -4.011  11.057  18.071  0.00  0.00    +0.000 A 
ATOM     34 CL   UNL     1      -5.705  11.153  17.791  0.00  0.00    +0.000 Cl
ATOM     35  C   UNL     1      -3.364  12.089  18.737  0.00  0.00    +0.000 A 
ATOM     36  C   UNL     1      -1.979  12.039  18.920  0.00  0.00    +0.000 A 
ENDBRANCH   1  30
TORSDOF 5
ENDMDL
MODEL 2
REMARK VINA RESULT:      -8.2      2.534      7.282
REMARK  Name = 
REMARK  5 active torsions:
REMARK  status: ('A' for Active; 'I' for Inactive)
REMARK    1  A    between atoms: C_3  and  O_4
REMARK    2  A    between atoms: C_5  and  C_6
REMARK    3  A    between atoms: C_6  and  C_7
REMARK    4  A    between atoms: C_6  and  C_20
REMARK    5  A    between atoms: C_8  and  O_9
REMARK                            x       y       z     vdW  Elec       q    Type
REMARK                         _______ _______ _______ _____ _____    ______ ____
ROOT
ATOM      1  C   UNL     1       0.172  12.044  19.010  0.00  0.00    +0.000 C 
ENDROOT
BRANCH   1   5
ATOM      2  O   UNL     1       0.887   8.541  22.322  0.00  0.00    +0.000 OA
ATOM      3  C   UNL     1       1.033   8.871  21.149  0.00  0.00    +0.000 C 
ATOM      4  C   UNL     1       0.520  10.193  20.701  0.00  0.00    +0.000 C 
ATOM      5  C   UNL     1       0.701  10.669  19.456  0.00  0.00    +0.000 C 
ATOM      6  C   UNL     1       1.444   9.825  18.479  0.00  0.00    +0.000 C 
ATOM      7  O   UNL     1       1.751  10.262  17.375  0.00  0.00    +0.000 OA
ATOM      8  C   UNL     1       1.858   8.461  18.858  0.00  0.00    +0.000 A 
ATOM      9  C   UNL     1       2.459   7.627  17.905  0.00  0.00    +0.000 A 
ATOM     10  C   UNL     1       2.865   6.338  18.258  0.00  0.00    +0.000 A 
ATOM     11  C   UNL     1       2.684   5.883  19.564  0.00  0.00    +0.000 A 
ATOM     12  C   UNL     1       2.093   6.715  20.518  0.00  0.00    +0.000 A 
ATOM     13  C   UNL     1       1.675   8.002  20.157  0.00  0.00    +0.000 A 
BRANCH   4  14
ATOM     14  O   UNL     1      -0.146  10.932  21.664  0.00  0.00    +0.000 OA
ATOM     15  H   UNL     1       0.147  11.862  21.536  0.00  0.00    +0.000 HD
ENDBRANCH   4  14
ENDBRANCH   1   5
BRANCH   1  16
ATOM     16  C   UNL     1      -1.316  12.232  19.352  0.00  0.00    +0.000 C 
ATOM     17  C   UNL     1      -1.831  12.882  20.419  0.00  0.00    +0.000 C 
ATOM     18  C   UNL     1      -3.306  13.025  20.627  0.00  0.00    +0.000 C 
ATOM     19  O   UNL     1      -3.766  13.646  21.581  0.00  0.00    +0.000 OA
ATOM     20  C   UNL     1      -4.213  12.415  19.655  0.00  0.00    +0.000 A 
ATOM     21  C   UNL     1      -5.598  12.547  19.828  0.00  0.00    +0.000 A 
ATOM     22  C   UNL     1      -6.476  11.957  18.921  0.00  0.00    +0.000 A 
ATOM     23  C   UNL     1      -5.972  11.230  17.844  0.00  0.00    +0.000 A 
ATOM     24  C   UNL     1      -4.592  11.112  17.666  0.00  0.00    +0.000 A 
ATOM     25  C   UNL     1      -3.707  11.714  18.572  0.00  0.00    +0.000 A 
ATOM     26  C   UNL     1      -2.254  11.619  18.352  0.00  0.00    +0.000 C 
ATOM     27  O   UNL     1      -1.847  11.058  17.343  0.00  0.00    +0.000 OA
BRANCH  17  28
ATOM     28  O   UNL     1      -1.077  13.524  21.385  0.00  0.00    +0.000 OA
ATOM     29  H   UNL     1      -1.572  14.215  21.871  0.00  0.00    +0.000 HD
ENDBRANCH  17  28
ENDBRANCH   1  16
BRANCH   1  30
ATOM     30  C   UNL     1       1.079  13.245  19.364  0.00  0.00    +0.000 A 
ATOM     31  C   UNL     1       0.859  14.483  18.727  0.00  0.00    +0.000 A 
ATOM     32  C   UNL     1       1.723  15.564  18.935  0.00  0.00    +0.000 A 
ATOM     33  C   UNL     1       2.811  15.429  19.792  0.00  0.00    +0.000 A 
ATOM     34 CL   UNL     1       3.918  16.729  19.992  0.00  0.00    +0.000 Cl
ATOM     35  C   UNL     1       3.011  14.242  20.482  0.00  0.00    +0.000 A 
ATOM     36  C   UNL     1       2.143  13.165  20.282  0.00  0.00    +0.000 A 
ENDBRANCH   1  30
TORSDOF 5
ENDMDL
MODEL 3
REMARK VINA RESULT:      -8.0      2.474      5.607
REMARK  Name = 
REMARK  5 active torsions:
REMARK  status: ('A' for Active; 'I' for Inactive)
REMARK    1  A    between atoms: C_3  and  O_4
REMARK    2  A    between atoms: C_5  and  C_6
REMARK    3  A    between atoms: C_6  and  C_7
REMARK    4  A    between atoms: C_6  and  C_20
REMARK    5  A    between atoms: C_8  and  O_9
REMARK                            x       y       z     vdW  Elec       q    Type
REMARK                         _______ _______ _______ _____ _____    ______ ____
ROOT
ATOM      1  C   UNL     1       0.493  11.830  20.353  0.00  0.00    +0.000 C 
ENDROOT
BRANCH   1   5
ATOM      2  O   UNL     1      -4.019  12.818  21.909  0.00  0.00    +0.000 OA
ATOM      3  C   UNL     1      -3.329  12.476  20.953  0.00  0.00    +0.000 C 
ATOM      4  C   UNL     1      -1.854  12.375  21.125  0.00  0.00    +0.000 C 
ATOM      5  C   UNL     1      -1.030  11.937  20.156  0.00  0.00    +0.000 C 
ATOM      6  C   UNL     1      -1.624  11.541  18.850  0.00  0.00    +0.000 C 
ATOM      7  O   UNL     1      -0.938  11.012  17.981  0.00  0.00    +0.000 OA
ATOM      8  C   UNL     1      -3.065  11.743  18.610  0.00  0.00    +0.000 A 
ATOM      9  C   UNL     1      -3.603  11.474  17.344  0.00  0.00    +0.000 A 
ATOM     10  C   UNL     1      -4.969  11.653  17.112  0.00  0.00    +0.000 A 
ATOM     11  C   UNL     1      -5.801  12.086  18.143  0.00  0.00    +0.000 A 
ATOM     12  C   UNL     1      -5.269  12.348  19.407  0.00  0.00    +0.000 A 
ATOM     13  C   UNL     1      -3.897  12.181  19.633  0.00  0.00    +0.000 A 
BRANCH   4  14
ATOM     14  O   UNL     1      -1.372  12.743  22.369  0.00  0.00    +0.000 OA
ATOM     15  H   UNL     1      -1.591  11.996  22.970  0.00  0.00    +0.000 HD
ENDBRANCH   4  14
ENDBRANCH   1   5
BRANCH   1  16
ATOM     16  C   UNL     1       1.062  10.521  19.779  0.00  0.00    +0.000 C 
ATOM     17  C   UNL     1       1.666  10.351  18.582  0.00  0.00    +0.000 C 
ATOM     18  C   UNL     1       2.209   9.026  18.146  0.00  0.00    +0.000 C 
ATOM     19  O   UNL     1       2.787   8.888  17.072  0.00  0.00    +0.000 OA
ATOM     20  C   UNL     1       2.051   7.877  19.038  0.00  0.00    +0.000 A 
ATOM     21  C   UNL     1       2.561   6.630  18.650  0.00  0.00    +0.000 A 
ATOM     22  C   UNL     1       2.404   5.522  19.479  0.00  0.00    +0.000 A 
ATOM     23  C   UNL     1       1.731   5.655  20.692  0.00  0.00    +0.000 A 
ATOM     24  C   UNL     1       1.236   6.902  21.083  0.00  0.00    +0.000 A 
ATOM     25  C   UNL     1       1.403   8.020  20.254  0.00  0.00    +0.000 A 
ATOM     26  C   UNL     1       0.915   9.338  20.693  0.00  0.00    +0.000 C 
ATOM     27  O   UNL     1       0.417   9.440  21.807  0.00  0.00    +0.000 OA
BRANCH  17  28
ATOM     28  O   UNL     1       1.900  11.366  17.672  0.00  0.00    +0.000 OA
ATOM     29  H   UNL     1       1.306  11.337  16.894  0.00  0.00    +0.000 HD
ENDBRANCH  17  28
ENDBRANCH   1  16
BRANCH   1  30
ATOM     30  C   UNL     1       1.296  13.102  19.996  0.00  0.00    +0.000 A 
ATOM     31  C   UNL     1       0.729  14.046  19.116  0.00  0.00    +0.000 A 
ATOM     32  C   UNL     1       1.462  15.156  18.681  0.00  0.00    +0.000 A 
ATOM     33  C   UNL     1       2.766  15.346  19.128  0.00  0.00    +0.000 A 
ATOM     34 CL   UNL     1       3.698  16.665  18.537  0.00  0.00    +0.000 Cl
ATOM     35  C   UNL     1       3.323  14.466  20.046  0.00  0.00    +0.000 A 
ATOM     36  C   UNL     1       2.588  13.363  20.489  0.00  0.00    +0.000 A 
ENDBRANCH   1  30
TORSDOF 5
ENDMDL
MODEL 4
REMARK VINA RESULT:      -8.0      2.671      5.274
REMARK  Name = 
REMARK  5 active torsions:
REMARK  status: ('A' for Active; 'I' for Inactive)
REMARK    1  A    between atoms: C_3  and  O_4
REMARK    2  A    between atoms: C_5  and  C_6
REMARK    3  A    between atoms: C_6  and  C_7
REMARK    4  A    between atoms: C_6  and  C_20
REMARK    5  A    between atoms: C_8  and  O_9
REMARK                            x       y       z     vdW  Elec       q    Type
REMARK                         _______ _______ _______ _____ _____    ______ ____
ROOT
ATOM      1  C   UNL     1       0.475  11.924  20.312  0.00  0.00    +0.000 C 
ENDROOT
BRANCH   1   5
ATOM      2  O   UNL     1      -3.509  11.678  17.516  0.00  0.00    +0.000 OA
ATOM      3  C   UNL     1      -3.075  11.887  18.645  0.00  0.00    +0.000 C 
ATOM      4  C   UNL     1      -1.613  11.764  18.891  0.00  0.00    +0.000 C 
ATOM      5  C   UNL     1      -1.041  12.047  20.076  0.00  0.00    +0.000 C 
ATOM      6  C   UNL     1      -1.917  12.498  21.192  0.00  0.00    +0.000 C 
ATOM      7  O   UNL     1      -1.436  12.895  22.248  0.00  0.00    +0.000 OA
ATOM      8  C   UNL     1      -3.381  12.514  21.013  0.00  0.00    +0.000 A 
ATOM      9  C   UNL     1      -4.210  12.833  22.097  0.00  0.00    +0.000 A 
ATOM     10  C   UNL     1      -5.597  12.861  21.933  0.00  0.00    +0.000 A 
ATOM     11  C   UNL     1      -6.158  12.585  20.687  0.00  0.00    +0.000 A 
ATOM     12  C   UNL     1      -5.333  12.275  19.603  0.00  0.00    +0.000 A 
ATOM     13  C   UNL     1      -3.944  12.234  19.774  0.00  0.00    +0.000 A 
BRANCH   4  14
ATOM     14  O   UNL     1      -0.857  11.356  17.806  0.00  0.00    +0.000 OA
ATOM     15  H   UNL     1      -0.066  11.941  17.798  0.00  0.00    +0.000 HD
ENDBRANCH   4  14
ENDBRANCH   1   5
BRANCH   1  16
ATOM     16  C   UNL     1       1.044  10.609  19.754  0.00  0.00    +0.000 C 
ATOM     17  C   UNL     1       1.650  10.425  18.559  0.00  0.00    +0.000 C 
ATOM     18  C   UNL     1       2.193   9.095  18.139  0.00  0.00    +0.000 C 
ATOM     19  O   UNL     1       2.772   8.944  17.067  0.00  0.00    +0.000 OA
ATOM     20  C   UNL     1       2.035   7.956  19.044  0.00  0.00    +0.000 A 
ATOM     21  C   UNL     1       2.547   6.705  18.672  0.00  0.00    +0.000 A 
ATOM     22  C   UNL     1       2.389   5.607  19.513  0.00  0.00    +0.000 A 
ATOM     23  C   UNL     1       1.716   5.754  20.725  0.00  0.00    +0.000 A 
ATOM     24  C   UNL     1       1.220   7.005  21.100  0.00  0.00    +0.000 A 
ATOM     25  C   UNL     1       1.386   8.113  20.258  0.00  0.00    +0.000 A 
ATOM     26  C   UNL     1       0.897   9.437  20.682  0.00  0.00    +0.000 C 
ATOM     27  O   UNL     1       0.399   9.551  21.794  0.00  0.00    +0.000 OA
BRANCH  17  28
ATOM     28  O   UNL     1       1.884  11.429  17.637  0.00  0.00    +0.000 OA
ATOM     29  H   UNL     1       2.538  11.183  16.952  0.00  0.00    +0.000 HD
ENDBRANCH  17  28
ENDBRANCH   1  16
BRANCH   1  30
ATOM     30  C   UNL     1       1.300  13.187  19.975  0.00  0.00    +0.000 A 
ATOM     31  C   UNL     1       0.727  14.183  19.160  0.00  0.00    +0.000 A 
ATOM     32  C   UNL     1       1.475  15.290  18.741  0.00  0.00    +0.000 A 
ATOM     33  C   UNL     1       2.801  15.424  19.142  0.00  0.00    +0.000 A 
ATOM     34 CL   UNL     1       3.747  16.740  18.569  0.00  0.00    +0.000 Cl
ATOM     35  C   UNL     1       3.368  14.491  19.999  0.00  0.00    +0.000 A 
ATOM     36  C   UNL     1       2.618  13.391  20.425  0.00  0.00    +0.000 A 
ENDBRANCH   1  30
TORSDOF 5
ENDMDL
MODEL 5
REMARK VINA RESULT:      -8.0      0.778      2.041
REMARK  Name = 
REMARK  5 active torsions:
REMARK  status: ('A' for Active; 'I' for Inactive)
REMARK    1  A    between atoms: C_3  and  O_4
REMARK    2  A    between atoms: C_5  and  C_6
REMARK    3  A    between atoms: C_6  and  C_7
REMARK    4  A    between atoms: C_6  and  C_20
REMARK    5  A    between atoms: C_8  and  O_9
REMARK                            x       y       z     vdW  Elec       q    Type
REMARK                         _______ _______ _______ _____ _____    ______ ____
ROOT
ATOM      1  C   UNL     1       0.378  11.036  18.751  0.00  0.00    +0.000 C 
ENDROOT
BRANCH   1   5
ATOM      2  O   UNL     1       0.367  14.014  22.609  0.00  0.00    +0.000 OA
ATOM      3  C   UNL     1       0.944  13.703  21.571  0.00  0.00    +0.000 C 
ATOM      4  C   UNL     1       0.418  12.569  20.764  0.00  0.00    +0.000 C 
ATOM      5  C   UNL     1       0.940  12.206  19.579  0.00  0.00    +0.000 C 
ATOM      6  C   UNL     1       2.104  12.974  19.056  0.00  0.00    +0.000 C 
ATOM      7  O   UNL     1       2.533  12.774  17.924  0.00  0.00    +0.000 OA
ATOM      8  C   UNL     1       2.721  14.024  19.888  0.00  0.00    +0.000 A 
ATOM      9  C   UNL     1       3.882  14.671  19.442  0.00  0.00    +0.000 A 
ATOM     10  C   UNL     1       4.467  15.674  20.219  0.00  0.00    +0.000 A 
ATOM     11  C   UNL     1       3.889  16.042  21.433  0.00  0.00    +0.000 A 
ATOM     12  C   UNL     1       2.727  15.405  21.875  0.00  0.00    +0.000 A 
ATOM     13  C   UNL     1       2.151  14.391  21.101  0.00  0.00    +0.000 A 
BRANCH   4  14
ATOM     14  O   UNL     1      -0.674  11.910  21.302  0.00  0.00    +0.000 OA
ATOM     15  H   UNL     1      -0.329  11.406  22.071  0.00  0.00    +0.000 HD
ENDBRANCH   4  14
ENDBRANCH   1   5
BRANCH   1  16
ATOM     16  C   UNL     1       0.991   9.687  19.163  0.00  0.00    +0.000 C 
ATOM     17  C   UNL     1       0.726   8.982  20.286  0.00  0.00    +0.000 C 
ATOM     18  C   UNL     1       1.367   7.658  20.563  0.00  0.00    +0.000 C 
ATOM     19  O   UNL     1       1.096   7.008  21.568  0.00  0.00    +0.000 OA
ATOM     20  C   UNL     1       2.330   7.130  19.596  0.00  0.00    +0.000 A 
ATOM     21  C   UNL     1       2.932   5.886  19.834  0.00  0.00    +0.000 A 
ATOM     22  C   UNL     1       3.864   5.377  18.932  0.00  0.00    +0.000 A 
ATOM     23  C   UNL     1       4.200   6.111  17.796  0.00  0.00    +0.000 A 
ATOM     24  C   UNL     1       3.588   7.344  17.554  0.00  0.00    +0.000 A 
ATOM     25  C   UNL     1       2.642   7.852  18.456  0.00  0.00    +0.000 A 
ATOM     26  C   UNL     1       1.971   9.132  18.171  0.00  0.00    +0.000 C 
ATOM     27  O   UNL     1       2.216   9.702  17.115  0.00  0.00    +0.000 OA
BRANCH  17  28
ATOM     28  O   UNL     1      -0.185   9.363  21.254  0.00  0.00    +0.000 OA
ATOM     29  H   UNL     1      -1.094   9.045  21.080  0.00  0.00    +0.000 HD
ENDBRANCH  17  28
ENDBRANCH   1  16
BRANCH   1  30
ATOM     30  C   UNL     1      -1.158  11.030  18.576  0.00  0.00    +0.000 A 
ATOM     31  C   UNL     1      -1.775   9.920  17.965  0.00  0.00    +0.000 A 
ATOM     32  C   UNL     1      -3.147   9.919  17.689  0.00  0.00    +0.000 A 
ATOM     33  C   UNL     1      -3.924  11.022  18.032  0.00  0.00    +0.000 A 
ATOM     34 CL   UNL     1      -5.595  11.059  17.626  0.00  0.00    +0.000 Cl
ATOM     35  C   UNL     1      -3.353  12.099  18.694  0.00  0.00    +0.000 A 
ATOM     36  C   UNL     1      -1.984  12.095  18.979  0.00  0.00    +0.000 A 
ENDBRANCH   1  30
TORSDOF 5
ENDMDL
MODEL 6
REMARK VINA RESULT:      -7.9      2.654      5.981
REMARK  Name = 
REMARK  5 active torsions:
REMARK  status: ('A' for Active; 'I' for Inactive)
REMARK    1  A    between atoms: C_3  and  O_4
REMARK    2  A    between atoms: C_5  and  C_6
REMARK    3  A    between atoms: C_6  and  C_7
REMARK    4  A    between atoms: C_6  and  C_20
REMARK    5  A    between atoms: C_8  and  O_9
REMARK                            x       y       z     vdW  Elec       q    Type
REMARK                         _______ _______ _______ _____ _____    ______ ____
ROOT
ATOM      1  C   UNL     1      -0.589  12.618  20.741  0.00  0.00    +0.000 C 
ENDROOT
BRANCH   1   5
ATOM      2  O   UNL     1      -5.101  12.543  22.583  0.00  0.00    +0.000 OA
ATOM      3  C   UNL     1      -4.421  12.459  21.565  0.00  0.00    +0.000 C 
ATOM      4  C   UNL     1      -2.945  12.614  21.666  0.00  0.00    +0.000 C 
ATOM      5  C   UNL     1      -2.116  12.464  20.617  0.00  0.00    +0.000 C 
ATOM      6  C   UNL     1      -2.709  12.133  19.292  0.00  0.00    +0.000 C 
ATOM      7  O   UNL     1      -1.994  11.855  18.335  0.00  0.00    +0.000 OA
ATOM      8  C   UNL     1      -4.175  12.091  19.136  0.00  0.00    +0.000 A 
ATOM      9  C   UNL     1      -4.733  11.889  17.867  0.00  0.00    +0.000 A 
ATOM     10  C   UNL     1      -6.120  11.838  17.711  0.00  0.00    +0.000 A 
ATOM     11  C   UNL     1      -6.952  11.975  18.822  0.00  0.00    +0.000 A 
ATOM     12  C   UNL     1      -6.398  12.169  20.089  0.00  0.00    +0.000 A 
ATOM     13  C   UNL     1      -5.007  12.233  20.240  0.00  0.00    +0.000 A 
BRANCH   4  14
ATOM     14  O   UNL     1      -2.461  12.905  22.930  0.00  0.00    +0.000 OA
ATOM     15  H   UNL     1      -1.557  13.266  22.792  0.00  0.00    +0.000 HD
ENDBRANCH   4  14
ENDBRANCH   1   5
BRANCH   1  16
ATOM     16  C   UNL     1       0.166  11.437  20.109  0.00  0.00    +0.000 C 
ATOM     17  C   UNL     1       0.745  11.400  18.888  0.00  0.00    +0.000 C 
ATOM     18  C   UNL     1       1.483  10.196  18.393  0.00  0.00    +0.000 C 
ATOM     19  O   UNL     1       2.035  10.182  17.297  0.00  0.00    +0.000 OA
ATOM     20  C   UNL     1       1.551   9.014  19.254  0.00  0.00    +0.000 A 
ATOM     21  C   UNL     1       2.247   7.880  18.812  0.00  0.00    +0.000 A 
ATOM     22  C   UNL     1       2.307   6.741  19.611  0.00  0.00    +0.000 A 
ATOM     23  C   UNL     1       1.668   6.731  20.849  0.00  0.00    +0.000 A 
ATOM     24  C   UNL     1       0.987   7.866  21.294  0.00  0.00    +0.000 A 
ATOM     25  C   UNL     1       0.935   9.017  20.495  0.00  0.00    +0.000 A 
ATOM     26  C   UNL     1       0.252  10.224  20.990  0.00  0.00    +0.000 C 
ATOM     27  O   UNL     1      -0.214  10.214  22.123  0.00  0.00    +0.000 OA
BRANCH  17  28
ATOM     28  O   UNL     1       0.773  12.462  18.001  0.00  0.00    +0.000 OA
ATOM     29  H   UNL     1       1.545  13.051  18.123  0.00  0.00    +0.000 HD
ENDBRANCH  17  28
ENDBRANCH   1  16
BRANCH   1  30
ATOM     30  C   UNL     1      -0.037  14.016  20.379  0.00  0.00    +0.000 A 
ATOM     31  C   UNL     1      -0.838  14.897  19.626  0.00  0.00    +0.000 A 
ATOM     32  C   UNL     1      -0.338  16.127  19.184  0.00  0.00    +0.000 A 
ATOM     33  C   UNL     1       0.965  16.500  19.499  0.00  0.00    +0.000 A 
ATOM     34 CL   UNL     1       1.611  17.975  18.894  0.00  0.00    +0.000 Cl
ATOM     35  C   UNL     1       1.752  15.680  20.295  0.00  0.00    +0.000 A 
ATOM     36  C   UNL     1       1.249  14.456  20.745  0.00  0.00    +0.000 A 
ENDBRANCH   1  30
TORSDOF 5
ENDMDL
MODEL 7
REMARK VINA RESULT:      -7.8      2.956      5.263
REMARK  Name = 
REMARK  5 active torsions:
REMARK  status: ('A' for Active; 'I' for Inactive)
REMARK    1  A    between atoms: C_3  and  O_4
REMARK    2  A    between atoms: C_5  and  C_6
REMARK    3  A    between atoms: C_6  and  C_7
REMARK    4  A    between atoms: C_6  and  C_20
REMARK    5  A    between atoms: C_8  and  O_9
REMARK                            x       y       z     vdW  Elec       q    Type
REMARK                         _______ _______ _______ _____ _____    ______ ____
ROOT
ATOM      1  C   UNL     1       0.737  12.274  20.800  0.00  0.00    +0.000 C 
ENDROOT
BRANCH   1   5
ATOM      2  O   UNL     1      -3.850  12.356  19.154  0.00  0.00    +0.000 OA
ATOM      3  C   UNL     1      -3.127  12.428  20.143  0.00  0.00    +0.000 C 
ATOM      4  C   UNL     1      -1.656  12.281  19.977  0.00  0.00    +0.000 C 
ATOM      5  C   UNL     1      -0.784  12.420  20.991  0.00  0.00    +0.000 C 
ATOM      6  C   UNL     1      -1.320  12.730  22.345  0.00  0.00    +0.000 C 
ATOM      7  O   UNL     1      -0.566  12.997  23.275  0.00  0.00    +0.000 OA
ATOM      8  C   UNL     1      -2.779  12.763  22.564  0.00  0.00    +0.000 A 
ATOM      9  C   UNL     1      -3.282  12.945  23.859  0.00  0.00    +0.000 A 
ATOM     10  C   UNL     1      -4.662  12.988  24.075  0.00  0.00    +0.000 A 
ATOM     11  C   UNL     1      -5.540  12.864  22.999  0.00  0.00    +0.000 A 
ATOM     12  C   UNL     1      -5.040  12.690  21.706  0.00  0.00    +0.000 A 
ATOM     13  C   UNL     1      -3.657  12.633  21.496  0.00  0.00    +0.000 A 
BRANCH   4  14
ATOM     14  O   UNL     1      -1.226  12.010  18.689  0.00  0.00    +0.000 OA
ATOM     15  H   UNL     1      -1.822  11.305  18.352  0.00  0.00    +0.000 HD
ENDBRANCH   4  14
ENDBRANCH   1   5
BRANCH   1  16
ATOM     16  C   UNL     1       1.110  10.954  20.105  0.00  0.00    +0.000 C 
ATOM     17  C   UNL     1       1.446  10.784  18.807  0.00  0.00    +0.000 C 
ATOM     18  C   UNL     1       1.822   9.445  18.251  0.00  0.00    +0.000 C 
ATOM     19  O   UNL     1       2.159   9.305  17.080  0.00  0.00    +0.000 OA
ATOM     20  C   UNL     1       1.794   8.285  19.142  0.00  0.00    +0.000 A 
ATOM     21  C   UNL     1       2.152   7.025  18.642  0.00  0.00    +0.000 A 
ATOM     22  C   UNL     1       2.114   5.907  19.472  0.00  0.00    +0.000 A 
ATOM     23  C   UNL     1       1.713   6.044  20.799  0.00  0.00    +0.000 A 
ATOM     24  C   UNL     1       1.370   7.302  21.299  0.00  0.00    +0.000 A 
ATOM     25  C   UNL     1       1.418   8.430  20.468  0.00  0.00    +0.000 A 
ATOM     26  C   UNL     1       1.096   9.759  21.015  0.00  0.00    +0.000 C 
ATOM     27  O   UNL     1       0.843   9.858  22.209  0.00  0.00    +0.000 OA
BRANCH  17  28
ATOM     28  O   UNL     1       1.538  11.806  17.880  0.00  0.00    +0.000 OA
ATOM     29  H   UNL     1       2.329  11.743  17.307  0.00  0.00    +0.000 HD
ENDBRANCH  17  28
ENDBRANCH   1  16
BRANCH   1  30
ATOM     30  C   UNL     1       1.456  13.527  20.250  0.00  0.00    +0.000 A 
ATOM     31  C   UNL     1       0.699  14.522  19.598  0.00  0.00    +0.000 A 
ATOM     32  C   UNL     1       1.322  15.618  18.991  0.00  0.00    +0.000 A 
ATOM     33  C   UNL     1       2.707  15.744  19.037  0.00  0.00    +0.000 A 
ATOM     34 CL   UNL     1       3.483  17.047  18.228  0.00  0.00    +0.000 Cl
ATOM     35  C   UNL     1       3.469  14.813  19.730  0.00  0.00    +0.000 A 
ATOM     36  C   UNL     1       2.846  13.723  20.346  0.00  0.00    +0.000 A 
ENDBRANCH   1  30
TORSDOF 5
ENDMDL
MODEL 8
REMARK VINA RESULT:      -7.8      2.599      5.662
REMARK  Name = 
REMARK  5 active torsions:
REMARK  status: ('A' for Active; 'I' for Inactive)
REMARK    1  A    between atoms: C_3  and  O_4
REMARK    2  A    between atoms: C_5  and  C_6
REMARK    3  A    between atoms: C_6  and  C_7
REMARK    4  A    between atoms: C_6  and  C_20
REMARK    5  A    between atoms: C_8  and  O_9
REMARK                            x       y       z     vdW  Elec       q    Type
REMARK                         _______ _______ _______ _____ _____    ______ ____
ROOT
ATOM      1  C   UNL     1       0.353  12.169  20.847  0.00  0.00    +0.000 C 
ENDROOT
BRANCH   1   5
ATOM      2  O   UNL     1      -3.841  12.315  23.325  0.00  0.00    +0.000 OA
ATOM      3  C   UNL     1      -3.321  12.305  22.213  0.00  0.00    +0.000 C 
ATOM      4  C   UNL     1      -1.837  12.286  22.109  0.00  0.00    +0.000 C 
ATOM      5  C   UNL     1      -1.183  12.198  20.937  0.00  0.00    +0.000 C 
ATOM      6  C   UNL     1      -1.987  12.124  19.685  0.00  0.00    +0.000 C 
ATOM      7  O   UNL     1      -1.449  11.910  18.604  0.00  0.00    +0.000 OA
ATOM      8  C   UNL     1      -3.454  12.263  19.749  0.00  0.00    +0.000 A 
ATOM      9  C   UNL     1      -4.200  12.304  18.563  0.00  0.00    +0.000 A 
ATOM     10  C   UNL     1      -5.590  12.424  18.613  0.00  0.00    +0.000 A 
ATOM     11  C   UNL     1      -6.240  12.489  19.845  0.00  0.00    +0.000 A 
ATOM     12  C   UNL     1      -5.500  12.441  21.029  0.00  0.00    +0.000 A 
ATOM     13  C   UNL     1      -4.105  12.334  20.974  0.00  0.00    +0.000 A 
BRANCH   4  14
ATOM     14  O   UNL     1      -1.154  12.340  23.312  0.00  0.00    +0.000 OA
ATOM     15  H   UNL     1      -1.117  11.413  23.639  0.00  0.00    +0.000 HD
ENDBRANCH   4  14
ENDBRANCH   1   5
BRANCH   1  16
ATOM     16  C   UNL     1       0.868  10.912  20.127  0.00  0.00    +0.000 C 
ATOM     17  C   UNL     1       1.290  10.822  18.846  0.00  0.00    +0.000 C 
ATOM     18  C   UNL     1       1.802   9.541  18.264  0.00  0.00    +0.000 C 
ATOM     19  O   UNL     1       2.215   9.476  17.111  0.00  0.00    +0.000 OA
ATOM     20  C   UNL     1       1.816   8.346  19.108  0.00  0.00    +0.000 A 
ATOM     21  C   UNL     1       2.300   7.139  18.584  0.00  0.00    +0.000 A 
ATOM     22  C   UNL     1       2.304   5.988  19.368  0.00  0.00    +0.000 A 
ATOM     23  C   UNL     1       1.819   6.038  20.673  0.00  0.00    +0.000 A 
ATOM     24  C   UNL     1       1.349   7.244  21.198  0.00  0.00    +0.000 A 
ATOM     25  C   UNL     1       1.355   8.406  20.413  0.00  0.00    +0.000 A 
ATOM     26  C   UNL     1       0.898   9.682  20.989  0.00  0.00    +0.000 C 
ATOM     27  O   UNL     1       0.571   9.712  22.169  0.00  0.00    +0.000 OA
BRANCH  17  28
ATOM     28  O   UNL     1       1.353  11.886  17.965  0.00  0.00    +0.000 OA
ATOM     29  H   UNL     1       1.230  12.757  18.396  0.00  0.00    +0.000 HD
ENDBRANCH  17  28
ENDBRANCH   1  16
BRANCH   1  30
ATOM     30  C   UNL     1       1.012  13.494  20.399  0.00  0.00    +0.000 A 
ATOM     31  C   UNL     1       2.385  13.695  20.646  0.00  0.00    +0.000 A 
ATOM     32  C   UNL     1       2.997  14.920  20.357  0.00  0.00    +0.000 A 
ATOM     33  C   UNL     1       2.250  15.956  19.805  0.00  0.00    +0.000 A 
ATOM     34 CL   UNL     1       2.979  17.488  19.519  0.00  0.00    +0.000 Cl
ATOM     35  C   UNL     1       0.913  15.761  19.491  0.00  0.00    +0.000 A 
ATOM     36  C   UNL     1       0.304  14.535  19.770  0.00  0.00    +0.000 A 
ENDBRANCH   1  30
TORSDOF 5
ENDMDL
MODEL 9
REMARK VINA RESULT:      -7.7      2.760      7.375
REMARK  Name = 
REMARK  5 active torsions:
REMARK  status: ('A' for Active; 'I' for Inactive)
REMARK    1  A    between atoms: C_3  and  O_4
REMARK    2  A    between atoms: C_5  and  C_6
REMARK    3  A    between atoms: C_6  and  C_7
REMARK    4  A    between atoms: C_6  and  C_20
REMARK    5  A    between atoms: C_8  and  O_9
REMARK                            x       y       z     vdW  Elec       q    Type
REMARK                         _______ _______ _______ _____ _____    ______ ____
ROOT
ATOM      1  C   UNL     1      -0.739  12.528  19.597  0.00  0.00    +0.000 C 
ENDROOT
BRANCH   1   5
ATOM      2  O   UNL     1       0.294   8.899  22.682  0.00  0.00    +0.000 OA
ATOM      3  C   UNL     1       0.420   9.322  21.536  0.00  0.00    +0.000 C 
ATOM      4  C   UNL     1      -0.222  10.612  21.167  0.00  0.00    +0.000 C 
ATOM      5  C   UNL     1      -0.076  11.187  19.960  0.00  0.00    +0.000 C 
ATOM      6  C   UNL     1       0.765  10.493  18.945  0.00  0.00    +0.000 C 
ATOM      7  O   UNL     1       1.040  11.034  17.879  0.00  0.00    +0.000 OA
ATOM      8  C   UNL     1       1.315   9.157  19.241  0.00  0.00    +0.000 A 
ATOM      9  C   UNL     1       2.013   8.457  18.247  0.00  0.00    +0.000 A 
ATOM     10  C   UNL     1       2.546   7.196  18.522  0.00  0.00    +0.000 A 
ATOM     11  C   UNL     1       2.397   6.636  19.790  0.00  0.00    +0.000 A 
ATOM     12  C   UNL     1       1.708   7.335  20.785  0.00  0.00    +0.000 A 
ATOM     13  C   UNL     1       1.163   8.594  20.502  0.00  0.00    +0.000 A 
BRANCH   4  14
ATOM     14  O   UNL     1      -0.975  11.210  22.163  0.00  0.00    +0.000 OA
ATOM     15  H   UNL     1      -1.909  10.975  21.968  0.00  0.00    +0.000 HD
ENDBRANCH   4  14
ENDBRANCH   1   5
BRANCH   1  16
ATOM     16  C   UNL     1      -2.246  12.530  19.901  0.00  0.00    +0.000 C 
ATOM     17  C   UNL     1      -2.853  13.016  21.008  0.00  0.00    +0.000 C 
ATOM     18  C   UNL     1      -4.340  12.989  21.176  0.00  0.00    +0.000 C 
ATOM     19  O   UNL     1      -4.886  13.462  22.168  0.00  0.00    +0.000 OA
ATOM     20  C   UNL     1      -5.154  12.390  20.118  0.00  0.00    +0.000 A 
ATOM     21  C   UNL     1      -6.549  12.364  20.254  0.00  0.00    +0.000 A 
ATOM     22  C   UNL     1      -7.337  11.782  19.264  0.00  0.00    +0.000 A 
ATOM     23  C   UNL     1      -6.734  11.220  18.141  0.00  0.00    +0.000 A 
ATOM     24  C   UNL     1      -5.345  11.259  18.000  0.00  0.00    +0.000 A 
ATOM     25  C   UNL     1      -4.551  11.854  18.991  0.00  0.00    +0.000 A 
ATOM     26  C   UNL     1      -3.091  11.928  18.815  0.00  0.00    +0.000 C 
ATOM     27  O   UNL     1      -2.602  11.514  17.771  0.00  0.00    +0.000 OA
BRANCH  17  28
ATOM     28  O   UNL     1      -2.194  13.631  22.056  0.00  0.00    +0.000 OA
ATOM     29  H   UNL     1      -1.753  13.001  22.663  0.00  0.00    +0.000 HD
ENDBRANCH  17  28
ENDBRANCH   1  16
BRANCH   1  30
ATOM     30  C   UNL     1       0.024  13.789  20.064  0.00  0.00    +0.000 A 
ATOM     31  C   UNL     1      -0.285  15.033  19.478  0.00  0.00    +0.000 A 
ATOM     32  C   UNL     1       0.455  16.180  19.792  0.00  0.00    +0.000 A 
ATOM     33  C   UNL     1       1.502  16.102  20.705  0.00  0.00    +0.000 A 
ATOM     34 CL   UNL     1       2.462  17.490  21.036  0.00  0.00    +0.000 Cl
ATOM     35  C   UNL     1       1.782  14.903  21.345  0.00  0.00    +0.000 A 
ATOM     36  C   UNL     1       1.038  13.760  21.039  0.00  0.00    +0.000 A 
ENDBRANCH   1  30
TORSDOF 5
ENDMDL
