MODEL 1
REMARK VINA RESULT:      -7.2      0.000      0.000
REMARK  Name = 
REMARK  8 active torsions:
REMARK  status: ('A' for Active; 'I' for Inactive)
REMARK    1  A    between atoms: C_1  and  C_2
REMARK    2  A    between atoms: C_3  and  C_4
REMARK    3  A    between atoms: C_4  and  O_6
REMARK    4  A    between atoms: O_6  and  C_7
REMARK    5  A    between atoms: C_7  and  C_8
REMARK    6  A    between atoms: C_7  and  C_9
REMARK    7  A    between atoms: C_10  and  C_11
REMARK    8  A    between atoms: N_18  and  C_19
REMARK                            x       y       z     vdW  Elec       q    Type
REMARK                         _______ _______ _______ _____ _____    ______ ____
ROOT
ATOM      1  C   UNL     1       7.868   4.543  18.022  0.00  0.00    +0.000 C 
ATOM      2  C   UNL     1       6.365   4.657  18.094  0.00  0.00    +0.000 C 
ATOM      3  C   UNL     1       5.550   5.492  17.403  0.00  0.00    +0.000 C 
ATOM      4  C   UNL     1       4.044   5.462  17.647  0.00  0.00    +0.000 C 
ATOM      5  N   UNL     1       3.654   4.285  18.415  0.00  0.00    +0.000 N 
ATOM      6  C   UNL     1       4.467   3.512  19.188  0.00  0.00    +0.000 C 
ATOM      7  N   UNL     1       3.914   2.641  19.975  0.00  0.00    +0.000 NA
ATOM      8  N   UNL     1       5.800   3.756  18.992  0.00  0.00    +0.000 N 
ATOM      9  H   UNL     1       2.663   4.144  18.572  0.00  0.00    +0.000 HD
ATOM     10  H   UNL     1       6.461   3.164  19.487  0.00  0.00    +0.000 HD
ENDROOT
BRANCH   4  11
ATOM     11  C   UNL     1       3.527   6.753  18.336  0.00  0.00    +0.000 C 
ATOM     12  C   UNL     1       2.700   7.679  17.437  0.00  0.00    +0.000 C 
ATOM     13  C   UNL     1       2.025   8.633  18.414  0.00  0.00    +0.000 C 
ATOM     14  C   UNL     1       1.851   7.851  19.713  0.00  0.00    +0.000 C 
ATOM     15  C   UNL     1       2.607   6.535  19.541  0.00  0.00    +0.000 C 
ENDBRANCH   4  11
BRANCH   3  16
ATOM     16  C   UNL     1       5.935   6.471  16.342  0.00  0.00    +0.000 C 
ATOM     17  O   UNL     1       6.496   7.529  16.593  0.00  0.00    +0.000 OA
BRANCH  16  18
ATOM     18  O   UNL     1       5.664   6.012  15.098  0.00  0.00    +0.000 OA
BRANCH  18  19
ATOM     19  C   UNL     1       6.354   4.824  14.661  0.00  0.00    +0.000 C 
ATOM     20  C   UNL     1       5.408   3.970  13.823  0.00  0.00    +0.000 C 
ATOM     21  C   UNL     1       7.533   5.285  13.808  0.00  0.00    +0.000 C 
ENDBRANCH  18  19
ENDBRANCH  16  18
ENDBRANCH   3  16
BRANCH   7  22
ATOM     22  C   UNL     1       4.720   1.870  20.714  0.00  0.00    +0.000 C 
ATOM     23  N   UNL     1       5.455   1.225  21.330  0.00  0.00    +0.000 NA
ENDBRANCH   7  22
TORSDOF 5
ENDMDL
MODEL 2
REMARK VINA RESULT:      -6.9      2.952      5.617
REMARK  Name = 
REMARK  8 active torsions:
REMARK  status: ('A' for Active; 'I' for Inactive)
REMARK    1  A    between atoms: C_1  and  C_2
REMARK    2  A    between atoms: C_3  and  C_4
REMARK    3  A    between atoms: C_4  and  O_6
REMARK    4  A    between atoms: O_6  and  C_7
REMARK    5  A    between atoms: C_7  and  C_8
REMARK    6  A    between atoms: C_7  and  C_9
REMARK    7  A    between atoms: C_10  and  C_11
REMARK    8  A    between atoms: N_18  and  C_19
REMARK                            x       y       z     vdW  Elec       q    Type
REMARK                         _______ _______ _______ _____ _____    ______ ____
ROOT
ATOM      1  C   UNL     1       2.770   3.453  16.881  0.00  0.00    +0.000 C 
ATOM      2  C   UNL     1       4.235   3.813  16.918  0.00  0.00    +0.000 C 
ATOM      3  C   UNL     1       5.002   4.106  17.997  0.00  0.00    +0.000 C 
ATOM      4  C   UNL     1       6.472   4.473  17.810  0.00  0.00    +0.000 C 
ATOM      5  N   UNL     1       6.930   4.159  16.461  0.00  0.00    +0.000 N 
ATOM      6  C   UNL     1       6.150   3.965  15.361  0.00  0.00    +0.000 C 
ATOM      7  N   UNL     1       6.729   3.915  14.202  0.00  0.00    +0.000 NA
ATOM      8  N   UNL     1       4.820   3.816  15.655  0.00  0.00    +0.000 N 
ATOM      9  H   UNL     1       7.912   4.306  16.261  0.00  0.00    +0.000 HD
ATOM     10  H   UNL     1       4.194   3.598  14.886  0.00  0.00    +0.000 HD
ENDROOT
BRANCH   4  11
ATOM     11  C   UNL     1       6.763   5.959  18.147  0.00  0.00    +0.000 C 
ATOM     12  C   UNL     1       8.095   6.212  18.863  0.00  0.00    +0.000 C 
ATOM     13  C   UNL     1       8.300   7.716  18.737  0.00  0.00    +0.000 C 
ATOM     14  C   UNL     1       7.604   8.129  17.443  0.00  0.00    +0.000 C 
ATOM     15  C   UNL     1       6.834   6.907  16.946  0.00  0.00    +0.000 C 
ENDBRANCH   4  11
BRANCH   3  16
ATOM     16  C   UNL     1       4.601   4.084  19.436  0.00  0.00    +0.000 C 
ATOM     17  O   UNL     1       4.810   3.122  20.164  0.00  0.00    +0.000 OA
BRANCH  16  18
ATOM     18  O   UNL     1       4.066   5.259  19.838  0.00  0.00    +0.000 OA
BRANCH  18  19
ATOM     19  C   UNL     1       2.689   5.516  19.499  0.00  0.00    +0.000 C 
ATOM     20  C   UNL     1       1.821   5.342  20.741  0.00  0.00    +0.000 C 
ATOM     21  C   UNL     1       2.614   6.960  19.010  0.00  0.00    +0.000 C 
ENDBRANCH  18  19
ENDBRANCH  16  18
ENDBRANCH   3  16
BRANCH   7  22
ATOM     22  C   UNL     1       5.959   3.701  13.130  0.00  0.00    +0.000 C 
ATOM     23  N   UNL     1       5.332   3.496  12.181  0.00  0.00    +0.000 NA
ENDBRANCH   7  22
TORSDOF 5
ENDMDL
MODEL 3
REMARK VINA RESULT:      -6.8      2.983      5.224
REMARK  Name = 
REMARK  8 active torsions:
REMARK  status: ('A' for Active; 'I' for Inactive)
REMARK    1  A    between atoms: C_1  and  C_2
REMARK    2  A    between atoms: C_3  and  C_4
REMARK    3  A    between atoms: C_4  and  O_6
REMARK    4  A    between atoms: O_6  and  C_7
REMARK    5  A    between atoms: C_7  and  C_8
REMARK    6  A    between atoms: C_7  and  C_9
REMARK    7  A    between atoms: C_10  and  C_11
REMARK    8  A    between atoms: N_18  and  C_19
REMARK                            x       y       z     vdW  Elec       q    Type
REMARK                         _______ _______ _______ _____ _____    ______ ____
ROOT
ATOM      1  C   UNL     1       4.275   6.945  16.592  0.00  0.00    +0.000 C 
ATOM      2  C   UNL     1       3.646   6.602  17.921  0.00  0.00    +0.000 C 
ATOM      3  C   UNL     1       3.847   5.502  18.689  0.00  0.00    +0.000 C 
ATOM      4  C   UNL     1       3.084   5.338  19.999  0.00  0.00    +0.000 C 
ATOM      5  N   UNL     1       2.434   6.582  20.396  0.00  0.00    +0.000 N 
ATOM      6  C   UNL     1       2.147   7.643  19.589  0.00  0.00    +0.000 C 
ATOM      7  N   UNL     1       1.371   8.572  20.055  0.00  0.00    +0.000 NA
ATOM      8  N   UNL     1       2.768   7.585  18.370  0.00  0.00    +0.000 N 
ATOM      9  H   UNL     1       1.957   6.590  21.288  0.00  0.00    +0.000 HD
ATOM     10  H   UNL     1       2.652   8.379  17.749  0.00  0.00    +0.000 HD
ENDROOT
BRANCH   4  11
ATOM     11  C   UNL     1       2.050   4.182  19.946  0.00  0.00    +0.000 C 
ATOM     12  C   UNL     1       1.414   3.945  18.572  0.00  0.00    +0.000 C 
ATOM     13  C   UNL     1       0.759   2.576  18.701  0.00  0.00    +0.000 C 
ATOM     14  C   UNL     1       1.592   1.804  19.720  0.00  0.00    +0.000 C 
ATOM     15  C   UNL     1       2.589   2.797  20.318  0.00  0.00    +0.000 C 
ENDBRANCH   4  11
BRANCH   3  16
ATOM     16  C   UNL     1       4.796   4.376  18.438  0.00  0.00    +0.000 C 
ATOM     17  O   UNL     1       4.560   3.480  17.639  0.00  0.00    +0.000 OA
BRANCH  16  18
ATOM     18  O   UNL     1       5.951   4.515  19.129  0.00  0.00    +0.000 OA
BRANCH  18  19
ATOM     19  C   UNL     1       6.968   5.365  18.562  0.00  0.00    +0.000 C 
ATOM     20  C   UNL     1       7.988   5.720  19.640  0.00  0.00    +0.000 C 
ATOM     21  C   UNL     1       7.643   4.568  17.449  0.00  0.00    +0.000 C 
ENDBRANCH  18  19
ENDBRANCH  16  18
ENDBRANCH   3  16
BRANCH   7  22
ATOM     22  C   UNL     1       1.113   9.620  19.266  0.00  0.00    +0.000 C 
ATOM     23  N   UNL     1       0.853  10.501  18.563  0.00  0.00    +0.000 NA
ENDBRANCH   7  22
TORSDOF 5
ENDMDL
MODEL 4
REMARK VINA RESULT:      -6.7      2.887      4.902
REMARK  Name = 
REMARK  8 active torsions:
REMARK  status: ('A' for Active; 'I' for Inactive)
REMARK    1  A    between atoms: C_1  and  C_2
REMARK    2  A    between atoms: C_3  and  C_4
REMARK    3  A    between atoms: C_4  and  O_6
REMARK    4  A    between atoms: O_6  and  C_7
REMARK    5  A    between atoms: C_7  and  C_8
REMARK    6  A    between atoms: C_7  and  C_9
REMARK    7  A    between atoms: C_10  and  C_11
REMARK    8  A    between atoms: N_18  and  C_19
REMARK                            x       y       z     vdW  Elec       q    Type
REMARK                         _______ _______ _______ _____ _____    ______ ____
ROOT
ATOM      1  C   UNL     1       4.540   6.863  16.278  0.00  0.00    +0.000 C 
ATOM      2  C   UNL     1       3.993   6.460  17.626  0.00  0.00    +0.000 C 
ATOM      3  C   UNL     1       4.311   5.374  18.373  0.00  0.00    +0.000 C 
ATOM      4  C   UNL     1       3.615   5.138  19.710  0.00  0.00    +0.000 C 
ATOM      5  N   UNL     1       2.884   6.323  20.144  0.00  0.00    +0.000 N 
ATOM      6  C   UNL     1       2.482   7.364  19.362  0.00  0.00    +0.000 C 
ATOM      7  N   UNL     1       1.653   8.224  19.867  0.00  0.00    +0.000 NA
ATOM      8  N   UNL     1       3.058   7.366  18.118  0.00  0.00    +0.000 N 
ATOM      9  H   UNL     1       2.442   6.285  21.055  0.00  0.00    +0.000 HD
ATOM     10  H   UNL     1       2.855   8.154  17.511  0.00  0.00    +0.000 HD
ENDROOT
BRANCH   4  11
ATOM     11  C   UNL     1       2.675   3.904  19.683  0.00  0.00    +0.000 C 
ATOM     12  C   UNL     1       1.646   3.848  20.818  0.00  0.00    +0.000 C 
ATOM     13  C   UNL     1       0.649   2.793  20.359  0.00  0.00    +0.000 C 
ATOM     14  C   UNL     1       0.662   2.835  18.834  0.00  0.00    +0.000 C 
ATOM     15  C   UNL     1       1.808   3.761  18.428  0.00  0.00    +0.000 C 
ENDBRANCH   4  11
BRANCH   3  16
ATOM     16  C   UNL     1       5.336   4.329  18.073  0.00  0.00    +0.000 C 
ATOM     17  O   UNL     1       5.182   3.485  17.200  0.00  0.00    +0.000 OA
BRANCH  16  18
ATOM     18  O   UNL     1       6.456   4.483  18.815  0.00  0.00    +0.000 OA
BRANCH  18  19
ATOM     19  C   UNL     1       7.638   4.967  18.145  0.00  0.00    +0.000 C 
ATOM     20  C   UNL     1       7.493   4.750  16.642  0.00  0.00    +0.000 C 
ATOM     21  C   UNL     1       7.740   6.459  18.449  0.00  0.00    +0.000 C 
ENDBRANCH  18  19
ENDBRANCH  16  18
ENDBRANCH   3  16
BRANCH   7  22
ATOM     22  C   UNL     1       1.282   9.255  19.100  0.00  0.00    +0.000 C 
ATOM     23  N   UNL     1       0.915  10.141  18.454  0.00  0.00    +0.000 NA
ENDBRANCH   7  22
TORSDOF 5
ENDMDL
MODEL 5
REMARK VINA RESULT:      -6.7      2.860      4.647
REMARK  Name = 
REMARK  8 active torsions:
REMARK  status: ('A' for Active; 'I' for Inactive)
REMARK    1  A    between atoms: C_1  and  C_2
REMARK    2  A    between atoms: C_3  and  C_4
REMARK    3  A    between atoms: C_4  and  O_6
REMARK    4  A    between atoms: O_6  and  C_7
REMARK    5  A    between atoms: C_7  and  C_8
REMARK    6  A    between atoms: C_7  and  C_9
REMARK    7  A    between atoms: C_10  and  C_11
REMARK    8  A    between atoms: N_18  and  C_19
REMARK                            x       y       z     vdW  Elec       q    Type
REMARK                         _______ _______ _______ _____ _____    ______ ____
ROOT
ATOM      1  C   UNL     1       4.496   7.146  16.283  0.00  0.00    +0.000 C 
ATOM      2  C   UNL     1       3.974   6.669  17.617  0.00  0.00    +0.000 C 
ATOM      3  C   UNL     1       4.342   5.569  18.320  0.00  0.00    +0.000 C 
ATOM      4  C   UNL     1       3.665   5.253  19.650  0.00  0.00    +0.000 C 
ATOM      5  N   UNL     1       2.886   6.388  20.133  0.00  0.00    +0.000 N 
ATOM      6  C   UNL     1       2.436   7.440  19.392  0.00  0.00    +0.000 C 
ATOM      7  N   UNL     1       1.574   8.244  19.933  0.00  0.00    +0.000 NA
ATOM      8  N   UNL     1       3.004   7.514  18.148  0.00  0.00    +0.000 N 
ATOM      9  H   UNL     1       2.452   6.297  21.043  0.00  0.00    +0.000 HD
ATOM     10  H   UNL     1       2.764   8.315  17.572  0.00  0.00    +0.000 HD
ENDROOT
BRANCH   4  11
ATOM     11  C   UNL     1       2.779   3.981  19.579  0.00  0.00    +0.000 C 
ATOM     12  C   UNL     1       1.731   3.860  20.691  0.00  0.00    +0.000 C 
ATOM     13  C   UNL     1       0.788   2.774  20.192  0.00  0.00    +0.000 C 
ATOM     14  C   UNL     1       0.830   2.847  18.668  0.00  0.00    +0.000 C 
ATOM     15  C   UNL     1       1.944   3.828  18.304  0.00  0.00    +0.000 C 
ENDBRANCH   4  11
BRANCH   3  16
ATOM     16  C   UNL     1       5.410   4.582  17.976  0.00  0.00    +0.000 C 
ATOM     17  O   UNL     1       6.275   4.242  18.773  0.00  0.00    +0.000 OA
BRANCH  16  18
ATOM     18  O   UNL     1       5.251   4.066  16.737  0.00  0.00    +0.000 OA
BRANCH  18  19
ATOM     19  C   UNL     1       6.425   3.948  15.908  0.00  0.00    +0.000 C 
ATOM     20  C   UNL     1       6.007   3.895  14.442  0.00  0.00    +0.000 C 
ATOM     21  C   UNL     1       7.275   5.190  16.163  0.00  0.00    +0.000 C 
ENDBRANCH  18  19
ENDBRANCH  16  18
ENDBRANCH   3  16
BRANCH   7  22
ATOM     22  C   UNL     1       1.155   9.286  19.208  0.00  0.00    +0.000 C 
ATOM     23  N   UNL     1       0.769  10.205  18.622  0.00  0.00    +0.000 NA
ENDBRANCH   7  22
TORSDOF 5
ENDMDL
MODEL 6
REMARK VINA RESULT:      -6.6      3.140      5.709
REMARK  Name = 
REMARK  8 active torsions:
REMARK  status: ('A' for Active; 'I' for Inactive)
REMARK    1  A    between atoms: C_1  and  C_2
REMARK    2  A    between atoms: C_3  and  C_4
REMARK    3  A    between atoms: C_4  and  O_6
REMARK    4  A    between atoms: O_6  and  C_7
REMARK    5  A    between atoms: C_7  and  C_8
REMARK    6  A    between atoms: C_7  and  C_9
REMARK    7  A    between atoms: C_10  and  C_11
REMARK    8  A    between atoms: N_18  and  C_19
REMARK                            x       y       z     vdW  Elec       q    Type
REMARK                         _______ _______ _______ _____ _____    ______ ____
ROOT
ATOM      1  C   UNL     1       2.532   3.939  16.707  0.00  0.00    +0.000 C 
ATOM      2  C   UNL     1       4.019   4.133  16.883  0.00  0.00    +0.000 C 
ATOM      3  C   UNL     1       4.705   4.385  18.025  0.00  0.00    +0.000 C 
ATOM      4  C   UNL     1       6.219   4.574  17.978  0.00  0.00    +0.000 C 
ATOM      5  N   UNL     1       6.768   4.150  16.694  0.00  0.00    +0.000 N 
ATOM      6  C   UNL     1       6.081   3.996  15.527  0.00  0.00    +0.000 C 
ATOM      7  N   UNL     1       6.762   3.830  14.436  0.00  0.00    +0.000 NA
ATOM      8  N   UNL     1       4.721   4.012  15.688  0.00  0.00    +0.000 N 
ATOM      9  H   UNL     1       7.774   4.176  16.592  0.00  0.00    +0.000 HD
ATOM     10  H   UNL     1       4.152   3.832  14.866  0.00  0.00    +0.000 HD
ENDROOT
BRANCH   4  11
ATOM     11  C   UNL     1       6.647   6.031  18.294  0.00  0.00    +0.000 C 
ATOM     12  C   UNL     1       8.057   6.179  18.877  0.00  0.00    +0.000 C 
ATOM     13  C   UNL     1       8.357   7.666  18.741  0.00  0.00    +0.000 C 
ATOM     14  C   UNL     1       7.571   8.145  17.524  0.00  0.00    +0.000 C 
ATOM     15  C   UNL     1       6.670   6.987  17.097  0.00  0.00    +0.000 C 
ENDBRANCH   4  11
BRANCH   3  16
ATOM     16  C   UNL     1       4.164   4.472  19.415  0.00  0.00    +0.000 C 
ATOM     17  O   UNL     1       4.015   5.537  19.999  0.00  0.00    +0.000 OA
BRANCH  16  18
ATOM     18  O   UNL     1       3.796   3.264  19.899  0.00  0.00    +0.000 OA
BRANCH  18  19
ATOM     19  C   UNL     1       2.408   3.076  20.238  0.00  0.00    +0.000 C 
ATOM     20  C   UNL     1       1.844   1.908  19.435  0.00  0.00    +0.000 C 
ATOM     21  C   UNL     1       2.355   2.757  21.729  0.00  0.00    +0.000 C 
ENDBRANCH  18  19
ENDBRANCH  16  18
ENDBRANCH   3  16
BRANCH   7  22
ATOM     22  C   UNL     1       6.081   3.657  13.298  0.00  0.00    +0.000 C 
ATOM     23  N   UNL     1       5.500   3.459  12.318  0.00  0.00    +0.000 NA
ENDBRANCH   7  22
TORSDOF 5
ENDMDL
MODEL 7
REMARK VINA RESULT:      -6.5      1.709      2.075
REMARK  Name = 
REMARK  8 active torsions:
REMARK  status: ('A' for Active; 'I' for Inactive)
REMARK    1  A    between atoms: C_1  and  C_2
REMARK    2  A    between atoms: C_3  and  C_4
REMARK    3  A    between atoms: C_4  and  O_6
REMARK    4  A    between atoms: O_6  and  C_7
REMARK    5  A    between atoms: C_7  and  C_8
REMARK    6  A    between atoms: C_7  and  C_9
REMARK    7  A    between atoms: C_10  and  C_11
REMARK    8  A    between atoms: N_18  and  C_19
REMARK                            x       y       z     vdW  Elec       q    Type
REMARK                         _______ _______ _______ _____ _____    ______ ____
ROOT
ATOM      1  C   UNL     1       5.870   4.302  19.312  0.00  0.00    +0.000 C 
ATOM      2  C   UNL     1       4.514   4.890  19.005  0.00  0.00    +0.000 C 
ATOM      3  C   UNL     1       4.199   5.848  18.098  0.00  0.00    +0.000 C 
ATOM      4  C   UNL     1       2.755   6.323  17.962  0.00  0.00    +0.000 C 
ATOM      5  N   UNL     1       1.835   5.430  18.658  0.00  0.00    +0.000 N 
ATOM      6  C   UNL     1       2.151   4.540  19.640  0.00  0.00    +0.000 C 
ATOM      7  N   UNL     1       1.180   3.989  20.301  0.00  0.00    +0.000 NA
ATOM      8  N   UNL     1       3.498   4.327  19.771  0.00  0.00    +0.000 N 
ATOM      9  H   UNL     1       0.845   5.626  18.569  0.00  0.00    +0.000 HD
ATOM     10  H   UNL     1       3.796   3.622  20.438  0.00  0.00    +0.000 HD
ENDROOT
BRANCH   4  11
ATOM     11  C   UNL     1       2.560   7.784  18.447  0.00  0.00    +0.000 C 
ATOM     12  C   UNL     1       1.733   8.672  17.510  0.00  0.00    +0.000 C 
ATOM     13  C   UNL     1       1.385   9.884  18.364  0.00  0.00    +0.000 C 
ATOM     14  C   UNL     1       1.329   9.382  19.804  0.00  0.00    +0.000 C 
ATOM     15  C   UNL     1       1.843   7.944  19.791  0.00  0.00    +0.000 C 
ENDBRANCH   4  11
BRANCH   3  16
ATOM     16  C   UNL     1       5.113   6.521  17.126  0.00  0.00    +0.000 C 
ATOM     17  O   UNL     1       5.896   7.401  17.458  0.00  0.00    +0.000 OA
BRANCH  16  18
ATOM     18  O   UNL     1       5.021   5.991  15.886  0.00  0.00    +0.000 OA
BRANCH  18  19
ATOM     19  C   UNL     1       5.636   4.707  15.662  0.00  0.00    +0.000 C 
ATOM     20  C   UNL     1       5.412   4.283  14.213  0.00  0.00    +0.000 C 
ATOM     21  C   UNL     1       7.129   4.877  15.930  0.00  0.00    +0.000 C 
ENDBRANCH  18  19
ENDBRANCH  16  18
ENDBRANCH   3  16
BRANCH   7  22
ATOM     22  C   UNL     1       1.498   3.099  21.247  0.00  0.00    +0.000 C 
ATOM     23  N   UNL     1       1.813   2.357  22.075  0.00  0.00    +0.000 NA
ENDBRANCH   7  22
TORSDOF 5
ENDMDL
MODEL 8
REMARK VINA RESULT:      -6.5      0.571      1.046
REMARK  Name = 
REMARK  8 active torsions:
REMARK  status: ('A' for Active; 'I' for Inactive)
REMARK    1  A    between atoms: C_1  and  C_2
REMARK    2  A    between atoms: C_3  and  C_4
REMARK    3  A    between atoms: C_4  and  O_6
REMARK    4  A    between atoms: O_6  and  C_7
REMARK    5  A    between atoms: C_7  and  C_8
REMARK    6  A    between atoms: C_7  and  C_9
REMARK    7  A    between atoms: C_10  and  C_11
REMARK    8  A    between atoms: N_18  and  C_19
REMARK                            x       y       z     vdW  Elec       q    Type
REMARK                         _______ _______ _______ _____ _____    ______ ____
ROOT
ATOM      1  C   UNL     1       7.607   4.850  18.322  0.00  0.00    +0.000 C 
ATOM      2  C   UNL     1       6.128   4.577  18.193  0.00  0.00    +0.000 C 
ATOM      3  C   UNL     1       5.241   5.141  17.335  0.00  0.00    +0.000 C 
ATOM      4  C   UNL     1       3.770   4.738  17.387  0.00  0.00    +0.000 C 
ATOM      5  N   UNL     1       3.576   3.539  18.195  0.00  0.00    +0.000 N 
ATOM      6  C   UNL     1       4.435   3.038  19.127  0.00  0.00    +0.000 C 
ATOM      7  N   UNL     1       4.007   2.094  19.907  0.00  0.00    +0.000 NA
ATOM      8  N   UNL     1       5.680   3.607  19.083  0.00  0.00    +0.000 N 
ATOM      9  H   UNL     1       2.640   3.155  18.235  0.00  0.00    +0.000 HD
ATOM     10  H   UNL     1       6.388   3.228  19.705  0.00  0.00    +0.000 HD
ENDROOT
BRANCH   4  11
ATOM     11  C   UNL     1       2.856   5.884  17.894  0.00  0.00    +0.000 C 
ATOM     12  C   UNL     1       2.945   6.167  19.398  0.00  0.00    +0.000 C 
ATOM     13  C   UNL     1       2.271   7.523  19.559  0.00  0.00    +0.000 C 
ATOM     14  C   UNL     1       2.496   8.264  18.243  0.00  0.00    +0.000 C 
ATOM     15  C   UNL     1       3.114   7.260  17.271  0.00  0.00    +0.000 C 
ENDBRANCH   4  11
BRANCH   3  16
ATOM     16  C   UNL     1       5.520   6.134  16.254  0.00  0.00    +0.000 C 
ATOM     17  O   UNL     1       5.999   7.237  16.480  0.00  0.00    +0.000 OA
BRANCH  16  18
ATOM     18  O   UNL     1       5.259   5.638  15.023  0.00  0.00    +0.000 OA
BRANCH  18  19
ATOM     19  C   UNL     1       6.048   4.518  14.574  0.00  0.00    +0.000 C 
ATOM     20  C   UNL     1       5.344   3.841  13.402  0.00  0.00    +0.000 C 
ATOM     21  C   UNL     1       7.394   5.077  14.121  0.00  0.00    +0.000 C 
ENDBRANCH  18  19
ENDBRANCH  16  18
ENDBRANCH   3  16
BRANCH   7  22
ATOM     22  C   UNL     1       4.863   1.592  20.804  0.00  0.00    +0.000 C 
ATOM     23  N   UNL     1       5.627   1.201  21.578  0.00  0.00    +0.000 NA
ENDBRANCH   7  22
TORSDOF 5
ENDMDL
MODEL 9
REMARK VINA RESULT:      -6.5      1.818      4.568
REMARK  Name = 
REMARK  8 active torsions:
REMARK  status: ('A' for Active; 'I' for Inactive)
REMARK    1  A    between atoms: C_1  and  C_2
REMARK    2  A    between atoms: C_3  and  C_4
REMARK    3  A    between atoms: C_4  and  O_6
REMARK    4  A    between atoms: O_6  and  C_7
REMARK    5  A    between atoms: C_7  and  C_8
REMARK    6  A    between atoms: C_7  and  C_9
REMARK    7  A    between atoms: C_10  and  C_11
REMARK    8  A    between atoms: N_18  and  C_19
REMARK                            x       y       z     vdW  Elec       q    Type
REMARK                         _______ _______ _______ _____ _____    ______ ____
ROOT
ATOM      1  C   UNL     1       2.383   6.765  17.680  0.00  0.00    +0.000 C 
ATOM      2  C   UNL     1       3.336   5.597  17.605  0.00  0.00    +0.000 C 
ATOM      3  C   UNL     1       4.641   5.599  17.239  0.00  0.00    +0.000 C 
ATOM      4  C   UNL     1       5.426   4.290  17.208  0.00  0.00    +0.000 C 
ATOM      5  N   UNL     1       4.701   3.220  17.886  0.00  0.00    +0.000 N 
ATOM      6  C   UNL     1       3.367   3.188  18.160  0.00  0.00    +0.000 C 
ATOM      7  N   UNL     1       2.854   2.069  18.567  0.00  0.00    +0.000 NA
ATOM      8  N   UNL     1       2.744   4.396  17.986  0.00  0.00    +0.000 N 
ATOM      9  H   UNL     1       5.172   2.329  17.975  0.00  0.00    +0.000 HD
ATOM     10  H   UNL     1       1.764   4.457  18.241  0.00  0.00    +0.000 HD
ENDROOT
BRANCH   4  11
ATOM     11  C   UNL     1       5.805   3.857  15.767  0.00  0.00    +0.000 C 
ATOM     12  C   UNL     1       4.751   4.169  14.698  0.00  0.00    +0.000 C 
ATOM     13  C   UNL     1       5.500   4.000  13.383  0.00  0.00    +0.000 C 
ATOM     14  C   UNL     1       6.958   4.339  13.681  0.00  0.00    +0.000 C 
ATOM     15  C   UNL     1       7.073   4.500  15.196  0.00  0.00    +0.000 C 
ENDBRANCH   4  11
BRANCH   3  16
ATOM     16  C   UNL     1       5.486   6.776  16.875  0.00  0.00    +0.000 C 
ATOM     17  O   UNL     1       5.456   7.292  15.765  0.00  0.00    +0.000 OA
BRANCH  16  18
ATOM     18  O   UNL     1       6.206   7.235  17.924  0.00  0.00    +0.000 OA
BRANCH  18  19
ATOM     19  C   UNL     1       7.642   7.150  17.836  0.00  0.00    +0.000 C 
ATOM     20  C   UNL     1       8.242   8.544  17.993  0.00  0.00    +0.000 C 
ATOM     21  C   UNL     1       8.104   6.253  18.980  0.00  0.00    +0.000 C 
ENDBRANCH  18  19
ENDBRANCH  16  18
ENDBRANCH   3  16
BRANCH   7  22
ATOM     22  C   UNL     1       1.548   2.051  18.855  0.00  0.00    +0.000 C 
ATOM     23  N   UNL     1       0.410   2.058  19.061  0.00  0.00    +0.000 NA
ENDBRANCH   7  22
TORSDOF 5
ENDMDL
