MODEL 1
REMARK VINA RESULT:      -8.5      0.000      0.000
REMARK  Name = 
REMARK  8 active torsions:
REMARK  status: ('A' for Active; 'I' for Inactive)
REMARK    1  A    between atoms: C_1  and  C_2
REMARK    2  A    between atoms: C_5  and  C_6
REMARK    3  A    between atoms: C_7  and  C_8
REMARK    4  A    between atoms: C_12  and  S_13
REMARK    5  A    between atoms: S_13  and  N_16
REMARK    6  A    between atoms: N_16  and  C_17
REMARK    7  A    between atoms: C_20  and  C_21
REMARK    8  A    between atoms: C_24  and  C_25
REMARK                            x       y       z     vdW  Elec       q    Type
REMARK                         _______ _______ _______ _____ _____    ______ ____
ROOT
ATOM      1  C   UNL     1       4.948   6.342  16.714  0.00  0.00    +0.000 A 
ATOM      2  C   UNL     1       5.058   6.325  15.284  0.00  0.00    +0.000 A 
ATOM      3  C   UNL     1       5.868   5.312  14.827  0.00  0.00    +0.000 A 
ATOM      4  S   UNL     1       6.453   4.347  16.101  0.00  0.00    +0.000 S 
ATOM      5  C   UNL     1       5.667   5.305  17.295  0.00  0.00    +0.000 A 
ENDROOT
BRANCH   5   6
ATOM      6  S   UNL     1       5.960   4.776  18.979  0.00  0.00    +0.000 S 
ATOM      7  O   UNL     1       7.398   4.792  19.161  0.00  0.00    +0.000 OA
ATOM      8  O   UNL     1       5.122   5.565  19.853  0.00  0.00    +0.000 OA
BRANCH   6   9
ATOM      9  N   UNL     1       5.478   3.134  19.123  0.00  0.00    +0.000 N 
ATOM     10  H   UNL     1       6.185   2.745  19.750  0.00  0.00    +0.000 HD
BRANCH   9  11
ATOM     11  C   UNL     1       4.197   3.027  19.748  0.00  0.00    +0.000 A 
ATOM     12  O   UNL     1       4.026   2.677  21.052  0.00  0.00    +0.000 OA
ATOM     13  N   UNL     1       2.676   2.635  21.353  0.00  0.00    +0.000 NA
ATOM     14  C   UNL     1       2.037   2.922  20.210  0.00  0.00    +0.000 A 
ATOM     15  C   UNL     1       0.556   2.939  20.179  0.00  0.00    +0.000 C 
ATOM     16  C   UNL     1       2.960   3.157  19.168  0.00  0.00    +0.000 A 
ATOM     17 BR   UNL     1       2.517   3.507  17.385  0.00  0.00    +0.000 Br
ENDBRANCH   9  11
ENDBRANCH   6   9
ENDBRANCH   5   6
BRANCH   1  19
ATOM     18  C   UNL     1       2.908   7.218  17.798  0.00  0.00    +0.000 C 
ATOM     19  C   UNL     1       4.182   7.344  17.401  0.00  0.00    +0.000 C 
BRANCH  18  24
ATOM     20  C   UNL     1      -0.262  11.217  20.496  0.00  0.00    +0.000 C 
ATOM     21  C   UNL     1       0.589  10.196  19.799  0.00  0.00    +0.000 A 
ATOM     22  C   UNL     1       1.090  10.426  18.516  0.00  0.00    +0.000 A 
ATOM     23  C   UNL     1       1.874   9.456  17.884  0.00  0.00    +0.000 A 
ATOM     24  C   UNL     1       2.164   8.246  18.529  0.00  0.00    +0.000 A 
ATOM     25  C   UNL     1       1.669   8.001  19.819  0.00  0.00    +0.000 A 
ATOM     26  C   UNL     1       1.913   6.715  20.559  0.00  0.00    +0.000 C 
ATOM     27  C   UNL     1       0.886   8.987  20.441  0.00  0.00    +0.000 A 
ENDBRANCH  18  24
ENDBRANCH   1  19
TORSDOF 5
ENDMDL
MODEL 2
REMARK VINA RESULT:      -8.3      1.387      1.432
REMARK  Name = 
REMARK  8 active torsions:
REMARK  status: ('A' for Active; 'I' for Inactive)
REMARK    1  A    between atoms: C_1  and  C_2
REMARK    2  A    between atoms: C_5  and  C_6
REMARK    3  A    between atoms: C_7  and  C_8
REMARK    4  A    between atoms: C_12  and  S_13
REMARK    5  A    between atoms: S_13  and  N_16
REMARK    6  A    between atoms: N_16  and  C_17
REMARK    7  A    between atoms: C_20  and  C_21
REMARK    8  A    between atoms: C_24  and  C_25
REMARK                            x       y       z     vdW  Elec       q    Type
REMARK                         _______ _______ _______ _____ _____    ______ ____
ROOT
ATOM      1  C   UNL     1       4.954   6.443  16.844  0.00  0.00    +0.000 A 
ATOM      2  C   UNL     1       5.251   6.418  15.442  0.00  0.00    +0.000 A 
ATOM      3  C   UNL     1       6.097   5.391  15.098  0.00  0.00    +0.000 A 
ATOM      4  S   UNL     1       6.493   4.422  16.439  0.00  0.00    +0.000 S 
ATOM      5  C   UNL     1       5.573   5.397  17.518  0.00  0.00    +0.000 A 
ENDROOT
BRANCH   5   6
ATOM      6  S   UNL     1       5.633   4.870  19.226  0.00  0.00    +0.000 S 
ATOM      7  O   UNL     1       7.007   5.046  19.653  0.00  0.00    +0.000 OA
ATOM      8  O   UNL     1       4.573   5.541  19.943  0.00  0.00    +0.000 OA
BRANCH   6   9
ATOM      9  N   UNL     1       5.326   3.182  19.284  0.00  0.00    +0.000 N 
ATOM     10  H   UNL     1       5.382   2.976  20.284  0.00  0.00    +0.000 HD
BRANCH   9  11
ATOM     11  C   UNL     1       4.008   2.882  18.823  0.00  0.00    +0.000 A 
ATOM     12  O   UNL     1       3.683   2.761  17.506  0.00  0.00    +0.000 OA
ATOM     13  N   UNL     1       2.330   2.495  17.379  0.00  0.00    +0.000 NA
ATOM     14  C   UNL     1       1.838   2.498  18.626  0.00  0.00    +0.000 A 
ATOM     15  C   UNL     1       0.392   2.264  18.848  0.00  0.00    +0.000 C 
ATOM     16  C   UNL     1       2.860   2.758  19.565  0.00  0.00    +0.000 A 
ATOM     17 BR   UNL     1       2.617   2.940  21.410  0.00  0.00    +0.000 Br
ENDBRANCH   9  11
ENDBRANCH   6   9
ENDBRANCH   5   6
BRANCH   1  19
ATOM     18  C   UNL     1       2.928   7.259  18.001  0.00  0.00    +0.000 C 
ATOM     19  C   UNL     1       4.121   7.460  17.423  0.00  0.00    +0.000 C 
BRANCH  18  24
ATOM     20  C   UNL     1      -0.487  11.349  20.219  0.00  0.00    +0.000 C 
ATOM     21  C   UNL     1       0.428  10.306  19.648  0.00  0.00    +0.000 A 
ATOM     22  C   UNL     1       1.034  10.478  18.401  0.00  0.00    +0.000 A 
ATOM     23  C   UNL     1       1.876   9.487  17.888  0.00  0.00    +0.000 A 
ATOM     24  C   UNL     1       2.118   8.313  18.614  0.00  0.00    +0.000 A 
ATOM     25  C   UNL     1       1.518   8.126  19.868  0.00  0.00    +0.000 A 
ATOM     26  C   UNL     1       1.706   6.881  20.689  0.00  0.00    +0.000 C 
ATOM     27  C   UNL     1       0.677   9.133  20.372  0.00  0.00    +0.000 A 
ENDBRANCH  18  24
ENDBRANCH   1  19
TORSDOF 5
ENDMDL
MODEL 3
REMARK VINA RESULT:      -8.2      2.449      4.810
REMARK  Name = 
REMARK  8 active torsions:
REMARK  status: ('A' for Active; 'I' for Inactive)
REMARK    1  A    between atoms: C_1  and  C_2
REMARK    2  A    between atoms: C_5  and  C_6
REMARK    3  A    between atoms: C_7  and  C_8
REMARK    4  A    between atoms: C_12  and  S_13
REMARK    5  A    between atoms: S_13  and  N_16
REMARK    6  A    between atoms: N_16  and  C_17
REMARK    7  A    between atoms: C_20  and  C_21
REMARK    8  A    between atoms: C_24  and  C_25
REMARK                            x       y       z     vdW  Elec       q    Type
REMARK                         _______ _______ _______ _____ _____    ______ ____
ROOT
ATOM      1  C   UNL     1       2.308   4.216  18.375  0.00  0.00    +0.000 A 
ATOM      2  C   UNL     1       1.376   3.203  18.775  0.00  0.00    +0.000 A 
ATOM      3  C   UNL     1       1.899   1.935  18.683  0.00  0.00    +0.000 A 
ATOM      4  S   UNL     1       3.522   1.957  18.172  0.00  0.00    +0.000 S 
ATOM      5  C   UNL     1       3.535   3.671  18.017  0.00  0.00    +0.000 A 
ENDROOT
BRANCH   5   6
ATOM      6  S   UNL     1       5.081   4.348  17.426  0.00  0.00    +0.000 S 
ATOM      7  O   UNL     1       4.758   5.630  16.831  0.00  0.00    +0.000 OA
ATOM      8  O   UNL     1       6.043   4.285  18.504  0.00  0.00    +0.000 OA
BRANCH   6   9
ATOM      9  N   UNL     1       5.654   3.357  16.147  0.00  0.00    +0.000 N 
ATOM     10  H   UNL     1       4.792   3.090  15.665  0.00  0.00    +0.000 HD
BRANCH   9  11
ATOM     11  C   UNL     1       6.475   4.103  15.246  0.00  0.00    +0.000 A 
ATOM     12  O   UNL     1       7.437   4.975  15.656  0.00  0.00    +0.000 OA
ATOM     13  N   UNL     1       8.040   5.558  14.554  0.00  0.00    +0.000 NA
ATOM     14  C   UNL     1       7.405   5.062  13.484  0.00  0.00    +0.000 A 
ATOM     15  C   UNL     1       7.796   5.505  12.124  0.00  0.00    +0.000 C 
ATOM     16  C   UNL     1       6.397   4.155  13.877  0.00  0.00    +0.000 A 
ATOM     17 BR   UNL     1       5.206   3.289  12.723  0.00  0.00    +0.000 Br
ENDBRANCH   9  11
ENDBRANCH   6   9
ENDBRANCH   5   6
BRANCH   1  19
ATOM     18  C   UNL     1       2.408   6.543  19.200  0.00  0.00    +0.000 C 
ATOM     19  C   UNL     1       1.951   5.607  18.356  0.00  0.00    +0.000 C 
BRANCH  18  24
ATOM     20  C   UNL     1       0.788  12.063  18.736  0.00  0.00    +0.000 C 
ATOM     21  C   UNL     1       1.241  10.638  18.860  0.00  0.00    +0.000 A 
ATOM     22  C   UNL     1       1.941  10.008  17.828  0.00  0.00    +0.000 A 
ATOM     23  C   UNL     1       2.345   8.677  17.965  0.00  0.00    +0.000 A 
ATOM     24  C   UNL     1       2.052   7.961  19.133  0.00  0.00    +0.000 A 
ATOM     25  C   UNL     1       1.351   8.580  20.179  0.00  0.00    +0.000 A 
ATOM     26  C   UNL     1       0.975   7.867  21.448  0.00  0.00    +0.000 C 
ATOM     27  C   UNL     1       0.955   9.920  20.028  0.00  0.00    +0.000 A 
ENDBRANCH  18  24
ENDBRANCH   1  19
TORSDOF 5
ENDMDL
MODEL 4
REMARK VINA RESULT:      -8.1      2.161      4.518
REMARK  Name = 
REMARK  8 active torsions:
REMARK  status: ('A' for Active; 'I' for Inactive)
REMARK    1  A    between atoms: C_1  and  C_2
REMARK    2  A    between atoms: C_5  and  C_6
REMARK    3  A    between atoms: C_7  and  C_8
REMARK    4  A    between atoms: C_12  and  S_13
REMARK    5  A    between atoms: S_13  and  N_16
REMARK    6  A    between atoms: N_16  and  C_17
REMARK    7  A    between atoms: C_20  and  C_21
REMARK    8  A    between atoms: C_24  and  C_25
REMARK                            x       y       z     vdW  Elec       q    Type
REMARK                         _______ _______ _______ _____ _____    ______ ____
ROOT
ATOM      1  C   UNL     1       2.027   4.375  20.462  0.00  0.00    +0.000 A 
ATOM      2  C   UNL     1       2.016   3.662  21.706  0.00  0.00    +0.000 A 
ATOM      3  C   UNL     1       2.661   2.451  21.628  0.00  0.00    +0.000 A 
ATOM      4  S   UNL     1       3.327   2.188  20.084  0.00  0.00    +0.000 S 
ATOM      5  C   UNL     1       2.717   3.678  19.478  0.00  0.00    +0.000 A 
ENDROOT
BRANCH   5   6
ATOM      6  S   UNL     1       3.082   3.980  17.753  0.00  0.00    +0.000 S 
ATOM      7  O   UNL     1       2.200   3.114  16.996  0.00  0.00    +0.000 OA
ATOM      8  O   UNL     1       3.045   5.408  17.527  0.00  0.00    +0.000 OA
BRANCH   6   9
ATOM      9  N   UNL     1       4.678   3.435  17.433  0.00  0.00    +0.000 N 
ATOM     10  H   UNL     1       4.722   3.450  16.412  0.00  0.00    +0.000 HD
BRANCH   9  11
ATOM     11  C   UNL     1       5.648   4.349  17.950  0.00  0.00    +0.000 A 
ATOM     12  O   UNL     1       6.089   4.325  19.238  0.00  0.00    +0.000 OA
ATOM     13  N   UNL     1       7.002   5.347  19.439  0.00  0.00    +0.000 NA
ATOM     14  C   UNL     1       7.073   6.009  18.275  0.00  0.00    +0.000 A 
ATOM     15  C   UNL     1       7.956   7.192  18.154  0.00  0.00    +0.000 C 
ATOM     16  C   UNL     1       6.219   5.424  17.315  0.00  0.00    +0.000 A 
ATOM     17 BR   UNL     1       5.933   6.067  15.582  0.00  0.00    +0.000 Br
ENDBRANCH   9  11
ENDBRANCH   6   9
ENDBRANCH   5   6
BRANCH   1  19
ATOM     18  C   UNL     1       1.876   6.832  20.682  0.00  0.00    +0.000 C 
ATOM     19  C   UNL     1       1.373   5.645  20.313  0.00  0.00    +0.000 C 
BRANCH  18  24
ATOM     20  C   UNL     1      -0.603  12.012  20.108  0.00  0.00    +0.000 C 
ATOM     21  C   UNL     1       0.011  10.651  20.253  0.00  0.00    +0.000 A 
ATOM     22  C   UNL     1      -0.186   9.887  21.405  0.00  0.00    +0.000 A 
ATOM     23  C   UNL     1       0.404   8.625  21.520  0.00  0.00    +0.000 A 
ATOM     24  C   UNL     1       1.199   8.114  20.485  0.00  0.00    +0.000 A 
ATOM     25  C   UNL     1       1.406   8.869  19.321  0.00  0.00    +0.000 A 
ATOM     26  C   UNL     1       2.270   8.401  18.183  0.00  0.00    +0.000 C 
ATOM     27  C   UNL     1       0.803  10.134  19.219  0.00  0.00    +0.000 A 
ENDBRANCH  18  24
ENDBRANCH   1  19
TORSDOF 5
ENDMDL
MODEL 5
REMARK VINA RESULT:      -8.0      2.234      4.355
REMARK  Name = 
REMARK  8 active torsions:
REMARK  status: ('A' for Active; 'I' for Inactive)
REMARK    1  A    between atoms: C_1  and  C_2
REMARK    2  A    between atoms: C_5  and  C_6
REMARK    3  A    between atoms: C_7  and  C_8
REMARK    4  A    between atoms: C_12  and  S_13
REMARK    5  A    between atoms: S_13  and  N_16
REMARK    6  A    between atoms: N_16  and  C_17
REMARK    7  A    between atoms: C_20  and  C_21
REMARK    8  A    between atoms: C_24  and  C_25
REMARK                            x       y       z     vdW  Elec       q    Type
REMARK                         _______ _______ _______ _____ _____    ______ ____
ROOT
ATOM      1  C   UNL     1       2.078   4.524  20.286  0.00  0.00    +0.000 A 
ATOM      2  C   UNL     1       1.923   3.922  21.578  0.00  0.00    +0.000 A 
ATOM      3  C   UNL     1       2.457   2.657  21.641  0.00  0.00    +0.000 A 
ATOM      4  S   UNL     1       3.192   2.207  20.174  0.00  0.00    +0.000 S 
ATOM      5  C   UNL     1       2.762   3.689  19.411  0.00  0.00    +0.000 A 
ENDROOT
BRANCH   5   6
ATOM      6  S   UNL     1       3.263   3.811  17.698  0.00  0.00    +0.000 S 
ATOM      7  O   UNL     1       2.466   2.840  16.975  0.00  0.00    +0.000 OA
ATOM      8  O   UNL     1       3.213   5.203  17.312  0.00  0.00    +0.000 OA
BRANCH   6   9
ATOM      9  N   UNL     1       4.892   3.284  17.570  0.00  0.00    +0.000 N 
ATOM     10  H   UNL     1       5.037   3.243  16.559  0.00  0.00    +0.000 HD
BRANCH   9  11
ATOM     11  C   UNL     1       5.789   4.246  18.128  0.00  0.00    +0.000 A 
ATOM     12  O   UNL     1       6.018   4.371  19.464  0.00  0.00    +0.000 OA
ATOM     13  N   UNL     1       6.913   5.403  19.691  0.00  0.00    +0.000 NA
ATOM     14  C   UNL     1       7.186   5.922  18.487  0.00  0.00    +0.000 A 
ATOM     15  C   UNL     1       8.108   7.077  18.374  0.00  0.00    +0.000 C 
ATOM     16  C   UNL     1       6.483   5.234  17.475  0.00  0.00    +0.000 A 
ATOM     17 BR   UNL     1       6.495   5.669  15.656  0.00  0.00    +0.000 Br
ENDBRANCH   9  11
ENDBRANCH   6   9
ENDBRANCH   5   6
BRANCH   1  19
ATOM     18  C   UNL     1       2.217   6.987  20.135  0.00  0.00    +0.000 C 
ATOM     19  C   UNL     1       1.556   5.829  19.992  0.00  0.00    +0.000 C 
BRANCH  18  24
ATOM     20  C   UNL     1      -0.174  12.024  18.646  0.00  0.00    +0.000 C 
ATOM     21  C   UNL     1       0.478  10.728  19.029  0.00  0.00    +0.000 A 
ATOM     22  C   UNL     1       1.116   9.929  18.078  0.00  0.00    +0.000 A 
ATOM     23  C   UNL     1       1.709   8.722  18.458  0.00  0.00    +0.000 A 
ATOM     24  C   UNL     1       1.669   8.300  19.794  0.00  0.00    +0.000 A 
ATOM     25  C   UNL     1       1.032   9.091  20.762  0.00  0.00    +0.000 A 
ATOM     26  C   UNL     1       0.922   8.689  22.206  0.00  0.00    +0.000 C 
ATOM     27  C   UNL     1       0.444  10.303  20.364  0.00  0.00    +0.000 A 
ENDBRANCH  18  24
ENDBRANCH   1  19
TORSDOF 5
ENDMDL
MODEL 6
REMARK VINA RESULT:      -8.0      2.325      4.512
REMARK  Name = 
REMARK  8 active torsions:
REMARK  status: ('A' for Active; 'I' for Inactive)
REMARK    1  A    between atoms: C_1  and  C_2
REMARK    2  A    between atoms: C_5  and  C_6
REMARK    3  A    between atoms: C_7  and  C_8
REMARK    4  A    between atoms: C_12  and  S_13
REMARK    5  A    between atoms: S_13  and  N_16
REMARK    6  A    between atoms: N_16  and  C_17
REMARK    7  A    between atoms: C_20  and  C_21
REMARK    8  A    between atoms: C_24  and  C_25
REMARK                            x       y       z     vdW  Elec       q    Type
REMARK                         _______ _______ _______ _____ _____    ______ ____
ROOT
ATOM      1  C   UNL     1       1.889   4.440  20.580  0.00  0.00    +0.000 A 
ATOM      2  C   UNL     1       2.091   3.669  21.772  0.00  0.00    +0.000 A 
ATOM      3  C   UNL     1       2.590   2.414  21.514  0.00  0.00    +0.000 A 
ATOM      4  S   UNL     1       2.869   2.174  19.853  0.00  0.00    +0.000 S 
ATOM      5  C   UNL     1       2.278   3.738  19.445  0.00  0.00    +0.000 A 
ENDROOT
BRANCH   5   6
ATOM      6  S   UNL     1       2.276   4.094  17.692  0.00  0.00    +0.000 S 
ATOM      7  O   UNL     1       2.942   2.976  17.053  0.00  0.00    +0.000 OA
ATOM      8  O   UNL     1       0.927   4.438  17.302  0.00  0.00    +0.000 OA
BRANCH   6   9
ATOM      9  N   UNL     1       3.273   5.465  17.416  0.00  0.00    +0.000 N 
ATOM     10  H   UNL     1       2.829   6.186  17.990  0.00  0.00    +0.000 HD
BRANCH   9  11
ATOM     11  C   UNL     1       4.599   5.242  17.898  0.00  0.00    +0.000 A 
ATOM     12  O   UNL     1       4.981   5.483  19.183  0.00  0.00    +0.000 OA
ATOM     13  N   UNL     1       6.326   5.194  19.334  0.00  0.00    +0.000 NA
ATOM     14  C   UNL     1       6.759   4.820  18.122  0.00  0.00    +0.000 A 
ATOM     15  C   UNL     1       8.183   4.460  17.927  0.00  0.00    +0.000 C 
ATOM     16  C   UNL     1       5.705   4.855  17.184  0.00  0.00    +0.000 A 
ATOM     17 BR   UNL     1       5.868   4.494  15.356  0.00  0.00    +0.000 Br
ENDBRANCH   9  11
ENDBRANCH   6   9
ENDBRANCH   5   6
BRANCH   1  19
ATOM     18  C   UNL     1       2.021   6.903  20.433  0.00  0.00    +0.000 C 
ATOM     19  C   UNL     1       1.337   5.764  20.620  0.00  0.00    +0.000 C 
BRANCH  18  24
ATOM     20  C   UNL     1      -0.096  12.268  20.637  0.00  0.00    +0.000 C 
ATOM     21  C   UNL     1       0.423  10.861  20.587  0.00  0.00    +0.000 A 
ATOM     22  C   UNL     1       0.451  10.059  21.730  0.00  0.00    +0.000 A 
ATOM     23  C   UNL     1       0.947   8.754  21.659  0.00  0.00    +0.000 A 
ATOM     24  C   UNL     1       1.422   8.238  20.446  0.00  0.00    +0.000 A 
ATOM     25  C   UNL     1       1.400   9.031  19.289  0.00  0.00    +0.000 A 
ATOM     26  C   UNL     1       1.920   8.558  17.961  0.00  0.00    +0.000 C 
ATOM     27  C   UNL     1       0.895  10.340  19.376  0.00  0.00    +0.000 A 
ENDBRANCH  18  24
ENDBRANCH   1  19
TORSDOF 5
ENDMDL
MODEL 7
REMARK VINA RESULT:      -7.6      0.998      1.721
REMARK  Name = 
REMARK  8 active torsions:
REMARK  status: ('A' for Active; 'I' for Inactive)
REMARK    1  A    between atoms: C_1  and  C_2
REMARK    2  A    between atoms: C_5  and  C_6
REMARK    3  A    between atoms: C_7  and  C_8
REMARK    4  A    between atoms: C_12  and  S_13
REMARK    5  A    between atoms: S_13  and  N_16
REMARK    6  A    between atoms: N_16  and  C_17
REMARK    7  A    between atoms: C_20  and  C_21
REMARK    8  A    between atoms: C_24  and  C_25
REMARK                            x       y       z     vdW  Elec       q    Type
REMARK                         _______ _______ _______ _____ _____    ______ ____
ROOT
ATOM      1  C   UNL     1       4.525   6.635  17.198  0.00  0.00    +0.000 A 
ATOM      2  C   UNL     1       4.434   7.175  15.873  0.00  0.00    +0.000 A 
ATOM      3  C   UNL     1       5.328   6.597  15.003  0.00  0.00    +0.000 A 
ATOM      4  S   UNL     1       6.240   5.372  15.753  0.00  0.00    +0.000 S 
ATOM      5  C   UNL     1       5.482   5.630  17.277  0.00  0.00    +0.000 A 
ENDROOT
BRANCH   5   6
ATOM      6  S   UNL     1       6.094   4.585  18.594  0.00  0.00    +0.000 S 
ATOM      7  O   UNL     1       7.495   4.353  18.306  0.00  0.00    +0.000 OA
ATOM      8  O   UNL     1       5.715   5.181  19.856  0.00  0.00    +0.000 OA
BRANCH   6   9
ATOM      9  N   UNL     1       5.322   3.057  18.477  0.00  0.00    +0.000 N 
ATOM     10  H   UNL     1       6.096   2.402  18.604  0.00  0.00    +0.000 HD
BRANCH   9  11
ATOM     11  C   UNL     1       4.381   2.872  19.536  0.00  0.00    +0.000 A 
ATOM     12  O   UNL     1       4.688   2.260  20.713  0.00  0.00    +0.000 OA
ATOM     13  N   UNL     1       3.566   2.212  21.522  0.00  0.00    +0.000 NA
ATOM     14  C   UNL     1       2.574   2.761  20.807  0.00  0.00    +0.000 A 
ATOM     15  C   UNL     1       1.211   2.845  21.381  0.00  0.00    +0.000 C 
ATOM     16  C   UNL     1       3.042   3.173  19.540  0.00  0.00    +0.000 A 
ATOM     17 BR   UNL     1       1.989   3.911  18.182  0.00  0.00    +0.000 Br
ENDBRANCH   9  11
ENDBRANCH   6   9
ENDBRANCH   5   6
BRANCH   1  19
ATOM     18  C   UNL     1       2.608   7.880  18.136  0.00  0.00    +0.000 C 
ATOM     19  C   UNL     1       3.709   7.126  18.272  0.00  0.00    +0.000 C 
BRANCH  18  24
ATOM     20  C   UNL     1      -0.420   9.731  22.687  0.00  0.00    +0.000 C 
ATOM     21  C   UNL     1       0.342   9.227  21.497  0.00  0.00    +0.000 A 
ATOM     22  C   UNL     1       0.977   7.983  21.517  0.00  0.00    +0.000 A 
ATOM     23  C   UNL     1       1.688   7.540  20.399  0.00  0.00    +0.000 A 
ATOM     24  C   UNL     1       1.776   8.337  19.250  0.00  0.00    +0.000 A 
ATOM     25  C   UNL     1       1.144   9.589  19.214  0.00  0.00    +0.000 A 
ATOM     26  C   UNL     1       1.219  10.511  18.029  0.00  0.00    +0.000 C 
ATOM     27  C   UNL     1       0.429  10.018  20.344  0.00  0.00    +0.000 A 
ENDBRANCH  18  24
ENDBRANCH   1  19
TORSDOF 5
ENDMDL
MODEL 8
REMARK VINA RESULT:      -7.5      1.516      2.048
REMARK  Name = 
REMARK  8 active torsions:
REMARK  status: ('A' for Active; 'I' for Inactive)
REMARK    1  A    between atoms: C_1  and  C_2
REMARK    2  A    between atoms: C_5  and  C_6
REMARK    3  A    between atoms: C_7  and  C_8
REMARK    4  A    between atoms: C_12  and  S_13
REMARK    5  A    between atoms: S_13  and  N_16
REMARK    6  A    between atoms: N_16  and  C_17
REMARK    7  A    between atoms: C_20  and  C_21
REMARK    8  A    between atoms: C_24  and  C_25
REMARK                            x       y       z     vdW  Elec       q    Type
REMARK                         _______ _______ _______ _____ _____    ______ ____
ROOT
ATOM      1  C   UNL     1       4.665   6.484  16.949  0.00  0.00    +0.000 A 
ATOM      2  C   UNL     1       4.732   6.668  15.528  0.00  0.00    +0.000 A 
ATOM      3  C   UNL     1       5.633   5.822  14.926  0.00  0.00    +0.000 A 
ATOM      4  S   UNL     1       6.359   4.770  16.049  0.00  0.00    +0.000 S 
ATOM      5  C   UNL     1       5.510   5.467  17.374  0.00  0.00    +0.000 A 
ENDROOT
BRANCH   5   6
ATOM      6  S   UNL     1       5.912   4.757  18.966  0.00  0.00    +0.000 S 
ATOM      7  O   UNL     1       7.360   4.707  19.031  0.00  0.00    +0.000 OA
ATOM      8  O   UNL     1       5.178   5.479  19.980  0.00  0.00    +0.000 OA
BRANCH   6   9
ATOM      9  N   UNL     1       5.376   3.126  18.983  0.00  0.00    +0.000 N 
ATOM     10  H   UNL     1       5.459   2.872  19.970  0.00  0.00    +0.000 HD
BRANCH   9  11
ATOM     11  C   UNL     1       4.004   3.032  18.596  0.00  0.00    +0.000 A 
ATOM     12  O   UNL     1       3.582   3.113  17.304  0.00  0.00    +0.000 OA
ATOM     13  N   UNL     1       2.202   3.013  17.255  0.00  0.00    +0.000 NA
ATOM     14  C   UNL     1       1.796   2.913  18.528  0.00  0.00    +0.000 A 
ATOM     15  C   UNL     1       0.350   2.811  18.835  0.00  0.00    +0.000 C 
ATOM     16  C   UNL     1       2.900   2.941  19.407  0.00  0.00    +0.000 A 
ATOM     17 BR   UNL     1       2.801   2.915  21.275  0.00  0.00    +0.000 Br
ENDBRANCH   9  11
ENDBRANCH   6   9
ENDBRANCH   5   6
BRANCH   1  19
ATOM     18  C   UNL     1       2.765   6.856  18.485  0.00  0.00    +0.000 C 
ATOM     19  C   UNL     1       3.816   7.294  17.776  0.00  0.00    +0.000 C 
BRANCH  18  24
ATOM     20  C   UNL     1      -0.247  10.241  22.059  0.00  0.00    +0.000 C 
ATOM     21  C   UNL     1       0.509   9.342  21.126  0.00  0.00    +0.000 A 
ATOM     22  C   UNL     1       0.922   8.068  21.525  0.00  0.00    +0.000 A 
ATOM     23  C   UNL     1       1.632   7.252  20.640  0.00  0.00    +0.000 A 
ATOM     24  C   UNL     1       1.939   7.701  19.348  0.00  0.00    +0.000 A 
ATOM     25  C   UNL     1       1.530   8.977  18.933  0.00  0.00    +0.000 A 
ATOM     26  C   UNL     1       1.849   9.538  17.575  0.00  0.00    +0.000 C 
ATOM     27  C   UNL     1       0.814   9.784  19.833  0.00  0.00    +0.000 A 
ENDBRANCH  18  24
ENDBRANCH   1  19
TORSDOF 5
ENDMDL
MODEL 9
REMARK VINA RESULT:      -7.4      2.296      4.830
REMARK  Name = 
REMARK  8 active torsions:
REMARK  status: ('A' for Active; 'I' for Inactive)
REMARK    1  A    between atoms: C_1  and  C_2
REMARK    2  A    between atoms: C_5  and  C_6
REMARK    3  A    between atoms: C_7  and  C_8
REMARK    4  A    between atoms: C_12  and  S_13
REMARK    5  A    between atoms: S_13  and  N_16
REMARK    6  A    between atoms: N_16  and  C_17
REMARK    7  A    between atoms: C_20  and  C_21
REMARK    8  A    between atoms: C_24  and  C_25
REMARK                            x       y       z     vdW  Elec       q    Type
REMARK                         _______ _______ _______ _____ _____    ______ ____
ROOT
ATOM      1  C   UNL     1       2.096   4.609  20.596  0.00  0.00    +0.000 A 
ATOM      2  C   UNL     1       1.740   3.602  21.554  0.00  0.00    +0.000 A 
ATOM      3  C   UNL     1       2.532   2.482  21.464  0.00  0.00    +0.000 A 
ATOM      4  S   UNL     1       3.735   2.653  20.273  0.00  0.00    +0.000 S 
ATOM      5  C   UNL     1       3.182   4.219  19.823  0.00  0.00    +0.000 A 
ENDROOT
BRANCH   5   6
ATOM      6  S   UNL     1       4.095   4.968  18.479  0.00  0.00    +0.000 S 
ATOM      7  O   UNL     1       3.251   4.852  17.305  0.00  0.00    +0.000 OA
ATOM      8  O   UNL     1       4.542   6.273  18.909  0.00  0.00    +0.000 OA
BRANCH   6   9
ATOM      9  N   UNL     1       5.484   4.009  18.167  0.00  0.00    +0.000 N 
ATOM     10  H   UNL     1       5.141   3.058  18.318  0.00  0.00    +0.000 HD
BRANCH   9  11
ATOM     11  C   UNL     1       5.903   4.137  16.807  0.00  0.00    +0.000 A 
ATOM     12  O   UNL     1       5.672   3.189  15.858  0.00  0.00    +0.000 OA
ATOM     13  N   UNL     1       6.219   3.590  14.651  0.00  0.00    +0.000 NA
ATOM     14  C   UNL     1       6.815   4.766  14.892  0.00  0.00    +0.000 A 
ATOM     15  C   UNL     1       7.528   5.468  13.799  0.00  0.00    +0.000 C 
ATOM     16  C   UNL     1       6.656   5.138  16.245  0.00  0.00    +0.000 A 
ATOM     17 BR   UNL     1       7.395   6.658  17.046  0.00  0.00    +0.000 Br
ENDBRANCH   9  11
ENDBRANCH   6   9
ENDBRANCH   5   6
BRANCH   1  19
ATOM     18  C   UNL     1       1.880   7.069  20.674  0.00  0.00    +0.000 C 
ATOM     19  C   UNL     1       1.369   5.843  20.492  0.00  0.00    +0.000 C 
BRANCH  18  24
ATOM     20  C   UNL     1      -0.913  12.104  20.275  0.00  0.00    +0.000 C 
ATOM     21  C   UNL     1      -0.217  10.779  20.378  0.00  0.00    +0.000 A 
ATOM     22  C   UNL     1      -0.273  10.019  21.548  0.00  0.00    +0.000 A 
ATOM     23  C   UNL     1       0.391   8.792  21.622  0.00  0.00    +0.000 A 
ATOM     24  C   UNL     1       1.121   8.312  20.526  0.00  0.00    +0.000 A 
ATOM     25  C   UNL     1       1.187   9.063  19.343  0.00  0.00    +0.000 A 
ATOM     26  C   UNL     1       1.976   8.627  18.139  0.00  0.00    +0.000 C 
ATOM     27  C   UNL     1       0.511  10.293  19.284  0.00  0.00    +0.000 A 
ENDBRANCH  18  24
ENDBRANCH   1  19
TORSDOF 5
ENDMDL
