MODEL 1
REMARK VINA RESULT:      -8.4      0.000      0.000
REMARK  Name = 
REMARK  4 active torsions:
REMARK  status: ('A' for Active; 'I' for Inactive)
REMARK    1  A    between atoms: C_1  and  C_2
REMARK    2  A    between atoms: C_2  and  C_3
REMARK    3  A    between atoms: C_2  and  C_4
REMARK    4  A    between atoms: N_15  and  C_16
REMARK                            x       y       z     vdW  Elec       q    Type
REMARK                         _______ _______ _______ _____ _____    ______ ____
ROOT
ATOM      1  C   UNL     1      -0.409  11.548  18.412  0.00  0.00    +0.000 C 
ATOM      2  C   UNL     1      -0.711  13.031  18.637  0.00  0.00    +0.000 C 
ATOM      3  O   UNL     1       0.322  13.528  19.484  0.00  0.00    +0.000 OA
ATOM      4  C   UNL     1       0.894  12.457  20.125  0.00  0.00    +0.000 C 
ATOM      5  O   UNL     1       1.656  12.580  21.056  0.00  0.00    +0.000 OA
ATOM      6  N   UNL     1       0.467  11.292  19.521  0.00  0.00    +0.000 N 
ATOM      7  C   UNL     1       0.979  10.036  19.873  0.00  0.00    +0.000 A 
ATOM      8  C   UNL     1       0.690   9.597  21.147  0.00  0.00    +0.000 A 
ATOM      9  C   UNL     1       1.045   8.307  21.422  0.00  0.00    +0.000 A 
ATOM     10  N   UNL     1       1.686   7.519  20.544  0.00  0.00    +0.000 NA
ATOM     11  C   UNL     1       1.945   8.022  19.326  0.00  0.00    +0.000 A 
ATOM     12  N   UNL     1       2.514   7.193  18.371  0.00  0.00    +0.000 N 
ATOM     13  N   UNL     1       1.583   9.261  18.946  0.00  0.00    +0.000 NA
ATOM     14  H   UNL     1       2.755   7.681  17.522  0.00  0.00    +0.000 HD
ENDROOT
BRANCH  12  15
ATOM     15  C   UNL     1       3.367   6.113  18.833  0.00  0.00    +0.000 C 
ATOM     16  C   UNL     1       2.586   4.776  18.835  0.00  0.00    +0.000 C 
ATOM     17  C   UNL     1       2.721   4.185  17.425  0.00  0.00    +0.000 C 
ATOM     18  C   UNL     1       4.090   4.655  17.058  0.00  0.00    +0.000 A 
ATOM     19  C   UNL     1       4.941   4.109  16.110  0.00  0.00    +0.000 A 
ATOM     20  C   UNL     1       6.210   4.666  15.966  0.00  0.00    +0.000 A 
ATOM     21  C   UNL     1       6.598   5.763  16.752  0.00  0.00    +0.000 A 
ATOM     22  C   UNL     1       5.718   6.325  17.687  0.00  0.00    +0.000 A 
ATOM     23  C   UNL     1       4.457   5.764  17.836  0.00  0.00    +0.000 A 
ENDBRANCH  12  15
BRANCH   1  25
ATOM     24  C   UNL     1      -2.991  11.529  18.556  0.00  0.00    +0.000 C 
ATOM     25  C   UNL     1      -1.714  10.691  18.392  0.00  0.00    +0.000 C 
ATOM     26  C   UNL     1      -1.871   9.872  17.104  0.00  0.00    +0.000 C 
ENDBRANCH   1  25
TORSDOF 2
ENDMDL
MODEL 2
REMARK VINA RESULT:      -8.2      3.205      8.021
REMARK  Name = 
REMARK  4 active torsions:
REMARK  status: ('A' for Active; 'I' for Inactive)
REMARK    1  A    between atoms: C_1  and  C_2
REMARK    2  A    between atoms: C_2  and  C_3
REMARK    3  A    between atoms: C_2  and  C_4
REMARK    4  A    between atoms: N_15  and  C_16
REMARK                            x       y       z     vdW  Elec       q    Type
REMARK                         _______ _______ _______ _____ _____    ______ ____
ROOT
ATOM      1  C   UNL     1       5.926   6.329  16.779  0.00  0.00    +0.000 C 
ATOM      2  C   UNL     1       6.626   5.256  15.942  0.00  0.00    +0.000 C 
ATOM      3  O   UNL     1       5.629   4.297  15.601  0.00  0.00    +0.000 OA
ATOM      4  C   UNL     1       4.591   4.433  16.489  0.00  0.00    +0.000 C 
ATOM      5  O   UNL     1       3.695   3.626  16.582  0.00  0.00    +0.000 OA
ATOM      6  N   UNL     1       4.756   5.608  17.196  0.00  0.00    +0.000 N 
ATOM      7  C   UNL     1       3.788   6.085  18.089  0.00  0.00    +0.000 A 
ATOM      8  C   UNL     1       3.573   5.323  19.217  0.00  0.00    +0.000 A 
ATOM      9  C   UNL     1       2.756   5.881  20.159  0.00  0.00    +0.000 A 
ATOM     10  N   UNL     1       2.148   7.066  19.995  0.00  0.00    +0.000 NA
ATOM     11  C   UNL     1       2.396   7.745  18.863  0.00  0.00    +0.000 A 
ATOM     12  N   UNL     1       1.859   9.014  18.717  0.00  0.00    +0.000 N 
ATOM     13  N   UNL     1       3.230   7.302  17.904  0.00  0.00    +0.000 NA
ATOM     14  H   UNL     1       2.022   9.407  17.802  0.00  0.00    +0.000 HD
ENDROOT
BRANCH  12  15
ATOM     15  C   UNL     1       0.610   9.304  19.398  0.00  0.00    +0.000 C 
ATOM     16  C   UNL     1       0.836  10.362  20.506  0.00  0.00    +0.000 C 
ATOM     17  C   UNL     1       0.708  11.737  19.835  0.00  0.00    +0.000 C 
ATOM     18  C   UNL     1      -0.321  11.442  18.795  0.00  0.00    +0.000 A 
ATOM     19  C   UNL     1      -1.160  12.345  18.160  0.00  0.00    +0.000 A 
ATOM     20  C   UNL     1      -2.099  11.850  17.258  0.00  0.00    +0.000 A 
ATOM     21  C   UNL     1      -2.171  10.473  16.992  0.00  0.00    +0.000 A 
ATOM     22  C   UNL     1      -1.298   9.572  17.617  0.00  0.00    +0.000 A 
ATOM     23  C   UNL     1      -0.368  10.066  18.522  0.00  0.00    +0.000 A 
ENDBRANCH  12  15
BRANCH   1  25
ATOM     24  C   UNL     1       7.691   5.727  18.570  0.00  0.00    +0.000 C 
ATOM     25  C   UNL     1       6.835   6.837  17.941  0.00  0.00    +0.000 C 
ATOM     26  C   UNL     1       7.792   7.956  17.507  0.00  0.00    +0.000 C 
ENDBRANCH   1  25
TORSDOF 2
ENDMDL
MODEL 3
REMARK VINA RESULT:      -7.7      1.222      1.849
REMARK  Name = 
REMARK  4 active torsions:
REMARK  status: ('A' for Active; 'I' for Inactive)
REMARK    1  A    between atoms: C_1  and  C_2
REMARK    2  A    between atoms: C_2  and  C_3
REMARK    3  A    between atoms: C_2  and  C_4
REMARK    4  A    between atoms: N_15  and  C_16
REMARK                            x       y       z     vdW  Elec       q    Type
REMARK                         _______ _______ _______ _____ _____    ______ ____
ROOT
ATOM      1  C   UNL     1      -0.326  11.578  18.452  0.00  0.00    +0.000 C 
ATOM      2  C   UNL     1      -0.436  13.104  18.415  0.00  0.00    +0.000 C 
ATOM      3  O   UNL     1       0.670  13.605  19.161  0.00  0.00    +0.000 OA
ATOM      4  C   UNL     1       1.120  12.598  19.978  0.00  0.00    +0.000 C 
ATOM      5  O   UNL     1       1.912  12.783  20.873  0.00  0.00    +0.000 OA
ATOM      6  N   UNL     1       0.537  11.409  19.587  0.00  0.00    +0.000 N 
ATOM      7  C   UNL     1       0.899  10.178  20.153  0.00  0.00    +0.000 A 
ATOM      8  C   UNL     1       0.587  10.006  21.484  0.00  0.00    +0.000 A 
ATOM      9  C   UNL     1       0.786   8.749  21.979  0.00  0.00    +0.000 A 
ATOM     10  N   UNL     1       1.303   7.747  21.251  0.00  0.00    +0.000 NA
ATOM     11  C   UNL     1       1.594   7.994  19.964  0.00  0.00    +0.000 A 
ATOM     12  N   UNL     1       2.033   6.948  19.167  0.00  0.00    +0.000 N 
ATOM     13  N   UNL     1       1.380   9.185  19.374  0.00  0.00    +0.000 NA
ATOM     14  H   UNL     1       2.313   7.247  18.246  0.00  0.00    +0.000 HD
ENDROOT
BRANCH  12  15
ATOM     15  C   UNL     1       2.757   5.866  19.809  0.00  0.00    +0.000 C 
ATOM     16  C   UNL     1       1.855   5.162  20.853  0.00  0.00    +0.000 C 
ATOM     17  C   UNL     1       1.061   4.088  20.096  0.00  0.00    +0.000 C 
ATOM     18  C   UNL     1       2.058   3.686  19.060  0.00  0.00    +0.000 A 
ATOM     19  C   UNL     1       2.108   2.492  18.358  0.00  0.00    +0.000 A 
ATOM     20  C   UNL     1       3.166   2.292  17.473  0.00  0.00    +0.000 A 
ATOM     21  C   UNL     1       4.139   3.288  17.293  0.00  0.00    +0.000 A 
ATOM     22  C   UNL     1       4.062   4.504  17.986  0.00  0.00    +0.000 A 
ATOM     23  C   UNL     1       3.012   4.699  18.873  0.00  0.00    +0.000 A 
ENDBRANCH  12  15
BRANCH   1  25
ATOM     24  C   UNL     1      -2.847  11.893  18.931  0.00  0.00    +0.000 C 
ATOM     25  C   UNL     1      -1.726  10.902  18.583  0.00  0.00    +0.000 C 
ATOM     26  C   UNL     1      -2.154  10.161  17.309  0.00  0.00    +0.000 C 
ENDBRANCH   1  25
TORSDOF 2
ENDMDL
MODEL 4
REMARK VINA RESULT:      -7.5      3.281      8.031
REMARK  Name = 
REMARK  4 active torsions:
REMARK  status: ('A' for Active; 'I' for Inactive)
REMARK    1  A    between atoms: C_1  and  C_2
REMARK    2  A    between atoms: C_2  and  C_3
REMARK    3  A    between atoms: C_2  and  C_4
REMARK    4  A    between atoms: N_15  and  C_16
REMARK                            x       y       z     vdW  Elec       q    Type
REMARK                         _______ _______ _______ _____ _____    ______ ____
ROOT
ATOM      1  C   UNL     1       2.984   3.531  19.546  0.00  0.00    +0.000 C 
ATOM      2  C   UNL     1       3.944   2.368  19.802  0.00  0.00    +0.000 C 
ATOM      3  O   UNL     1       5.221   2.949  20.055  0.00  0.00    +0.000 OA
ATOM      4  C   UNL     1       5.216   4.221  19.538  0.00  0.00    +0.000 C 
ATOM      5  O   UNL     1       6.220   4.884  19.417  0.00  0.00    +0.000 OA
ATOM      6  N   UNL     1       3.919   4.572  19.222  0.00  0.00    +0.000 N 
ATOM      7  C   UNL     1       3.578   5.862  18.792  0.00  0.00    +0.000 A 
ATOM      8  C   UNL     1       4.083   6.249  17.570  0.00  0.00    +0.000 A 
ATOM      9  C   UNL     1       3.609   7.433  17.083  0.00  0.00    +0.000 A 
ATOM     10  N   UNL     1       2.750   8.213  17.759  0.00  0.00    +0.000 NA
ATOM     11  C   UNL     1       2.311   7.775  18.950  0.00  0.00    +0.000 A 
ATOM     12  N   UNL     1       1.347   8.514  19.618  0.00  0.00    +0.000 N 
ATOM     13  N   UNL     1       2.679   6.595  19.484  0.00  0.00    +0.000 NA
ATOM     14  H   UNL     1       1.148   8.158  20.540  0.00  0.00    +0.000 HD
ENDROOT
BRANCH  12  15
ATOM     15  C   UNL     1       1.316   9.948  19.392  0.00  0.00    +0.000 C 
ATOM     16  C   UNL     1       0.677  10.260  18.017  0.00  0.00    +0.000 C 
ATOM     17  C   UNL     1      -0.840  10.335  18.243  0.00  0.00    +0.000 C 
ATOM     18  C   UNL     1      -0.885  10.895  19.627  0.00  0.00    +0.000 A 
ATOM     19  C   UNL     1      -1.932  11.579  20.224  0.00  0.00    +0.000 A 
ATOM     20  C   UNL     1      -1.745  12.075  21.513  0.00  0.00    +0.000 A 
ATOM     21  C   UNL     1      -0.531  11.865  22.185  0.00  0.00    +0.000 A 
ATOM     22  C   UNL     1       0.511  11.146  21.582  0.00  0.00    +0.000 A 
ATOM     23  C   UNL     1       0.326  10.659  20.295  0.00  0.00    +0.000 A 
ENDBRANCH  12  15
BRANCH   1  25
ATOM     24  C   UNL     1       2.537   2.285  17.325  0.00  0.00    +0.000 C 
ATOM     25  C   UNL     1       1.958   3.195  18.419  0.00  0.00    +0.000 C 
ATOM     26  C   UNL     1       0.689   2.514  18.950  0.00  0.00    +0.000 C 
ENDBRANCH   1  25
TORSDOF 2
ENDMDL
MODEL 5
REMARK VINA RESULT:      -6.3      1.511      2.006
REMARK  Name = 
REMARK  4 active torsions:
REMARK  status: ('A' for Active; 'I' for Inactive)
REMARK    1  A    between atoms: C_1  and  C_2
REMARK    2  A    between atoms: C_2  and  C_3
REMARK    3  A    between atoms: C_2  and  C_4
REMARK    4  A    between atoms: N_15  and  C_16
REMARK                            x       y       z     vdW  Elec       q    Type
REMARK                         _______ _______ _______ _____ _____    ______ ____
ROOT
ATOM      1  C   UNL     1       0.467  10.358  19.769  0.00  0.00    +0.000 C 
ATOM      2  C   UNL     1      -0.060  11.488  20.657  0.00  0.00    +0.000 C 
ATOM      3  O   UNL     1       0.569  11.330  21.926  0.00  0.00    +0.000 OA
ATOM      4  C   UNL     1       1.014  10.034  22.018  0.00  0.00    +0.000 C 
ATOM      5  O   UNL     1       1.404   9.546  23.053  0.00  0.00    +0.000 OA
ATOM      6  N   UNL     1       0.948   9.447  20.770  0.00  0.00    +0.000 N 
ATOM      7  C   UNL     1       1.455   8.165  20.520  0.00  0.00    +0.000 A 
ATOM      8  C   UNL     1       0.811   7.123  21.151  0.00  0.00    +0.000 A 
ATOM      9  C   UNL     1       1.200   5.871  20.770  0.00  0.00    +0.000 A 
ATOM     10  N   UNL     1       2.181   5.645  19.882  0.00  0.00    +0.000 NA
ATOM     11  C   UNL     1       2.771   6.711  19.318  0.00  0.00    +0.000 A 
ATOM     12  N   UNL     1       3.715   6.502  18.325  0.00  0.00    +0.000 N 
ATOM     13  N   UNL     1       2.416   7.981  19.589  0.00  0.00    +0.000 NA
ATOM     14  H   UNL     1       4.167   7.353  18.027  0.00  0.00    +0.000 HD
ENDROOT
BRANCH  12  15
ATOM     15  C   UNL     1       4.484   5.271  18.370  0.00  0.00    +0.000 C 
ATOM     16  C   UNL     1       3.560   4.052  18.132  0.00  0.00    +0.000 C 
ATOM     17  C   UNL     1       3.471   3.858  16.612  0.00  0.00    +0.000 C 
ATOM     18  C   UNL     1       4.836   4.296  16.197  0.00  0.00    +0.000 A 
ATOM     19  C   UNL     1       5.511   3.961  15.033  0.00  0.00    +0.000 A 
ATOM     20  C   UNL     1       6.811   4.431  14.866  0.00  0.00    +0.000 A 
ATOM     21  C   UNL     1       7.406   5.237  15.850  0.00  0.00    +0.000 A 
ATOM     22  C   UNL     1       6.704   5.594  17.010  0.00  0.00    +0.000 A 
ATOM     23  C   UNL     1       5.411   5.119  17.178  0.00  0.00    +0.000 A 
ENDBRANCH  12  15
BRANCH   1  25
ATOM     24  C   UNL     1      -1.834  10.747  18.655  0.00  0.00    +0.000 C 
ATOM     25  C   UNL     1      -0.650   9.786  18.841  0.00  0.00    +0.000 C 
ATOM     26  C   UNL     1      -0.135   9.424  17.441  0.00  0.00    +0.000 C 
ENDBRANCH   1  25
TORSDOF 2
ENDMDL
MODEL 6
REMARK VINA RESULT:      -6.2      3.779      9.449
REMARK  Name = 
REMARK  4 active torsions:
REMARK  status: ('A' for Active; 'I' for Inactive)
REMARK    1  A    between atoms: C_1  and  C_2
REMARK    2  A    between atoms: C_2  and  C_3
REMARK    3  A    between atoms: C_2  and  C_4
REMARK    4  A    between atoms: N_15  and  C_16
REMARK                            x       y       z     vdW  Elec       q    Type
REMARK                         _______ _______ _______ _____ _____    ______ ____
ROOT
ATOM      1  C   UNL     1       0.401   9.302  20.010  0.00  0.00    +0.000 C 
ATOM      2  C   UNL     1       1.420   8.292  20.541  0.00  0.00    +0.000 C 
ATOM      3  O   UNL     1       1.306   8.314  21.961  0.00  0.00    +0.000 OA
ATOM      4  C   UNL     1       0.704   9.495  22.318  0.00  0.00    +0.000 C 
ATOM      5  O   UNL     1       0.658   9.890  23.460  0.00  0.00    +0.000 OA
ATOM      6  N   UNL     1       0.183  10.093  21.189  0.00  0.00    +0.000 N 
ATOM      7  C   UNL     1      -0.603  11.252  21.251  0.00  0.00    +0.000 A 
ATOM      8  C   UNL     1       0.034  12.396  21.680  0.00  0.00    +0.000 A 
ATOM      9  C   UNL     1      -0.689  13.549  21.576  0.00  0.00    +0.000 A 
ATOM     10  N   UNL     1      -1.958  13.583  21.139  0.00  0.00    +0.000 NA
ATOM     11  C   UNL     1      -2.517  12.425  20.750  0.00  0.00    +0.000 A 
ATOM     12  N   UNL     1      -3.790  12.451  20.202  0.00  0.00    +0.000 N 
ATOM     13  N   UNL     1      -1.863  11.248  20.765  0.00  0.00    +0.000 NA
ATOM     14  H   UNL     1      -4.160  11.530  20.026  0.00  0.00    +0.000 HD
ENDROOT
BRANCH  12  15
ATOM     15  C   UNL     1      -4.691  13.505  20.632  0.00  0.00    +0.000 C 
ATOM     16  C   UNL     1      -5.810  13.715  19.582  0.00  0.00    +0.000 C 
ATOM     17  C   UNL     1      -6.926  12.718  19.923  0.00  0.00    +0.000 C 
ATOM     18  C   UNL     1      -6.813  12.675  21.412  0.00  0.00    +0.000 A 
ATOM     19  C   UNL     1      -7.791  12.301  22.320  0.00  0.00    +0.000 A 
ATOM     20  C   UNL     1      -7.497  12.392  23.679  0.00  0.00    +0.000 A 
ATOM     21  C   UNL     1      -6.234  12.834  24.104  0.00  0.00    +0.000 A 
ATOM     22  C   UNL     1      -5.242  13.181  23.176  0.00  0.00    +0.000 A 
ATOM     23  C   UNL     1      -5.539  13.098  21.823  0.00  0.00    +0.000 A 
ENDBRANCH  12  15
BRANCH   1  25
ATOM     24  C   UNL     1       2.031   9.318  18.003  0.00  0.00    +0.000 C 
ATOM     25  C   UNL     1       0.955  10.090  18.782  0.00  0.00    +0.000 C 
ATOM     26  C   UNL     1      -0.139  10.481  17.779  0.00  0.00    +0.000 C 
ENDBRANCH   1  25
TORSDOF 2
ENDMDL
MODEL 7
REMARK VINA RESULT:      -6.1      1.882      3.720
REMARK  Name = 
REMARK  4 active torsions:
REMARK  status: ('A' for Active; 'I' for Inactive)
REMARK    1  A    between atoms: C_1  and  C_2
REMARK    2  A    between atoms: C_2  and  C_3
REMARK    3  A    between atoms: C_2  and  C_4
REMARK    4  A    between atoms: N_15  and  C_16
REMARK                            x       y       z     vdW  Elec       q    Type
REMARK                         _______ _______ _______ _____ _____    ______ ____
ROOT
ATOM      1  C   UNL     1       1.692  12.758  20.707  0.00  0.00    +0.000 C 
ATOM      2  C   UNL     1       1.047  13.795  21.628  0.00  0.00    +0.000 C 
ATOM      3  O   UNL     1      -0.094  13.166  22.207  0.00  0.00    +0.000 OA
ATOM      4  C   UNL     1      -0.437  12.100  21.412  0.00  0.00    +0.000 C 
ATOM      5  O   UNL     1      -1.480  11.501  21.532  0.00  0.00    +0.000 OA
ATOM      6  N   UNL     1       0.589  11.857  20.520  0.00  0.00    +0.000 N 
ATOM      7  C   UNL     1       0.585  10.749  19.662  0.00  0.00    +0.000 A 
ATOM      8  C   UNL     1      -0.393  10.736  18.691  0.00  0.00    +0.000 A 
ATOM      9  C   UNL     1      -0.284   9.746  17.757  0.00  0.00    +0.000 A 
ATOM     10  N   UNL     1       0.671   8.803  17.794  0.00  0.00    +0.000 NA
ATOM     11  C   UNL     1       1.582   8.874  18.779  0.00  0.00    +0.000 A 
ATOM     12  N   UNL     1       2.634   7.972  18.778  0.00  0.00    +0.000 N 
ATOM     13  N   UNL     1       1.588   9.846  19.710  0.00  0.00    +0.000 NA
ATOM     14  H   UNL     1       3.212   8.043  19.602  0.00  0.00    +0.000 HD
ENDROOT
BRANCH  12  15
ATOM     15  C   UNL     1       2.407   6.666  18.184  0.00  0.00    +0.000 C 
ATOM     16  C   UNL     1       3.667   6.203  17.412  0.00  0.00    +0.000 C 
ATOM     17  C   UNL     1       4.576   5.503  18.431  0.00  0.00    +0.000 C 
ATOM     18  C   UNL     1       3.558   4.892  19.335  0.00  0.00    +0.000 A 
ATOM     19  C   UNL     1       3.725   3.805  20.180  0.00  0.00    +0.000 A 
ATOM     20  C   UNL     1       2.621   3.353  20.899  0.00  0.00    +0.000 A 
ATOM     21  C   UNL     1       1.381   3.999  20.776  0.00  0.00    +0.000 A 
ATOM     22  C   UNL     1       1.230   5.115  19.942  0.00  0.00    +0.000 A 
ATOM     23  C   UNL     1       2.329   5.560  19.220  0.00  0.00    +0.000 A 
ENDBRANCH  12  15
BRANCH   1  25
ATOM     24  C   UNL     1       1.183  14.238  18.649  0.00  0.00    +0.000 C 
ATOM     25  C   UNL     1       2.238  13.409  19.398  0.00  0.00    +0.000 C 
ATOM     26  C   UNL     1       3.444  14.326  19.644  0.00  0.00    +0.000 C 
ENDBRANCH   1  25
TORSDOF 2
ENDMDL
MODEL 8
REMARK VINA RESULT:      -6.1      1.578      2.208
REMARK  Name = 
REMARK  4 active torsions:
REMARK  status: ('A' for Active; 'I' for Inactive)
REMARK    1  A    between atoms: C_1  and  C_2
REMARK    2  A    between atoms: C_2  and  C_3
REMARK    3  A    between atoms: C_2  and  C_4
REMARK    4  A    between atoms: N_15  and  C_16
REMARK                            x       y       z     vdW  Elec       q    Type
REMARK                         _______ _______ _______ _____ _____    ______ ____
ROOT
ATOM      1  C   UNL     1       0.519  10.372  19.543  0.00  0.00    +0.000 C 
ATOM      2  C   UNL     1       0.217  11.611  20.389  0.00  0.00    +0.000 C 
ATOM      3  O   UNL     1       0.992  11.485  21.578  0.00  0.00    +0.000 OA
ATOM      4  C   UNL     1       1.329  10.163  21.725  0.00  0.00    +0.000 C 
ATOM      5  O   UNL     1       1.807   9.716  22.741  0.00  0.00    +0.000 OA
ATOM      6  N   UNL     1       1.046   9.494  20.551  0.00  0.00    +0.000 N 
ATOM      7  C   UNL     1       1.399   8.153  20.350  0.00  0.00    +0.000 A 
ATOM      8  C   UNL     1       0.754   7.230  21.145  0.00  0.00    +0.000 A 
ATOM      9  C   UNL     1       0.976   5.920  20.827  0.00  0.00    +0.000 A 
ATOM     10  N   UNL     1       1.807   5.534  19.846  0.00  0.00    +0.000 NA
ATOM     11  C   UNL     1       2.410   6.491  19.122  0.00  0.00    +0.000 A 
ATOM     12  N   UNL     1       3.191   6.116  18.041  0.00  0.00    +0.000 N 
ATOM     13  N   UNL     1       2.208   7.807  19.326  0.00  0.00    +0.000 NA
ATOM     14  H   UNL     1       3.674   6.894  17.618  0.00  0.00    +0.000 HD
ENDROOT
BRANCH  12  15
ATOM     15  C   UNL     1       3.848   4.822  18.096  0.00  0.00    +0.000 C 
ATOM     16  C   UNL     1       3.737   4.107  16.727  0.00  0.00    +0.000 C 
ATOM     17  C   UNL     1       4.921   4.593  15.879  0.00  0.00    +0.000 C 
ATOM     18  C   UNL     1       5.958   4.783  16.937  0.00  0.00    +0.000 A 
ATOM     19  C   UNL     1       7.335   4.795  16.774  0.00  0.00    +0.000 A 
ATOM     20  C   UNL     1       8.131   4.927  17.910  0.00  0.00    +0.000 A 
ATOM     21  C   UNL     1       7.544   5.061  19.178  0.00  0.00    +0.000 A 
ATOM     22  C   UNL     1       6.150   5.077  19.327  0.00  0.00    +0.000 A 
ATOM     23  C   UNL     1       5.357   4.938  18.196  0.00  0.00    +0.000 A 
ENDBRANCH  12  15
BRANCH   1  25
ATOM     24  C   UNL     1      -1.912  10.860  18.809  0.00  0.00    +0.000 C 
ATOM     25  C   UNL     1      -0.757   9.847  18.814  0.00  0.00    +0.000 C 
ATOM     26  C   UNL     1      -0.492   9.453  17.354  0.00  0.00    +0.000 C 
ENDBRANCH   1  25
TORSDOF 2
ENDMDL
MODEL 9
REMARK VINA RESULT:      -6.1      3.065      8.802
REMARK  Name = 
REMARK  4 active torsions:
REMARK  status: ('A' for Active; 'I' for Inactive)
REMARK    1  A    between atoms: C_1  and  C_2
REMARK    2  A    between atoms: C_2  and  C_3
REMARK    3  A    between atoms: C_2  and  C_4
REMARK    4  A    between atoms: N_15  and  C_16
REMARK                            x       y       z     vdW  Elec       q    Type
REMARK                         _______ _______ _______ _____ _____    ______ ____
ROOT
ATOM      1  C   UNL     1       0.840   8.748  19.477  0.00  0.00    +0.000 C 
ATOM      2  C   UNL     1       1.879   8.047  20.354  0.00  0.00    +0.000 C 
ATOM      3  O   UNL     1       1.593   8.424  21.698  0.00  0.00    +0.000 OA
ATOM      4  C   UNL     1       0.843   9.573  21.663  0.00  0.00    +0.000 C 
ATOM      5  O   UNL     1       0.621  10.243  22.646  0.00  0.00    +0.000 OA
ATOM      6  N   UNL     1       0.406   9.786  20.371  0.00  0.00    +0.000 N 
ATOM      7  C   UNL     1      -0.489  10.814  20.044  0.00  0.00    +0.000 A 
ATOM      8  C   UNL     1      -0.020  12.100  20.200  0.00  0.00    +0.000 A 
ATOM      9  C   UNL     1      -0.832  13.087  19.720  0.00  0.00    +0.000 A 
ATOM     10  N   UNL     1      -2.037  12.848  19.178  0.00  0.00    +0.000 NA
ATOM     11  C   UNL     1      -2.432  11.568  19.071  0.00  0.00    +0.000 A 
ATOM     12  N   UNL     1      -3.625  11.292  18.423  0.00  0.00    +0.000 N 
ATOM     13  N   UNL     1      -1.675  10.527  19.465  0.00  0.00    +0.000 NA
ATOM     14  H   UNL     1      -3.882  10.318  18.472  0.00  0.00    +0.000 HD
ENDROOT
BRANCH  12  15
ATOM     15  C   UNL     1      -4.669  12.301  18.466  0.00  0.00    +0.000 C 
ATOM     16  C   UNL     1      -5.797  11.947  17.466  0.00  0.00    +0.000 C 
ATOM     17  C   UNL     1      -6.766  11.015  18.207  0.00  0.00    +0.000 C 
ATOM     18  C   UNL     1      -6.660  11.554  19.595  0.00  0.00    +0.000 A 
ATOM     19  C   UNL     1      -7.583  11.426  20.621  0.00  0.00    +0.000 A 
ATOM     20  C   UNL     1      -7.316  12.062  21.831  0.00  0.00    +0.000 A 
ATOM     21  C   UNL     1      -6.131  12.795  22.002  0.00  0.00    +0.000 A 
ATOM     22  C   UNL     1      -5.190  12.893  20.967  0.00  0.00    +0.000 A 
ATOM     23  C   UNL     1      -5.461  12.265  19.759  0.00  0.00    +0.000 A 
ENDBRANCH  12  15
BRANCH   1  25
ATOM     24  C   UNL     1       2.212  10.584  18.281  0.00  0.00    +0.000 C 
ATOM     25  C   UNL     1       1.460   9.252  18.137  0.00  0.00    +0.000 C 
ATOM     26  C   UNL     1       2.438   8.245  17.515  0.00  0.00    +0.000 C 
ENDBRANCH   1  25
TORSDOF 2
ENDMDL
