MODEL 1
REMARK VINA RESULT:      -8.5      0.000      0.000
REMARK  Name = 
REMARK  7 active torsions:
REMARK  status: ('A' for Active; 'I' for Inactive)
REMARK    1  A    between atoms: C_3  and  C_4
REMARK    2  A    between atoms: C_4  and  O_5
REMARK    3  A    between atoms: C_6  and  C_7
REMARK    4  A    between atoms: C_10  and  C_11
REMARK    5  A    between atoms: C_11  and  C_12
REMARK    6  A    between atoms: C_15  and  O_16
REMARK    7  A    between atoms: O_16  and  C_17
REMARK                            x       y       z     vdW  Elec       q    Type
REMARK                         _______ _______ _______ _____ _____    ______ ____
ROOT
ATOM      1  C   UNL     1       1.376   9.479  18.944  0.00  0.00    +0.000 A 
ATOM      2  C   UNL     1       1.231   8.846  20.184  0.00  0.00    +0.000 A 
ATOM      3  C   UNL     1       1.780   7.578  20.387  0.00  0.00    +0.000 A 
ATOM      4  C   UNL     1       2.482   6.932  19.359  0.00  0.00    +0.000 A 
ATOM      5  C   UNL     1       2.511   7.518  18.087  0.00  0.00    +0.000 A 
ATOM      6  C   UNL     1       1.967   8.785  17.881  0.00  0.00    +0.000 A 
ENDROOT
BRANCH   1  10
ATOM      7  O   UNL     1      -1.633  13.232  18.871  0.00  0.00    +0.000 OA
ATOM      8  C   UNL     1      -0.479  12.793  18.828  0.00  0.00    +0.000 A 
ATOM      9  C   UNL     1      -0.226  11.324  18.940  0.00  0.00    +0.000 A 
ATOM     10  C   UNL     1       1.055  10.911  18.801  0.00  0.00    +0.000 A 
ATOM     11  N   UNL     1       2.116  11.756  18.565  0.00  0.00    +0.000 N 
ATOM     12  C   UNL     1       1.961  13.145  18.588  0.00  0.00    +0.000 A 
ATOM     13  C   UNL     1       3.057  14.002  18.474  0.00  0.00    +0.000 A 
ATOM     14  C   UNL     1       2.867  15.388  18.500  0.00  0.00    +0.000 A 
ATOM     15 CL   UNL     1       4.231  16.433  18.402  0.00  0.00    +0.000 Cl
ATOM     16  C   UNL     1       1.588  15.932  18.607  0.00  0.00    +0.000 A 
ATOM     17  C   UNL     1       0.484  15.088  18.698  0.00  0.00    +0.000 A 
ATOM     18  C   UNL     1       0.673  13.703  18.691  0.00  0.00    +0.000 A 
ATOM     19  H   UNL     1       3.049  11.357  18.598  0.00  0.00    +0.000 HD
BRANCH   9  20
ATOM     20  C   UNL     1      -1.432  10.486  19.276  0.00  0.00    +0.000 C 
BRANCH  20  21
ATOM     21  O   UNL     1      -2.365  10.498  18.204  0.00  0.00    +0.000 OA
ATOM     22  H   UNL     1      -2.626  11.439  18.092  0.00  0.00    +0.000 HD
ENDBRANCH  20  21
ENDBRANCH   9  20
ENDBRANCH   1  10
BRANCH   4  23
ATOM     23  C   UNL     1       3.243   5.653  19.637  0.00  0.00    +0.000 C 
BRANCH  23  24
ATOM     24  C   UNL     1       4.080   5.179  18.480  0.00  0.00    +0.000 A 
ATOM     25  C   UNL     1       3.581   4.218  17.595  0.00  0.00    +0.000 A 
ATOM     26  C   UNL     1       4.388   3.729  16.568  0.00  0.00    +0.000 A 
ATOM     27  C   UNL     1       5.699   4.188  16.399  0.00  0.00    +0.000 A 
ATOM     28  C   UNL     1       6.197   5.147  17.277  0.00  0.00    +0.000 A 
ATOM     29  C   UNL     1       5.387   5.652  18.301  0.00  0.00    +0.000 A 
BRANCH  27  30
ATOM     30  O   UNL     1       6.357   3.595  15.370  0.00  0.00    +0.000 OA
BRANCH  30  31
ATOM     31  C   UNL     1       6.305   4.148  14.070  0.00  0.00    +0.000 C 
ATOM     32  F   UNL     1       6.239   3.227  13.085  0.00  0.00    +0.000 F 
ATOM     33  F   UNL     1       5.251   4.987  13.966  0.00  0.00    +0.000 F 
ATOM     34  F   UNL     1       7.436   4.869  13.876  0.00  0.00    +0.000 F 
ENDBRANCH  30  31
ENDBRANCH  27  30
ENDBRANCH  23  24
ENDBRANCH   4  23
TORSDOF 7
ENDMDL
MODEL 2
REMARK VINA RESULT:      -8.4      0.605      1.246
REMARK  Name = 
REMARK  7 active torsions:
REMARK  status: ('A' for Active; 'I' for Inactive)
REMARK    1  A    between atoms: C_3  and  C_4
REMARK    2  A    between atoms: C_4  and  O_5
REMARK    3  A    between atoms: C_6  and  C_7
REMARK    4  A    between atoms: C_10  and  C_11
REMARK    5  A    between atoms: C_11  and  C_12
REMARK    6  A    between atoms: C_15  and  O_16
REMARK    7  A    between atoms: O_16  and  C_17
REMARK                            x       y       z     vdW  Elec       q    Type
REMARK                         _______ _______ _______ _____ _____    ______ ____
ROOT
ATOM      1  C   UNL     1       1.299   9.235  19.102  0.00  0.00    +0.000 A 
ATOM      2  C   UNL     1       1.155   8.650  20.366  0.00  0.00    +0.000 A 
ATOM      3  C   UNL     1       1.745   7.412  20.632  0.00  0.00    +0.000 A 
ATOM      4  C   UNL     1       2.486   6.748  19.644  0.00  0.00    +0.000 A 
ATOM      5  C   UNL     1       2.517   7.281  18.348  0.00  0.00    +0.000 A 
ATOM      6  C   UNL     1       1.932   8.518  18.079  0.00  0.00    +0.000 A 
ENDROOT
BRANCH   1  10
ATOM      7  O   UNL     1      -1.808  12.778  18.137  0.00  0.00    +0.000 OA
ATOM      8  C   UNL     1      -0.672  12.419  18.461  0.00  0.00    +0.000 A 
ATOM      9  C   UNL     1      -0.354  10.967  18.618  0.00  0.00    +0.000 A 
ATOM     10  C   UNL     1       0.931  10.647  18.893  0.00  0.00    +0.000 A 
ATOM     11  N   UNL     1       1.943  11.571  19.031  0.00  0.00    +0.000 N 
ATOM     12  C   UNL     1       1.681  12.945  19.031  0.00  0.00    +0.000 A 
ATOM     13  C   UNL     1       2.686  13.877  19.297  0.00  0.00    +0.000 A 
ATOM     14  C   UNL     1       2.391  15.244  19.288  0.00  0.00    +0.000 A 
ATOM     15 CL   UNL     1       3.628  16.381  19.659  0.00  0.00    +0.000 Cl
ATOM     16  C   UNL     1       1.107  15.696  18.987  0.00  0.00    +0.000 A 
ATOM     17  C   UNL     1       0.101  14.778  18.698  0.00  0.00    +0.000 A 
ATOM     18  C   UNL     1       0.390  13.410  18.723  0.00  0.00    +0.000 A 
ATOM     19  H   UNL     1       2.843  11.234  19.356  0.00  0.00    +0.000 HD
BRANCH   9  20
ATOM     20  C   UNL     1      -1.536  10.037  18.528  0.00  0.00    +0.000 C 
BRANCH  20  21
ATOM     21  O   UNL     1      -1.952   9.885  17.178  0.00  0.00    +0.000 OA
ATOM     22  H   UNL     1      -2.669   9.213  17.196  0.00  0.00    +0.000 HD
ENDBRANCH  20  21
ENDBRANCH   9  20
ENDBRANCH   1  10
BRANCH   4  23
ATOM     23  C   UNL     1       3.286   5.510  19.988  0.00  0.00    +0.000 C 
BRANCH  23  24
ATOM     24  C   UNL     1       4.042   4.930  18.823  0.00  0.00    +0.000 A 
ATOM     25  C   UNL     1       5.380   5.272  18.610  0.00  0.00    +0.000 A 
ATOM     26  C   UNL     1       6.054   4.790  17.488  0.00  0.00    +0.000 A 
ATOM     27  C   UNL     1       5.413   3.956  16.564  0.00  0.00    +0.000 A 
ATOM     28  C   UNL     1       4.081   3.612  16.776  0.00  0.00    +0.000 A 
ATOM     29  C   UNL     1       3.404   4.081  17.908  0.00  0.00    +0.000 A 
BRANCH  27  30
ATOM     30  O   UNL     1       6.199   3.594  15.518  0.00  0.00    +0.000 OA
BRANCH  30  31
ATOM     31  C   UNL     1       6.311   4.429  14.382  0.00  0.00    +0.000 C 
ATOM     32  F   UNL     1       5.363   5.387  14.309  0.00  0.00    +0.000 F 
ATOM     33  F   UNL     1       7.532   5.008  14.352  0.00  0.00    +0.000 F 
ATOM     34  F   UNL     1       6.189   3.652  13.278  0.00  0.00    +0.000 F 
ENDBRANCH  30  31
ENDBRANCH  27  30
ENDBRANCH  23  24
ENDBRANCH   4  23
TORSDOF 7
ENDMDL
MODEL 3
REMARK VINA RESULT:      -8.3      4.409      5.711
REMARK  Name = 
REMARK  7 active torsions:
REMARK  status: ('A' for Active; 'I' for Inactive)
REMARK    1  A    between atoms: C_3  and  C_4
REMARK    2  A    between atoms: C_4  and  O_5
REMARK    3  A    between atoms: C_6  and  C_7
REMARK    4  A    between atoms: C_10  and  C_11
REMARK    5  A    between atoms: C_11  and  C_12
REMARK    6  A    between atoms: C_15  and  O_16
REMARK    7  A    between atoms: O_16  and  C_17
REMARK                            x       y       z     vdW  Elec       q    Type
REMARK                         _______ _______ _______ _____ _____    ______ ____
ROOT
ATOM      1  C   UNL     1      -0.944  11.362  19.003  0.00  0.00    +0.000 A 
ATOM      2  C   UNL     1      -1.184  10.190  18.275  0.00  0.00    +0.000 A 
ATOM      3  C   UNL     1      -0.111   9.414  17.831  0.00  0.00    +0.000 A 
ATOM      4  C   UNL     1       1.209   9.795  18.112  0.00  0.00    +0.000 A 
ATOM      5  C   UNL     1       1.440  11.031  18.730  0.00  0.00    +0.000 A 
ATOM      6  C   UNL     1       0.372  11.808  19.177  0.00  0.00    +0.000 A 
ENDROOT
BRANCH   1  10
ATOM      7  O   UNL     1      -5.533  12.703  19.539  0.00  0.00    +0.000 OA
ATOM      8  C   UNL     1      -4.382  12.645  19.986  0.00  0.00    +0.000 A 
ATOM      9  C   UNL     1      -3.299  11.984  19.197  0.00  0.00    +0.000 A 
ATOM     10  C   UNL     1      -2.049  12.032  19.712  0.00  0.00    +0.000 A 
ATOM     11  N   UNL     1      -1.729  12.649  20.902  0.00  0.00    +0.000 N 
ATOM     12  C   UNL     1      -2.718  13.161  21.747  0.00  0.00    +0.000 A 
ATOM     13  C   UNL     1      -2.405  13.671  23.008  0.00  0.00    +0.000 A 
ATOM     14  C   UNL     1      -3.419  14.179  23.828  0.00  0.00    +0.000 A 
ATOM     15 CL   UNL     1      -3.025  14.765  25.398  0.00  0.00    +0.000 Cl
ATOM     16  C   UNL     1      -4.742  14.210  23.392  0.00  0.00    +0.000 A 
ATOM     17  C   UNL     1      -5.064  13.725  22.127  0.00  0.00    +0.000 A 
ATOM     18  C   UNL     1      -4.056  13.202  21.312  0.00  0.00    +0.000 A 
ATOM     19  H   UNL     1      -0.786  12.522  21.255  0.00  0.00    +0.000 HD
BRANCH   9  20
ATOM     20  C   UNL     1      -3.754  11.270  17.951  0.00  0.00    +0.000 C 
BRANCH  20  21
ATOM     21  O   UNL     1      -4.288  12.193  17.011  0.00  0.00    +0.000 OA
ATOM     22  H   UNL     1      -3.736  12.095  16.203  0.00  0.00    +0.000 HD
ENDBRANCH  20  21
ENDBRANCH   9  20
ENDBRANCH   1  10
BRANCH   4  23
ATOM     23  C   UNL     1       2.358   8.859  17.806  0.00  0.00    +0.000 C 
BRANCH  23  24
ATOM     24  C   UNL     1       2.320   7.572  18.585  0.00  0.00    +0.000 A 
ATOM     25  C   UNL     1       1.927   7.571  19.927  0.00  0.00    +0.000 A 
ATOM     26  C   UNL     1       1.963   6.389  20.664  0.00  0.00    +0.000 A 
ATOM     27  C   UNL     1       2.383   5.187  20.082  0.00  0.00    +0.000 A 
ATOM     28  C   UNL     1       2.772   5.184  18.745  0.00  0.00    +0.000 A 
ATOM     29  C   UNL     1       2.724   6.366  17.996  0.00  0.00    +0.000 A 
BRANCH  27  30
ATOM     30  O   UNL     1       2.384   4.135  20.940  0.00  0.00    +0.000 OA
BRANCH  30  31
ATOM     31  C   UNL     1       1.446   3.087  20.792  0.00  0.00    +0.000 C 
ATOM     32  F   UNL     1       1.892   2.053  20.048  0.00  0.00    +0.000 F 
ATOM     33  F   UNL     1       1.067   2.630  22.006  0.00  0.00    +0.000 F 
ATOM     34  F   UNL     1       0.350   3.590  20.173  0.00  0.00    +0.000 F 
ENDBRANCH  30  31
ENDBRANCH  27  30
ENDBRANCH  23  24
ENDBRANCH   4  23
TORSDOF 7
ENDMDL
MODEL 4
REMARK VINA RESULT:      -8.3      4.363      5.678
REMARK  Name = 
REMARK  7 active torsions:
REMARK  status: ('A' for Active; 'I' for Inactive)
REMARK    1  A    between atoms: C_3  and  C_4
REMARK    2  A    between atoms: C_4  and  O_5
REMARK    3  A    between atoms: C_6  and  C_7
REMARK    4  A    between atoms: C_10  and  C_11
REMARK    5  A    between atoms: C_11  and  C_12
REMARK    6  A    between atoms: C_15  and  O_16
REMARK    7  A    between atoms: O_16  and  C_17
REMARK                            x       y       z     vdW  Elec       q    Type
REMARK                         _______ _______ _______ _____ _____    ______ ____
ROOT
ATOM      1  C   UNL     1      -0.946  11.281  18.910  0.00  0.00    +0.000 A 
ATOM      2  C   UNL     1      -1.192  10.116  18.174  0.00  0.00    +0.000 A 
ATOM      3  C   UNL     1      -0.123   9.338  17.725  0.00  0.00    +0.000 A 
ATOM      4  C   UNL     1       1.199   9.710  18.008  0.00  0.00    +0.000 A 
ATOM      5  C   UNL     1       1.436  10.941  18.634  0.00  0.00    +0.000 A 
ATOM      6  C   UNL     1       0.372  11.719  19.087  0.00  0.00    +0.000 A 
ENDROOT
BRANCH   1  10
ATOM      7  O   UNL     1      -5.531  12.627  19.465  0.00  0.00    +0.000 OA
ATOM      8  C   UNL     1      -4.379  12.568  19.907  0.00  0.00    +0.000 A 
ATOM      9  C   UNL     1      -3.300  11.906  19.113  0.00  0.00    +0.000 A 
ATOM     10  C   UNL     1      -2.048  11.953  19.624  0.00  0.00    +0.000 A 
ATOM     11  N   UNL     1      -1.722  12.568  20.813  0.00  0.00    +0.000 N 
ATOM     12  C   UNL     1      -2.707  13.081  21.662  0.00  0.00    +0.000 A 
ATOM     13  C   UNL     1      -2.389  13.590  22.922  0.00  0.00    +0.000 A 
ATOM     14  C   UNL     1      -3.399  14.098  23.746  0.00  0.00    +0.000 A 
ATOM     15 CL   UNL     1      -2.999  14.683  25.315  0.00  0.00    +0.000 Cl
ATOM     16  C   UNL     1      -4.724  14.131  23.315  0.00  0.00    +0.000 A 
ATOM     17  C   UNL     1      -5.052  13.648  22.051  0.00  0.00    +0.000 A 
ATOM     18  C   UNL     1      -4.047  13.124  21.232  0.00  0.00    +0.000 A 
ATOM     19  H   UNL     1      -0.778  12.441  21.163  0.00  0.00    +0.000 HD
BRANCH   9  20
ATOM     20  C   UNL     1      -3.760  11.193  17.869  0.00  0.00    +0.000 C 
BRANCH  20  21
ATOM     21  O   UNL     1      -4.194  12.126  16.889  0.00  0.00    +0.000 OA
ATOM     22  H   UNL     1      -5.113  12.366  17.142  0.00  0.00    +0.000 HD
ENDBRANCH  20  21
ENDBRANCH   9  20
ENDBRANCH   1  10
BRANCH   4  23
ATOM     23  C   UNL     1       2.343   8.770  17.695  0.00  0.00    +0.000 C 
BRANCH  23  24
ATOM     24  C   UNL     1       2.401   7.561  18.590  0.00  0.00    +0.000 A 
ATOM     25  C   UNL     1       2.853   6.336  18.093  0.00  0.00    +0.000 A 
ATOM     26  C   UNL     1       2.835   5.203  18.905  0.00  0.00    +0.000 A 
ATOM     27  C   UNL     1       2.374   5.268  20.225  0.00  0.00    +0.000 A 
ATOM     28  C   UNL     1       1.926   6.488  20.724  0.00  0.00    +0.000 A 
ATOM     29  C   UNL     1       1.955   7.632  19.917  0.00  0.00    +0.000 A 
BRANCH  27  30
ATOM     30  O   UNL     1       2.398   4.075  20.873  0.00  0.00    +0.000 OA
BRANCH  30  31
ATOM     31  C   UNL     1       1.375   3.123  20.662  0.00  0.00    +0.000 C 
ATOM     32  F   UNL     1       0.263   3.630  20.090  0.00  0.00    +0.000 F 
ATOM     33  F   UNL     1       1.839   2.104  19.906  0.00  0.00    +0.000 F 
ATOM     34  F   UNL     1       1.017   2.619  21.869  0.00  0.00    +0.000 F 
ENDBRANCH  30  31
ENDBRANCH  27  30
ENDBRANCH  23  24
ENDBRANCH   4  23
TORSDOF 7
ENDMDL
MODEL 5
REMARK VINA RESULT:      -8.3      4.426      5.886
REMARK  Name = 
REMARK  7 active torsions:
REMARK  status: ('A' for Active; 'I' for Inactive)
REMARK    1  A    between atoms: C_3  and  C_4
REMARK    2  A    between atoms: C_4  and  O_5
REMARK    3  A    between atoms: C_6  and  C_7
REMARK    4  A    between atoms: C_10  and  C_11
REMARK    5  A    between atoms: C_11  and  C_12
REMARK    6  A    between atoms: C_15  and  O_16
REMARK    7  A    between atoms: O_16  and  C_17
REMARK                            x       y       z     vdW  Elec       q    Type
REMARK                         _______ _______ _______ _____ _____    ______ ____
ROOT
ATOM      1  C   UNL     1      -1.050  10.926  18.249  0.00  0.00    +0.000 A 
ATOM      2  C   UNL     1      -0.997   9.709  17.559  0.00  0.00    +0.000 A 
ATOM      3  C   UNL     1       0.223   9.047  17.408  0.00  0.00    +0.000 A 
ATOM      4  C   UNL     1       1.400   9.588  17.945  0.00  0.00    +0.000 A 
ATOM      5  C   UNL     1       1.356  10.865  18.521  0.00  0.00    +0.000 A 
ATOM      6  C   UNL     1       0.140  11.528  18.677  0.00  0.00    +0.000 A 
ENDROOT
BRANCH   1  10
ATOM      7  O   UNL     1      -5.690  11.993  17.562  0.00  0.00    +0.000 OA
ATOM      8  C   UNL     1      -4.705  11.963  18.306  0.00  0.00    +0.000 A 
ATOM      9  C   UNL     1      -3.404  11.413  17.815  0.00  0.00    +0.000 A 
ATOM     10  C   UNL     1      -2.349  11.490  18.658  0.00  0.00    +0.000 A 
ATOM     11  N   UNL     1      -2.409  12.039  19.920  0.00  0.00    +0.000 N 
ATOM     12  C   UNL     1      -3.623  12.442  20.483  0.00  0.00    +0.000 A 
ATOM     13  C   UNL     1      -3.702  12.880  21.806  0.00  0.00    +0.000 A 
ATOM     14  C   UNL     1      -4.934  13.278  22.338  0.00  0.00    +0.000 A 
ATOM     15 CL   UNL     1      -5.025  13.776  23.984  0.00  0.00    +0.000 Cl
ATOM     16  C   UNL     1      -6.086  13.272  21.555  0.00  0.00    +0.000 A 
ATOM     17  C   UNL     1      -6.017  12.859  20.227  0.00  0.00    +0.000 A 
ATOM     18  C   UNL     1      -4.791  12.444  19.698  0.00  0.00    +0.000 A 
ATOM     19  H   UNL     1      -1.592  11.937  20.513  0.00  0.00    +0.000 HD
BRANCH   9  20
ATOM     20  C   UNL     1      -3.452  10.764  16.456  0.00  0.00    +0.000 C 
BRANCH  20  21
ATOM     21  O   UNL     1      -3.383  11.744  15.430  0.00  0.00    +0.000 OA
ATOM     22  H   UNL     1      -4.246  12.213  15.454  0.00  0.00    +0.000 HD
ENDBRANCH  20  21
ENDBRANCH   9  20
ENDBRANCH   1  10
BRANCH   4  23
ATOM     23  C   UNL     1       2.681   8.781  17.955  0.00  0.00    +0.000 C 
BRANCH  23  24
ATOM     24  C   UNL     1       2.557   7.451  18.649  0.00  0.00    +0.000 A 
ATOM     25  C   UNL     1       2.087   7.382  19.964  0.00  0.00    +0.000 A 
ATOM     26  C   UNL     1       2.044   6.157  20.627  0.00  0.00    +0.000 A 
ATOM     27  C   UNL     1       2.460   4.979  19.995  0.00  0.00    +0.000 A 
ATOM     28  C   UNL     1       2.925   5.044  18.685  0.00  0.00    +0.000 A 
ATOM     29  C   UNL     1       2.958   6.270  18.009  0.00  0.00    +0.000 A 
BRANCH  27  30
ATOM     30  O   UNL     1       2.378   3.877  20.785  0.00  0.00    +0.000 OA
BRANCH  30  31
ATOM     31  C   UNL     1       1.242   3.037  20.729  0.00  0.00    +0.000 C 
ATOM     32  F   UNL     1       0.800   2.632  21.938  0.00  0.00    +0.000 F 
ATOM     33  F   UNL     1       0.238   3.659  20.074  0.00  0.00    +0.000 F 
ATOM     34  F   UNL     1       1.577   1.927  20.026  0.00  0.00    +0.000 F 
ENDBRANCH  30  31
ENDBRANCH  27  30
ENDBRANCH  23  24
ENDBRANCH   4  23
TORSDOF 7
ENDMDL
MODEL 6
REMARK VINA RESULT:      -8.3      6.393     10.622
REMARK  Name = 
REMARK  7 active torsions:
REMARK  status: ('A' for Active; 'I' for Inactive)
REMARK    1  A    between atoms: C_3  and  C_4
REMARK    2  A    between atoms: C_4  and  O_5
REMARK    3  A    between atoms: C_6  and  C_7
REMARK    4  A    between atoms: C_10  and  C_11
REMARK    5  A    between atoms: C_11  and  C_12
REMARK    6  A    between atoms: C_15  and  O_16
REMARK    7  A    between atoms: O_16  and  C_17
REMARK                            x       y       z     vdW  Elec       q    Type
REMARK                         _______ _______ _______ _____ _____    ______ ____
ROOT
ATOM      1  C   UNL     1       1.967   8.031  19.192  0.00  0.00    +0.000 A 
ATOM      2  C   UNL     1       1.710   9.038  18.254  0.00  0.00    +0.000 A 
ATOM      3  C   UNL     1       1.202  10.269  18.674  0.00  0.00    +0.000 A 
ATOM      4  C   UNL     1       0.950  10.510  20.032  0.00  0.00    +0.000 A 
ATOM      5  C   UNL     1       1.090   9.456  20.944  0.00  0.00    +0.000 A 
ATOM      6  C   UNL     1       1.600   8.226  20.529  0.00  0.00    +0.000 A 
ENDROOT
BRANCH   1  10
ATOM      7  O   UNL     1       3.281   3.421  19.590  0.00  0.00    +0.000 OA
ATOM      8  C   UNL     1       3.357   4.501  18.995  0.00  0.00    +0.000 A 
ATOM      9  C   UNL     1       2.558   5.676  19.460  0.00  0.00    +0.000 A 
ATOM     10  C   UNL     1       2.756   6.846  18.810  0.00  0.00    +0.000 A 
ATOM     11  N   UNL     1       3.639   7.008  17.765  0.00  0.00    +0.000 N 
ATOM     12  C   UNL     1       4.308   5.919  17.200  0.00  0.00    +0.000 A 
ATOM     13  C   UNL     1       5.104   6.063  16.063  0.00  0.00    +0.000 A 
ATOM     14  C   UNL     1       5.762   4.952  15.524  0.00  0.00    +0.000 A 
ATOM     15 CL   UNL     1       6.706   5.136  14.097  0.00  0.00    +0.000 Cl
ATOM     16  C   UNL     1       5.658   3.699  16.126  0.00  0.00    +0.000 A 
ATOM     17  C   UNL     1       4.886   3.546  17.274  0.00  0.00    +0.000 A 
ATOM     18  C   UNL     1       4.214   4.651  17.804  0.00  0.00    +0.000 A 
ATOM     19  H   UNL     1       3.621   7.894  17.271  0.00  0.00    +0.000 HD
BRANCH   9  20
ATOM     20  C   UNL     1       1.564   5.387  20.554  0.00  0.00    +0.000 C 
BRANCH  20  21
ATOM     21  O   UNL     1       0.780   4.247  20.230  0.00  0.00    +0.000 OA
ATOM     22  H   UNL     1       0.366   3.963  21.075  0.00  0.00    +0.000 HD
ENDBRANCH  20  21
ENDBRANCH   9  20
ENDBRANCH   1  10
BRANCH   4  23
ATOM     23  C   UNL     1       0.590  11.901  20.509  0.00  0.00    +0.000 C 
BRANCH  23  24
ATOM     24  C   UNL     1      -0.766  11.991  21.156  0.00  0.00    +0.000 A 
ATOM     25  C   UNL     1      -1.867  12.450  20.427  0.00  0.00    +0.000 A 
ATOM     26  C   UNL     1      -3.104  12.600  21.052  0.00  0.00    +0.000 A 
ATOM     27  C   UNL     1      -3.271  12.293  22.407  0.00  0.00    +0.000 A 
ATOM     28  C   UNL     1      -2.177  11.832  23.134  0.00  0.00    +0.000 A 
ATOM     29  C   UNL     1      -0.936  11.666  22.509  0.00  0.00    +0.000 A 
BRANCH  27  30
ATOM     30  O   UNL     1      -4.529  12.517  22.867  0.00  0.00    +0.000 OA
BRANCH  30  31
ATOM     31  C   UNL     1      -4.735  13.082  24.147  0.00  0.00    +0.000 C 
ATOM     32  F   UNL     1      -3.839  14.036  24.476  0.00  0.00    +0.000 F 
ATOM     33  F   UNL     1      -5.982  13.597  24.230  0.00  0.00    +0.000 F 
ATOM     34  F   UNL     1      -4.629  12.090  25.065  0.00  0.00    +0.000 F 
ENDBRANCH  30  31
ENDBRANCH  27  30
ENDBRANCH  23  24
ENDBRANCH   4  23
TORSDOF 7
ENDMDL
MODEL 7
REMARK VINA RESULT:      -8.2      4.758      6.128
REMARK  Name = 
REMARK  7 active torsions:
REMARK  status: ('A' for Active; 'I' for Inactive)
REMARK    1  A    between atoms: C_3  and  C_4
REMARK    2  A    between atoms: C_4  and  O_5
REMARK    3  A    between atoms: C_6  and  C_7
REMARK    4  A    between atoms: C_10  and  C_11
REMARK    5  A    between atoms: C_11  and  C_12
REMARK    6  A    between atoms: C_15  and  O_16
REMARK    7  A    between atoms: O_16  and  C_17
REMARK                            x       y       z     vdW  Elec       q    Type
REMARK                         _______ _______ _______ _____ _____    ______ ____
ROOT
ATOM      1  C   UNL     1      -1.121  11.492  19.641  0.00  0.00    +0.000 A 
ATOM      2  C   UNL     1      -1.412  10.463  18.738  0.00  0.00    +0.000 A 
ATOM      3  C   UNL     1      -0.372   9.772  18.112  0.00  0.00    +0.000 A 
ATOM      4  C   UNL     1       0.965  10.098  18.381  0.00  0.00    +0.000 A 
ATOM      5  C   UNL     1       1.241  11.210  19.186  0.00  0.00    +0.000 A 
ATOM      6  C   UNL     1       0.207  11.901  19.817  0.00  0.00    +0.000 A 
ENDROOT
BRANCH   1  10
ATOM      7  O   UNL     1      -3.105  12.461  23.915  0.00  0.00    +0.000 OA
ATOM      8  C   UNL     1      -3.129  12.562  22.684  0.00  0.00    +0.000 A 
ATOM      9  C   UNL     1      -2.043  11.954  21.856  0.00  0.00    +0.000 A 
ATOM     10  C   UNL     1      -2.180  12.034  20.513  0.00  0.00    +0.000 A 
ATOM     11  N   UNL     1      -3.248  12.631  19.881  0.00  0.00    +0.000 N 
ATOM     12  C   UNL     1      -4.220  13.334  20.599  0.00  0.00    +0.000 A 
ATOM     13  C   UNL     1      -5.231  14.045  19.951  0.00  0.00    +0.000 A 
ATOM     14  C   UNL     1      -6.190  14.736  20.700  0.00  0.00    +0.000 A 
ATOM     15 CL   UNL     1      -7.407  15.645  19.889  0.00  0.00    +0.000 Cl
ATOM     16  C   UNL     1      -6.169  14.702  22.093  0.00  0.00    +0.000 A 
ATOM     17  C   UNL     1      -5.180  13.977  22.752  0.00  0.00    +0.000 A 
ATOM     18  C   UNL     1      -4.210  13.300  22.006  0.00  0.00    +0.000 A 
ATOM     19  H   UNL     1      -3.193  12.743  18.874  0.00  0.00    +0.000 HD
BRANCH   9  20
ATOM     20  C   UNL     1      -0.879  11.393  22.631  0.00  0.00    +0.000 C 
BRANCH  20  21
ATOM     21  O   UNL     1      -1.257  10.205  23.313  0.00  0.00    +0.000 OA
ATOM     22  H   UNL     1      -1.693  10.504  24.142  0.00  0.00    +0.000 HD
ENDBRANCH  20  21
ENDBRANCH   9  20
ENDBRANCH   1  10
BRANCH   4  23
ATOM     23  C   UNL     1       2.086   9.225  17.858  0.00  0.00    +0.000 C 
BRANCH  23  24
ATOM     24  C   UNL     1       2.252   7.931  18.609  0.00  0.00    +0.000 A 
ATOM     25  C   UNL     1       2.731   6.793  17.954  0.00  0.00    +0.000 A 
ATOM     26  C   UNL     1       2.814   5.579  18.635  0.00  0.00    +0.000 A 
ATOM     27  C   UNL     1       2.426   5.476  19.976  0.00  0.00    +0.000 A 
ATOM     28  C   UNL     1       1.951   6.609  20.631  0.00  0.00    +0.000 A 
ATOM     29  C   UNL     1       1.880   7.833  19.957  0.00  0.00    +0.000 A 
BRANCH  27  30
ATOM     30  O   UNL     1       2.544   4.222  20.484  0.00  0.00    +0.000 OA
BRANCH  30  31
ATOM     31  C   UNL     1       1.410   3.387  20.607  0.00  0.00    +0.000 C 
ATOM     32  F   UNL     1       1.175   2.964  21.867  0.00  0.00    +0.000 F 
ATOM     33  F   UNL     1       0.313   4.026  20.142  0.00  0.00    +0.000 F 
ATOM     34  F   UNL     1       1.613   2.288  19.840  0.00  0.00    +0.000 F 
ENDBRANCH  30  31
ENDBRANCH  27  30
ENDBRANCH  23  24
ENDBRANCH   4  23
TORSDOF 7
ENDMDL
MODEL 8
REMARK VINA RESULT:      -8.2      4.234      5.118
REMARK  Name = 
REMARK  7 active torsions:
REMARK  status: ('A' for Active; 'I' for Inactive)
REMARK    1  A    between atoms: C_3  and  C_4
REMARK    2  A    between atoms: C_4  and  O_5
REMARK    3  A    between atoms: C_6  and  C_7
REMARK    4  A    between atoms: C_10  and  C_11
REMARK    5  A    between atoms: C_11  and  C_12
REMARK    6  A    between atoms: C_15  and  O_16
REMARK    7  A    between atoms: O_16  and  C_17
REMARK                            x       y       z     vdW  Elec       q    Type
REMARK                         _______ _______ _______ _____ _____    ______ ____
ROOT
ATOM      1  C   UNL     1       0.348  10.916  19.754  0.00  0.00    +0.000 A 
ATOM      2  C   UNL     1       1.106  11.346  18.658  0.00  0.00    +0.000 A 
ATOM      3  C   UNL     1       1.916  10.439  17.972  0.00  0.00    +0.000 A 
ATOM      4  C   UNL     1       1.977   9.096  18.368  0.00  0.00    +0.000 A 
ATOM      5  C   UNL     1       1.315   8.705  19.540  0.00  0.00    +0.000 A 
ATOM      6  C   UNL     1       0.502   9.606  20.227  0.00  0.00    +0.000 A 
ENDROOT
BRANCH   1  10
ATOM      7  O   UNL     1      -4.062  12.837  19.782  0.00  0.00    +0.000 OA
ATOM      8  C   UNL     1      -2.964  12.686  20.328  0.00  0.00    +0.000 A 
ATOM      9  C   UNL     1      -1.917  11.828  19.693  0.00  0.00    +0.000 A 
ATOM     10  C   UNL     1      -0.712  11.778  20.307  0.00  0.00    +0.000 A 
ATOM     11  N   UNL     1      -0.406  12.464  21.461  0.00  0.00    +0.000 N 
ATOM     12  C   UNL     1      -1.381  13.169  22.172  0.00  0.00    +0.000 A 
ATOM     13  C   UNL     1      -1.100  13.757  23.406  0.00  0.00    +0.000 A 
ATOM     14  C   UNL     1      -2.100  14.457  24.090  0.00  0.00    +0.000 A 
ATOM     15 CL   UNL     1      -1.752  15.142  25.631  0.00  0.00    +0.000 Cl
ATOM     16  C   UNL     1      -3.373  14.603  23.542  0.00  0.00    +0.000 A 
ATOM     17  C   UNL     1      -3.660  14.041  22.301  0.00  0.00    +0.000 A 
ATOM     18  C   UNL     1      -2.668  13.325  21.624  0.00  0.00    +0.000 A 
ATOM     19  H   UNL     1       0.485  12.261  21.903  0.00  0.00    +0.000 HD
BRANCH   9  20
ATOM     20  C   UNL     1      -2.365  11.057  18.479  0.00  0.00    +0.000 C 
BRANCH  20  21
ATOM     21  O   UNL     1      -2.500  11.920  17.359  0.00  0.00    +0.000 OA
ATOM     22  H   UNL     1      -2.075  11.447  16.609  0.00  0.00    +0.000 HD
ENDBRANCH  20  21
ENDBRANCH   9  20
ENDBRANCH   1  10
BRANCH   4  23
ATOM     23  C   UNL     1       2.696   8.076  17.511  0.00  0.00    +0.000 C 
BRANCH  23  24
ATOM     24  C   UNL     1       2.843   6.727  18.164  0.00  0.00    +0.000 A 
ATOM     25  C   UNL     1       1.821   5.778  18.060  0.00  0.00    +0.000 A 
ATOM     26  C   UNL     1       1.931   4.559  18.727  0.00  0.00    +0.000 A 
ATOM     27  C   UNL     1       3.057   4.259  19.503  0.00  0.00    +0.000 A 
ATOM     28  C   UNL     1       4.077   5.201  19.605  0.00  0.00    +0.000 A 
ATOM     29  C   UNL     1       3.979   6.421  18.926  0.00  0.00    +0.000 A 
BRANCH  27  30
ATOM     30  O   UNL     1       2.998   3.043  20.105  0.00  0.00    +0.000 OA
BRANCH  30  31
ATOM     31  C   UNL     1       2.321   2.884  21.336  0.00  0.00    +0.000 C 
ATOM     32  F   UNL     1       2.322   3.991  22.109  0.00  0.00    +0.000 F 
ATOM     33  F   UNL     1       1.046   2.496  21.116  0.00  0.00    +0.000 F 
ATOM     34  F   UNL     1       2.944   1.902  22.033  0.00  0.00    +0.000 F 
ENDBRANCH  30  31
ENDBRANCH  27  30
ENDBRANCH  23  24
ENDBRANCH   4  23
TORSDOF 7
ENDMDL
MODEL 9
REMARK VINA RESULT:      -8.1      1.388      1.584
REMARK  Name = 
REMARK  7 active torsions:
REMARK  status: ('A' for Active; 'I' for Inactive)
REMARK    1  A    between atoms: C_3  and  C_4
REMARK    2  A    between atoms: C_4  and  O_5
REMARK    3  A    between atoms: C_6  and  C_7
REMARK    4  A    between atoms: C_10  and  C_11
REMARK    5  A    between atoms: C_11  and  C_12
REMARK    6  A    between atoms: C_15  and  O_16
REMARK    7  A    between atoms: O_16  and  C_17
REMARK                            x       y       z     vdW  Elec       q    Type
REMARK                         _______ _______ _______ _____ _____    ______ ____
ROOT
ATOM      1  C   UNL     1       1.195   9.325  19.788  0.00  0.00    +0.000 A 
ATOM      2  C   UNL     1       0.922   8.550  20.921  0.00  0.00    +0.000 A 
ATOM      3  C   UNL     1       1.396   7.238  20.998  0.00  0.00    +0.000 A 
ATOM      4  C   UNL     1       2.147   6.689  19.950  0.00  0.00    +0.000 A 
ATOM      5  C   UNL     1       2.306   7.428  18.770  0.00  0.00    +0.000 A 
ATOM      6  C   UNL     1       1.837   8.739  18.690  0.00  0.00    +0.000 A 
ENDROOT
BRANCH   1  10
ATOM      7  O   UNL     1      -0.918  13.315  21.450  0.00  0.00    +0.000 OA
ATOM      8  C   UNL     1      -0.087  12.781  20.708  0.00  0.00    +0.000 A 
ATOM      9  C   UNL     1       0.082  11.297  20.708  0.00  0.00    +0.000 A 
ATOM     10  C   UNL     1       0.951  10.779  19.809  0.00  0.00    +0.000 A 
ATOM     11  N   UNL     1       1.671  11.534  18.910  0.00  0.00    +0.000 N 
ATOM     12  C   UNL     1       1.658  12.931  18.956  0.00  0.00    +0.000 A 
ATOM     13  C   UNL     1       2.484  13.694  18.129  0.00  0.00    +0.000 A 
ATOM     14  C   UNL     1       2.445  15.091  18.199  0.00  0.00    +0.000 A 
ATOM     15 CL   UNL     1       3.500  16.020  17.205  0.00  0.00    +0.000 Cl
ATOM     16  C   UNL     1       1.567  15.739  19.066  0.00  0.00    +0.000 A 
ATOM     17  C   UNL     1       0.720  14.990  19.879  0.00  0.00    +0.000 A 
ATOM     18  C   UNL     1       0.770  13.593  19.824  0.00  0.00    +0.000 A 
ATOM     19  H   UNL     1       2.383  11.059  18.364  0.00  0.00    +0.000 HD
BRANCH   9  20
ATOM     20  C   UNL     1      -0.686  10.561  21.775  0.00  0.00    +0.000 C 
BRANCH  20  21
ATOM     21  O   UNL     1      -0.319  11.025  23.066  0.00  0.00    +0.000 OA
ATOM     22  H   UNL     1      -1.115  11.481  23.419  0.00  0.00    +0.000 HD
ENDBRANCH  20  21
ENDBRANCH   9  20
ENDBRANCH   1  10
BRANCH   4  23
ATOM     23  C   UNL     1       2.825   5.345  20.115  0.00  0.00    +0.000 C 
BRANCH  23  24
ATOM     24  C   UNL     1       3.664   4.937  18.934  0.00  0.00    +0.000 A 
ATOM     25  C   UNL     1       3.110   4.167  17.907  0.00  0.00    +0.000 A 
ATOM     26  C   UNL     1       3.910   3.731  16.852  0.00  0.00    +0.000 A 
ATOM     27  C   UNL     1       5.271   4.055  16.796  0.00  0.00    +0.000 A 
ATOM     28  C   UNL     1       5.824   4.824  17.815  0.00  0.00    +0.000 A 
ATOM     29  C   UNL     1       5.023   5.277  18.869  0.00  0.00    +0.000 A 
BRANCH  27  30
ATOM     30  O   UNL     1       5.913   3.533  15.719  0.00  0.00    +0.000 OA
BRANCH  30  31
ATOM     31  C   UNL     1       6.278   4.358  14.631  0.00  0.00    +0.000 C 
ATOM     32  F   UNL     1       5.426   5.381  14.408  0.00  0.00    +0.000 F 
ATOM     33  F   UNL     1       7.522   4.850  14.821  0.00  0.00    +0.000 F 
ATOM     34  F   UNL     1       6.296   3.593  13.512  0.00  0.00    +0.000 F 
ENDBRANCH  30  31
ENDBRANCH  27  30
ENDBRANCH  23  24
ENDBRANCH   4  23
TORSDOF 7
ENDMDL
