MODEL 1
REMARK VINA RESULT:      -7.8      0.000      0.000
REMARK  Name = 
REMARK  5 active torsions:
REMARK  status: ('A' for Active; 'I' for Inactive)
REMARK    1  A    between atoms: C_10  and  N_11
REMARK    2  A    between atoms: N_11  and  N_12
REMARK    3  A    between atoms: N_12  and  C_13
REMARK    4  A    between atoms: C_13  and  N_15
REMARK    5  A    between atoms: N_15  and  C_16
REMARK                            x       y       z     vdW  Elec       q    Type
REMARK                         _______ _______ _______ _____ _____    ______ ____
ROOT
ATOM      1  N   UNL     1       6.037   3.853  16.789  0.00  0.00    +0.000 N 
ATOM      2  H   UNL     1       6.532   3.118  16.257  0.00  0.00    +0.000 HD
ENDROOT
BRANCH   1  12
ATOM      3  O   UNL     1       6.543   6.299  15.777  0.00  0.00    +0.000 OA
ATOM      4  C   UNL     1       7.102   6.559  16.840  0.00  0.00    +0.000 C 
ATOM      5  N   UNL     1       7.641   7.798  17.068  0.00  0.00    +0.000 N 
ATOM      6  C   UNL     1       8.252   8.211  18.212  0.00  0.00    +0.000 C 
ATOM      7  S   UNL     1       8.838   9.758  18.364  0.00  0.00    +0.000 S 
ATOM      8  N   UNL     1       8.363   7.303  19.226  0.00  0.00    +0.000 N 
ATOM      9  C   UNL     1       7.904   6.014  19.215  0.00  0.00    +0.000 C 
ATOM     10  O   UNL     1       8.051   5.276  20.185  0.00  0.00    +0.000 OA
ATOM     11  C   UNL     1       7.223   5.602  17.969  0.00  0.00    +0.000 C 
ATOM     12  C   UNL     1       6.692   4.369  17.874  0.00  0.00    +0.000 C 
ATOM     13  H   UNL     1       7.554   8.460  16.309  0.00  0.00    +0.000 HD
ATOM     14  H   UNL     1       8.825   7.603  20.075  0.00  0.00    +0.000 HD
ENDBRANCH   1  12
BRANCH   1  15
ATOM     15  N   UNL     1       4.789   4.196  16.310  0.00  0.00    +0.000 N 
ATOM     16  H   UNL     1       4.742   4.619  15.386  0.00  0.00    +0.000 HD
BRANCH  15  17
ATOM     17  C   UNL     1       3.774   4.513  17.218  0.00  0.00    +0.000 C 
ATOM     18  S   UNL     1       3.482   6.062  17.797  0.00  0.00    +0.000 S 
BRANCH  17  19
ATOM     19  N   UNL     1       3.160   3.348  17.665  0.00  0.00    +0.000 N 
ATOM     20  H   UNL     1       3.446   2.532  17.137  0.00  0.00    +0.000 HD
BRANCH  19  21
ATOM     21  C   UNL     1       2.613   3.099  18.940  0.00  0.00    +0.000 A 
ATOM     22  C   UNL     1       3.419   2.704  20.010  0.00  0.00    +0.000 A 
ATOM     23  C   UNL     1       2.872   2.553  21.285  0.00  0.00    +0.000 A 
ATOM     24  C   UNL     1       1.515   2.790  21.496  0.00  0.00    +0.000 A 
ATOM     25  C   UNL     1       0.706   3.185  20.432  0.00  0.00    +0.000 A 
ATOM     26  C   UNL     1       1.256   3.356  19.159  0.00  0.00    +0.000 A 
ENDBRANCH  19  21
ENDBRANCH  17  19
ENDBRANCH  15  17
ENDBRANCH   1  15
TORSDOF 5
ENDMDL
MODEL 2
REMARK VINA RESULT:      -7.8      0.307      1.086
REMARK  Name = 
REMARK  5 active torsions:
REMARK  status: ('A' for Active; 'I' for Inactive)
REMARK    1  A    between atoms: C_10  and  N_11
REMARK    2  A    between atoms: N_11  and  N_12
REMARK    3  A    between atoms: N_12  and  C_13
REMARK    4  A    between atoms: C_13  and  N_15
REMARK    5  A    between atoms: N_15  and  C_16
REMARK                            x       y       z     vdW  Elec       q    Type
REMARK                         _______ _______ _______ _____ _____    ______ ____
ROOT
ATOM      1  N   UNL     1       6.203   3.853  16.538  0.00  0.00    +0.000 N 
ATOM      2  H   UNL     1       6.781   3.425  15.794  0.00  0.00    +0.000 HD
ENDROOT
BRANCH   1  12
ATOM      3  O   UNL     1       6.517   6.389  15.680  0.00  0.00    +0.000 OA
ATOM      4  C   UNL     1       7.104   6.612  16.736  0.00  0.00    +0.000 C 
ATOM      5  N   UNL     1       7.576   7.865  17.029  0.00  0.00    +0.000 N 
ATOM      6  C   UNL     1       8.209   8.238  18.174  0.00  0.00    +0.000 C 
ATOM      7  S   UNL     1       8.707   9.805  18.411  0.00  0.00    +0.000 S 
ATOM      8  N   UNL     1       8.419   7.272  19.117  0.00  0.00    +0.000 N 
ATOM      9  C   UNL     1       8.039   5.960  19.034  0.00  0.00    +0.000 C 
ATOM     10  O   UNL     1       8.272   5.169  19.944  0.00  0.00    +0.000 OA
ATOM     11  C   UNL     1       7.331   5.591  17.790  0.00  0.00    +0.000 C 
ATOM     12  C   UNL     1       6.872   4.335  17.629  0.00  0.00    +0.000 C 
ATOM     13  H   UNL     1       7.416   8.568  16.321  0.00  0.00    +0.000 HD
ATOM     14  H   UNL     1       8.898   7.543  19.967  0.00  0.00    +0.000 HD
ENDBRANCH   1  12
BRANCH   1  15
ATOM     15  N   UNL     1       4.844   3.869  16.301  0.00  0.00    +0.000 N 
ATOM     16  H   UNL     1       4.538   4.038  15.346  0.00  0.00    +0.000 HD
BRANCH  15  17
ATOM     17  C   UNL     1       3.977   4.239  17.332  0.00  0.00    +0.000 C 
ATOM     18  S   UNL     1       3.543   5.825  17.672  0.00  0.00    +0.000 S 
BRANCH  17  19
ATOM     19  N   UNL     1       3.658   3.126  18.103  0.00  0.00    +0.000 N 
ATOM     20  H   UNL     1       4.345   2.386  18.018  0.00  0.00    +0.000 HD
BRANCH  19  21
ATOM     21  C   UNL     1       2.838   3.080  19.249  0.00  0.00    +0.000 A 
ATOM     22  C   UNL     1       1.465   3.316  19.168  0.00  0.00    +0.000 A 
ATOM     23  C   UNL     1       0.658   3.174  20.298  0.00  0.00    +0.000 A 
ATOM     24  C   UNL     1       1.221   2.803  21.517  0.00  0.00    +0.000 A 
ATOM     25  C   UNL     1       2.592   2.565  21.604  0.00  0.00    +0.000 A 
ATOM     26  C   UNL     1       3.398   2.687  20.469  0.00  0.00    +0.000 A 
ENDBRANCH  19  21
ENDBRANCH  17  19
ENDBRANCH  15  17
ENDBRANCH   1  15
TORSDOF 5
ENDMDL
MODEL 3
REMARK VINA RESULT:      -7.5      2.192      3.284
REMARK  Name = 
REMARK  5 active torsions:
REMARK  status: ('A' for Active; 'I' for Inactive)
REMARK    1  A    between atoms: C_10  and  N_11
REMARK    2  A    between atoms: N_11  and  N_12
REMARK    3  A    between atoms: N_12  and  C_13
REMARK    4  A    between atoms: C_13  and  N_15
REMARK    5  A    between atoms: N_15  and  C_16
REMARK                            x       y       z     vdW  Elec       q    Type
REMARK                         _______ _______ _______ _____ _____    ______ ____
ROOT
ATOM      1  N   UNL     1       6.097   3.671  18.483  0.00  0.00    +0.000 N 
ATOM      2  H   UNL     1       6.867   3.006  18.294  0.00  0.00    +0.000 HD
ENDROOT
BRANCH   1  12
ATOM      3  O   UNL     1       7.854   5.187  19.853  0.00  0.00    +0.000 OA
ATOM      4  C   UNL     1       7.649   6.070  19.023  0.00  0.00    +0.000 C 
ATOM      5  N   UNL     1       8.313   7.268  19.090  0.00  0.00    +0.000 N 
ATOM      6  C   UNL     1       8.194   8.302  18.213  0.00  0.00    +0.000 C 
ATOM      7  S   UNL     1       9.085   9.692  18.399  0.00  0.00    +0.000 S 
ATOM      8  N   UNL     1       7.314   8.151  17.181  0.00  0.00    +0.000 N 
ATOM      9  C   UNL     1       6.546   7.048  16.924  0.00  0.00    +0.000 C 
ATOM     10  O   UNL     1       5.785   7.010  15.961  0.00  0.00    +0.000 OA
ATOM     11  C   UNL     1       6.715   5.931  17.877  0.00  0.00    +0.000 C 
ATOM     12  C   UNL     1       6.039   4.782  17.688  0.00  0.00    +0.000 C 
ATOM     13  H   UNL     1       8.960   7.367  19.860  0.00  0.00    +0.000 HD
ATOM     14  H   UNL     1       7.216   8.921  16.532  0.00  0.00    +0.000 HD
ENDBRANCH   1  12
BRANCH   1  15
ATOM     15  N   UNL     1       5.249   3.320  19.514  0.00  0.00    +0.000 N 
ATOM     16  H   UNL     1       5.659   2.852  20.319  0.00  0.00    +0.000 HD
BRANCH  15  17
ATOM     17  C   UNL     1       3.904   3.061  19.231  0.00  0.00    +0.000 C 
ATOM     18  S   UNL     1       3.382   1.949  18.086  0.00  0.00    +0.000 S 
BRANCH  17  19
ATOM     19  N   UNL     1       3.096   3.955  19.926  0.00  0.00    +0.000 N 
ATOM     20  H   UNL     1       2.997   3.710  20.904  0.00  0.00    +0.000 HD
BRANCH  19  21
ATOM     21  C   UNL     1       2.813   5.295  19.592  0.00  0.00    +0.000 A 
ATOM     22  C   UNL     1       2.981   5.769  18.289  0.00  0.00    +0.000 A 
ATOM     23  C   UNL     1       2.607   7.074  17.962  0.00  0.00    +0.000 A 
ATOM     24  C   UNL     1       2.071   7.913  18.935  0.00  0.00    +0.000 A 
ATOM     25  C   UNL     1       1.901   7.445  20.238  0.00  0.00    +0.000 A 
ATOM     26  C   UNL     1       2.255   6.133  20.563  0.00  0.00    +0.000 A 
ENDBRANCH  19  21
ENDBRANCH  17  19
ENDBRANCH  15  17
ENDBRANCH   1  15
TORSDOF 5
ENDMDL
MODEL 4
REMARK VINA RESULT:      -7.2      2.169      2.819
REMARK  Name = 
REMARK  5 active torsions:
REMARK  status: ('A' for Active; 'I' for Inactive)
REMARK    1  A    between atoms: C_10  and  N_11
REMARK    2  A    between atoms: N_11  and  N_12
REMARK    3  A    between atoms: N_12  and  C_13
REMARK    4  A    between atoms: C_13  and  N_15
REMARK    5  A    between atoms: N_15  and  C_16
REMARK                            x       y       z     vdW  Elec       q    Type
REMARK                         _______ _______ _______ _____ _____    ______ ____
ROOT
ATOM      1  N   UNL     1       5.912   3.863  16.778  0.00  0.00    +0.000 N 
ATOM      2  H   UNL     1       6.394   3.303  16.054  0.00  0.00    +0.000 HD
ENDROOT
BRANCH   1  12
ATOM      3  O   UNL     1       6.192   6.373  15.839  0.00  0.00    +0.000 OA
ATOM      4  C   UNL     1       6.881   6.604  16.830  0.00  0.00    +0.000 C 
ATOM      5  N   UNL     1       7.404   7.852  17.049  0.00  0.00    +0.000 N 
ATOM      6  C   UNL     1       8.150   8.234  18.121  0.00  0.00    +0.000 C 
ATOM      7  S   UNL     1       8.698   9.795  18.275  0.00  0.00    +0.000 S 
ATOM      8  N   UNL     1       8.429   7.284  19.060  0.00  0.00    +0.000 N 
ATOM      9  C   UNL     1       8.017   5.979  19.043  0.00  0.00    +0.000 C 
ATOM     10  O   UNL     1       8.320   5.201  19.944  0.00  0.00    +0.000 OA
ATOM     11  C   UNL     1       7.187   5.600  17.880  0.00  0.00    +0.000 C 
ATOM     12  C   UNL     1       6.691   4.352  17.791  0.00  0.00    +0.000 C 
ATOM     13  H   UNL     1       7.191   8.545  16.345  0.00  0.00    +0.000 HD
ATOM     14  H   UNL     1       8.992   7.561  19.855  0.00  0.00    +0.000 HD
ENDBRANCH   1  12
BRANCH   1  15
ATOM     15  N   UNL     1       4.554   4.026  16.598  0.00  0.00    +0.000 N 
ATOM     16  H   UNL     1       4.251   4.616  15.827  0.00  0.00    +0.000 HD
BRANCH  15  17
ATOM     17  C   UNL     1       3.702   3.918  17.702  0.00  0.00    +0.000 C 
ATOM     18  S   UNL     1       2.427   2.830  17.802  0.00  0.00    +0.000 S 
BRANCH  17  19
ATOM     19  N   UNL     1       3.982   4.930  18.614  0.00  0.00    +0.000 N 
ATOM     20  H   UNL     1       4.941   4.903  18.942  0.00  0.00    +0.000 HD
BRANCH  19  21
ATOM     21  C   UNL     1       3.312   6.162  18.763  0.00  0.00    +0.000 A 
ATOM     22  C   UNL     1       3.334   7.127  17.754  0.00  0.00    +0.000 A 
ATOM     23  C   UNL     1       2.589   8.299  17.885  0.00  0.00    +0.000 A 
ATOM     24  C   UNL     1       1.822   8.516  19.028  0.00  0.00    +0.000 A 
ATOM     25  C   UNL     1       1.795   7.556  20.038  0.00  0.00    +0.000 A 
ATOM     26  C   UNL     1       2.525   6.373  19.900  0.00  0.00    +0.000 A 
ENDBRANCH  19  21
ENDBRANCH  17  19
ENDBRANCH  15  17
ENDBRANCH   1  15
TORSDOF 5
ENDMDL
MODEL 5
REMARK VINA RESULT:      -7.2      3.779      4.941
REMARK  Name = 
REMARK  5 active torsions:
REMARK  status: ('A' for Active; 'I' for Inactive)
REMARK    1  A    between atoms: C_10  and  N_11
REMARK    2  A    between atoms: N_11  and  N_12
REMARK    3  A    between atoms: N_12  and  C_13
REMARK    4  A    between atoms: C_13  and  N_15
REMARK    5  A    between atoms: N_15  and  C_16
REMARK                            x       y       z     vdW  Elec       q    Type
REMARK                         _______ _______ _______ _____ _____    ______ ____
ROOT
ATOM      1  N   UNL     1       4.139   6.346  17.522  0.00  0.00    +0.000 N 
ATOM      2  H   UNL     1       5.148   6.455  17.725  0.00  0.00    +0.000 HD
ENDROOT
BRANCH   1  12
ATOM      3  O   UNL     1       3.051   5.983  19.961  0.00  0.00    +0.000 OA
ATOM      4  C   UNL     1       2.451   7.041  19.785  0.00  0.00    +0.000 C 
ATOM      5  N   UNL     1       1.628   7.553  20.755  0.00  0.00    +0.000 N 
ATOM      6  C   UNL     1       0.940   8.726  20.688  0.00  0.00    +0.000 C 
ATOM      7  S   UNL     1      -0.003   9.243  21.955  0.00  0.00    +0.000 S 
ATOM      8  N   UNL     1       1.057   9.456  19.540  0.00  0.00    +0.000 N 
ATOM      9  C   UNL     1       1.815   9.135  18.447  0.00  0.00    +0.000 C 
ATOM     10  O   UNL     1       1.855   9.866  17.461  0.00  0.00    +0.000 OA
ATOM     11  C   UNL     1       2.570   7.869  18.558  0.00  0.00    +0.000 C 
ATOM     12  C   UNL     1       3.383   7.485  17.557  0.00  0.00    +0.000 C 
ATOM     13  H   UNL     1       1.550   7.002  21.598  0.00  0.00    +0.000 HD
ATOM     14  H   UNL     1       0.540  10.324  19.482  0.00  0.00    +0.000 HD
ENDBRANCH   1  12
BRANCH   1  15
ATOM     15  N   UNL     1       3.724   5.060  17.245  0.00  0.00    +0.000 N 
ATOM     16  H   UNL     1       2.770   4.812  17.497  0.00  0.00    +0.000 HD
BRANCH  15  17
ATOM     17  C   UNL     1       4.669   4.031  17.206  0.00  0.00    +0.000 C 
ATOM     18  S   UNL     1       6.173   4.166  16.472  0.00  0.00    +0.000 S 
BRANCH  17  19
ATOM     19  N   UNL     1       4.119   2.865  17.727  0.00  0.00    +0.000 N 
ATOM     20  H   UNL     1       4.693   2.050  17.544  0.00  0.00    +0.000 HD
BRANCH  19  21
ATOM     21  C   UNL     1       3.200   2.748  18.789  0.00  0.00    +0.000 A 
ATOM     22  C   UNL     1       3.628   2.700  20.117  0.00  0.00    +0.000 A 
ATOM     23  C   UNL     1       2.698   2.677  21.157  0.00  0.00    +0.000 A 
ATOM     24  C   UNL     1       1.334   2.696  20.875  0.00  0.00    +0.000 A 
ATOM     25  C   UNL     1       0.900   2.745  19.551  0.00  0.00    +0.000 A 
ATOM     26  C   UNL     1       1.830   2.788  18.509  0.00  0.00    +0.000 A 
ENDBRANCH  19  21
ENDBRANCH  17  19
ENDBRANCH  15  17
ENDBRANCH   1  15
TORSDOF 5
ENDMDL
MODEL 6
REMARK VINA RESULT:      -7.1      3.613      4.534
REMARK  Name = 
REMARK  5 active torsions:
REMARK  status: ('A' for Active; 'I' for Inactive)
REMARK    1  A    between atoms: C_10  and  N_11
REMARK    2  A    between atoms: N_11  and  N_12
REMARK    3  A    between atoms: N_12  and  C_13
REMARK    4  A    between atoms: C_13  and  N_15
REMARK    5  A    between atoms: N_15  and  C_16
REMARK                            x       y       z     vdW  Elec       q    Type
REMARK                         _______ _______ _______ _____ _____    ______ ____
ROOT
ATOM      1  N   UNL     1       4.718   5.175  19.566  0.00  0.00    +0.000 N 
ATOM      2  H   UNL     1       4.632   6.122  19.974  0.00  0.00    +0.000 HD
ENDROOT
BRANCH   1  12
ATOM      3  O   UNL     1       3.962   5.437  16.993  0.00  0.00    +0.000 OA
ATOM      4  C   UNL     1       5.111   5.127  16.685  0.00  0.00    +0.000 C 
ATOM      5  N   UNL     1       5.500   5.079  15.371  0.00  0.00    +0.000 N 
ATOM      6  C   UNL     1       6.746   4.782  14.912  0.00  0.00    +0.000 C 
ATOM      7  S   UNL     1       7.088   4.789  13.287  0.00  0.00    +0.000 S 
ATOM      8  N   UNL     1       7.699   4.477  15.841  0.00  0.00    +0.000 N 
ATOM      9  C   UNL     1       7.532   4.456  17.199  0.00  0.00    +0.000 C 
ATOM     10  O   UNL     1       8.460   4.172  17.952  0.00  0.00    +0.000 OA
ATOM     11  C   UNL     1       6.176   4.809  17.669  0.00  0.00    +0.000 C 
ATOM     12  C   UNL     1       5.919   4.864  18.989  0.00  0.00    +0.000 C 
ATOM     13  H   UNL     1       4.783   5.305  14.695  0.00  0.00    +0.000 HD
ATOM     14  H   UNL     1       8.625   4.246  15.504  0.00  0.00    +0.000 HD
ENDBRANCH   1  12
BRANCH   1  15
ATOM     15  N   UNL     1       3.598   4.376  19.676  0.00  0.00    +0.000 N 
ATOM     16  H   UNL     1       3.521   3.588  19.038  0.00  0.00    +0.000 HD
BRANCH  15  17
ATOM     17  C   UNL     1       2.411   4.930  20.165  0.00  0.00    +0.000 C 
ATOM     18  S   UNL     1       0.930   4.141  20.149  0.00  0.00    +0.000 S 
BRANCH  17  19
ATOM     19  N   UNL     1       2.622   6.259  20.518  0.00  0.00    +0.000 N 
ATOM     20  H   UNL     1       3.454   6.383  21.083  0.00  0.00    +0.000 HD
BRANCH  19  21
ATOM     21  C   UNL     1       2.145   7.410  19.858  0.00  0.00    +0.000 A 
ATOM     22  C   UNL     1       2.361   7.604  18.492  0.00  0.00    +0.000 A 
ATOM     23  C   UNL     1       1.802   8.704  17.841  0.00  0.00    +0.000 A 
ATOM     24  C   UNL     1       1.029   9.619  18.552  0.00  0.00    +0.000 A 
ATOM     25  C   UNL     1       0.809   9.430  19.915  0.00  0.00    +0.000 A 
ATOM     26  C   UNL     1       1.352   8.319  20.566  0.00  0.00    +0.000 A 
ENDBRANCH  19  21
ENDBRANCH  17  19
ENDBRANCH  15  17
ENDBRANCH   1  15
TORSDOF 5
ENDMDL
MODEL 7
REMARK VINA RESULT:      -7.0      2.678      3.768
REMARK  Name = 
REMARK  5 active torsions:
REMARK  status: ('A' for Active; 'I' for Inactive)
REMARK    1  A    between atoms: C_10  and  N_11
REMARK    2  A    between atoms: N_11  and  N_12
REMARK    3  A    between atoms: N_12  and  C_13
REMARK    4  A    between atoms: C_13  and  N_15
REMARK    5  A    between atoms: N_15  and  C_16
REMARK                            x       y       z     vdW  Elec       q    Type
REMARK                         _______ _______ _______ _____ _____    ______ ____
ROOT
ATOM      1  N   UNL     1       4.763   3.089  18.183  0.00  0.00    +0.000 N 
ATOM      2  H   UNL     1       5.161   2.154  17.992  0.00  0.00    +0.000 HD
ENDROOT
BRANCH   1  12
ATOM      3  O   UNL     1       6.350   4.658  19.693  0.00  0.00    +0.000 OA
ATOM      4  C   UNL     1       6.430   5.410  18.724  0.00  0.00    +0.000 C 
ATOM      5  N   UNL     1       7.199   6.544  18.774  0.00  0.00    +0.000 N 
ATOM      6  C   UNL     1       7.390   7.430  17.758  0.00  0.00    +0.000 C 
ATOM      7  S   UNL     1       8.375   8.755  17.947  0.00  0.00    +0.000 S 
ATOM      8  N   UNL     1       6.739   7.186  16.583  0.00  0.00    +0.000 N 
ATOM      9  C   UNL     1       5.920   6.123  16.314  0.00  0.00    +0.000 C 
ATOM     10  O   UNL     1       5.383   5.992  15.217  0.00  0.00    +0.000 OA
ATOM     11  C   UNL     1       5.752   5.164  17.426  0.00  0.00    +0.000 C 
ATOM     12  C   UNL     1       5.005   4.059  17.249  0.00  0.00    +0.000 C 
ATOM     13  H   UNL     1       7.673   6.713  19.650  0.00  0.00    +0.000 HD
ATOM     14  H   UNL     1       6.870   7.847  15.828  0.00  0.00    +0.000 HD
ENDBRANCH   1  12
BRANCH   1  15
ATOM     15  N   UNL     1       4.045   3.202  19.356  0.00  0.00    +0.000 N 
ATOM     16  H   UNL     1       4.116   2.437  20.023  0.00  0.00    +0.000 HD
BRANCH  15  17
ATOM     17  C   UNL     1       2.872   3.962  19.368  0.00  0.00    +0.000 C 
ATOM     18  S   UNL     1       1.462   3.526  18.569  0.00  0.00    +0.000 S 
BRANCH  17  19
ATOM     19  N   UNL     1       3.104   5.177  20.005  0.00  0.00    +0.000 N 
ATOM     20  H   UNL     1       3.927   5.154  20.596  0.00  0.00    +0.000 HD
BRANCH  19  21
ATOM     21  C   UNL     1       2.667   6.456  19.603  0.00  0.00    +0.000 A 
ATOM     22  C   UNL     1       2.892   6.925  18.307  0.00  0.00    +0.000 A 
ATOM     23  C   UNL     1       2.370   8.155  17.903  0.00  0.00    +0.000 A 
ATOM     24  C   UNL     1       1.626   8.925  18.794  0.00  0.00    +0.000 A 
ATOM     25  C   UNL     1       1.396   8.461  20.089  0.00  0.00    +0.000 A 
ATOM     26  C   UNL     1       1.901   7.221  20.489  0.00  0.00    +0.000 A 
ENDBRANCH  19  21
ENDBRANCH  17  19
ENDBRANCH  15  17
ENDBRANCH   1  15
TORSDOF 5
ENDMDL
MODEL 8
REMARK VINA RESULT:      -7.0      2.394      3.437
REMARK  Name = 
REMARK  5 active torsions:
REMARK  status: ('A' for Active; 'I' for Inactive)
REMARK    1  A    between atoms: C_10  and  N_11
REMARK    2  A    between atoms: N_11  and  N_12
REMARK    3  A    between atoms: N_12  and  C_13
REMARK    4  A    between atoms: C_13  and  N_15
REMARK    5  A    between atoms: N_15  and  C_16
REMARK                            x       y       z     vdW  Elec       q    Type
REMARK                         _______ _______ _______ _____ _____    ______ ____
ROOT
ATOM      1  N   UNL     1       4.478   2.812  17.565  0.00  0.00    +0.000 N 
ATOM      2  H   UNL     1       5.173   2.393  18.206  0.00  0.00    +0.000 HD
ENDROOT
BRANCH   1  12
ATOM      3  O   UNL     1       5.844   4.262  19.380  0.00  0.00    +0.000 OA
ATOM      4  C   UNL     1       6.139   5.024  18.462  0.00  0.00    +0.000 C 
ATOM      5  N   UNL     1       6.944   6.112  18.681  0.00  0.00    +0.000 N 
ATOM      6  C   UNL     1       7.363   7.003  17.742  0.00  0.00    +0.000 C 
ATOM      7  S   UNL     1       8.365   8.266  18.143  0.00  0.00    +0.000 S 
ATOM      8  N   UNL     1       6.925   6.817  16.463  0.00  0.00    +0.000 N 
ATOM      9  C   UNL     1       6.114   5.807  16.020  0.00  0.00    +0.000 C 
ATOM     10  O   UNL     1       5.780   5.727  14.841  0.00  0.00    +0.000 OA
ATOM     11  C   UNL     1       5.696   4.840  17.057  0.00  0.00    +0.000 C 
ATOM     12  C   UNL     1       4.937   3.782  16.717  0.00  0.00    +0.000 C 
ATOM     13  H   UNL     1       7.258   6.238  19.633  0.00  0.00    +0.000 HD
ATOM     14  H   UNL     1       7.226   7.483  15.762  0.00  0.00    +0.000 HD
ENDBRANCH   1  12
BRANCH   1  15
ATOM     15  N   UNL     1       3.194   2.315  17.671  0.00  0.00    +0.000 N 
ATOM     16  H   UNL     1       2.770   1.931  16.830  0.00  0.00    +0.000 HD
BRANCH  15  17
ATOM     17  C   UNL     1       2.339   2.840  18.644  0.00  0.00    +0.000 C 
ATOM     18  S   UNL     1       0.741   2.367  18.844  0.00  0.00    +0.000 S 
BRANCH  17  19
ATOM     19  N   UNL     1       2.965   3.893  19.303  0.00  0.00    +0.000 N 
ATOM     20  H   UNL     1       3.963   3.750  19.404  0.00  0.00    +0.000 HD
BRANCH  19  21
ATOM     21  C   UNL     1       2.517   5.226  19.413  0.00  0.00    +0.000 A 
ATOM     22  C   UNL     1       1.952   5.706  20.596  0.00  0.00    +0.000 A 
ATOM     23  C   UNL     1       1.601   7.052  20.713  0.00  0.00    +0.000 A 
ATOM     24  C   UNL     1       1.806   7.923  19.646  0.00  0.00    +0.000 A 
ATOM     25  C   UNL     1       2.371   7.450  18.462  0.00  0.00    +0.000 A 
ATOM     26  C   UNL     1       2.742   6.107  18.350  0.00  0.00    +0.000 A 
ENDBRANCH  19  21
ENDBRANCH  17  19
ENDBRANCH  15  17
ENDBRANCH   1  15
TORSDOF 5
ENDMDL
MODEL 9
REMARK VINA RESULT:      -7.0      3.514      6.844
REMARK  Name = 
REMARK  5 active torsions:
REMARK  status: ('A' for Active; 'I' for Inactive)
REMARK    1  A    between atoms: C_10  and  N_11
REMARK    2  A    between atoms: N_11  and  N_12
REMARK    3  A    between atoms: N_12  and  C_13
REMARK    4  A    between atoms: C_13  and  N_15
REMARK    5  A    between atoms: N_15  and  C_16
REMARK                            x       y       z     vdW  Elec       q    Type
REMARK                         _______ _______ _______ _____ _____    ______ ____
ROOT
ATOM      1  N   UNL     1       4.604   6.363  16.971  0.00  0.00    +0.000 N 
ATOM      2  H   UNL     1       4.241   7.145  17.544  0.00  0.00    +0.000 HD
ENDROOT
BRANCH   1  12
ATOM      3  O   UNL     1       4.163   6.215  19.626  0.00  0.00    +0.000 OA
ATOM      4  C   UNL     1       3.537   5.181  19.405  0.00  0.00    +0.000 C 
ATOM      5  N   UNL     1       2.930   4.493  20.423  0.00  0.00    +0.000 N 
ATOM      6  C   UNL     1       2.187   3.359  20.297  0.00  0.00    +0.000 C 
ATOM      7  S   UNL     1       1.482   2.642  21.618  0.00  0.00    +0.000 S 
ATOM      8  N   UNL     1       2.048   2.839  19.042  0.00  0.00    +0.000 N 
ATOM      9  C   UNL     1       2.569   3.354  17.886  0.00  0.00    +0.000 C 
ATOM     10  O   UNL     1       2.380   2.809  16.802  0.00  0.00    +0.000 OA
ATOM     11  C   UNL     1       3.349   4.598  18.051  0.00  0.00    +0.000 C 
ATOM     12  C   UNL     1       3.865   5.212  16.970  0.00  0.00    +0.000 C 
ATOM     13  H   UNL     1       3.044   4.888  21.346  0.00  0.00    +0.000 HD
ATOM     14  H   UNL     1       1.503   1.991  18.944  0.00  0.00    +0.000 HD
ENDBRANCH   1  12
BRANCH   1  15
ATOM     15  N   UNL     1       5.782   6.616  16.298  0.00  0.00    +0.000 N 
ATOM     16  H   UNL     1       5.712   7.054  15.382  0.00  0.00    +0.000 HD
BRANCH  15  17
ATOM     17  C   UNL     1       6.896   5.809  16.545  0.00  0.00    +0.000 C 
ATOM     18  S   UNL     1       7.393   5.339  18.079  0.00  0.00    +0.000 S 
BRANCH  17  19
ATOM     19  N   UNL     1       7.591   5.589  15.361  0.00  0.00    +0.000 N 
ATOM     20  H   UNL     1       8.596   5.592  15.494  0.00  0.00    +0.000 HD
BRANCH  19  21
ATOM     21  C   UNL     1       7.124   4.945  14.197  0.00  0.00    +0.000 A 
ATOM     22  C   UNL     1       7.733   5.155  12.958  0.00  0.00    +0.000 A 
ATOM     23  C   UNL     1       7.314   4.437  11.837  0.00  0.00    +0.000 A 
ATOM     24  C   UNL     1       6.278   3.512  11.946  0.00  0.00    +0.000 A 
ATOM     25  C   UNL     1       5.666   3.298  13.180  0.00  0.00    +0.000 A 
ATOM     26  C   UNL     1       6.098   4.000  14.308  0.00  0.00    +0.000 A 
ENDBRANCH  19  21
ENDBRANCH  17  19
ENDBRANCH  15  17
ENDBRANCH   1  15
TORSDOF 5
ENDMDL
