MODEL 1
REMARK VINA RESULT:      -8.4      0.000      0.000
REMARK  Name = 
REMARK  10 active torsions:
REMARK  status: ('A' for Active; 'I' for Inactive)
REMARK    1  A    between atoms: C_1  and  C_2
REMARK    2  A    between atoms: C_2  and  C_3
REMARK    3  A    between atoms: C_2  and  C_4
REMARK    4  A    between atoms: C_4  and  C_5
REMARK    5  A    between atoms: C_5  and  C_6
REMARK    6  A    between atoms: C_6  and  C_7
REMARK    7  A    between atoms: C_8  and  O_9
REMARK    8  A    between atoms: C_12  and  C_13
REMARK    9  A    between atoms: C_13  and  C_15
REMARK   10  A    between atoms: C_22  and  O_23
REMARK                            x       y       z     vdW  Elec       q    Type
REMARK                         _______ _______ _______ _____ _____    ______ ____
ROOT
ATOM      1  C   UNL     1       3.402   5.566  19.585  0.00  0.00    +0.000 A 
ATOM      2  C   UNL     1       2.976   6.773  19.010  0.00  0.00    +0.000 A 
ATOM      3  C   UNL     1       3.623   7.323  17.906  0.00  0.00    +0.000 A 
ATOM      4  C   UNL     1       4.734   6.692  17.358  0.00  0.00    +0.000 A 
ATOM      5  C   UNL     1       5.228   5.516  17.934  0.00  0.00    +0.000 A 
ATOM      6  C   UNL     1       4.550   4.952  19.035  0.00  0.00    +0.000 A 
ENDROOT
BRANCH   2   7
ATOM      7  O   UNL     1       1.916   7.498  19.477  0.00  0.00    +0.000 OA
ATOM      8  H   UNL     1       2.027   7.669  20.425  0.00  0.00    +0.000 HD
ENDBRANCH   2   7
BRANCH   5   9
ATOM      9  C   UNL     1       6.417   4.835  17.341  0.00  0.00    +0.000 C 
ATOM     10  O   UNL     1       7.282   4.423  18.113  0.00  0.00    +0.000 OA
BRANCH   9  11
ATOM     11  C   UNL     1       6.526   4.649  15.907  0.00  0.00    +0.000 A 
ATOM     12  C   UNL     1       5.826   3.816  15.042  0.00  0.00    +0.000 A 
ATOM     13  C   UNL     1       6.332   4.010  13.733  0.00  0.00    +0.000 A 
ATOM     14 CL   UNL     1       5.794   3.184  12.355  0.00  0.00    +0.000 Cl
ATOM     15  C   UNL     1       7.306   4.964  13.834  0.00  0.00    +0.000 A 
ATOM     16 CL   UNL     1       8.346   5.676  12.696  0.00  0.00    +0.000 Cl
ATOM     17  N   UNL     1       7.401   5.379  15.126  0.00  0.00    +0.000 N 
ATOM     18  H   UNL     1       8.035   6.089  15.471  0.00  0.00    +0.000 HD
ENDBRANCH   9  11
ENDBRANCH   5   9
BRANCH   6  19
ATOM     19  O   UNL     1       4.994   3.789  19.618  0.00  0.00    +0.000 OA
ATOM     20  H   UNL     1       5.974   3.759  19.565  0.00  0.00    +0.000 HD
ENDBRANCH   6  19
BRANCH   1  21
ATOM     21  C   UNL     1       2.655   4.927  20.741  0.00  0.00    +0.000 C 
BRANCH  21  22
ATOM     22  C   UNL     1       1.312   4.277  20.359  0.00  0.00    +0.000 C 
BRANCH  22  23
ATOM     23  C   UNL     1       1.400   2.814  19.908  0.00  0.00    +0.000 C 
BRANCH  23  25
ATOM     24  C   UNL     1       1.234   3.917  17.623  0.00  0.00    +0.000 C 
ATOM     25  C   UNL     1       1.421   2.604  18.385  0.00  0.00    +0.000 C 
ATOM     26  C   UNL     1       2.730   1.934  17.966  0.00  0.00    +0.000 C 
ENDBRANCH  23  25
ENDBRANCH  22  23
ENDBRANCH  21  22
ENDBRANCH   1  21
TORSDOF 8
ENDMDL
MODEL 2
REMARK VINA RESULT:      -7.5      4.034      6.719
REMARK  Name = 
REMARK  10 active torsions:
REMARK  status: ('A' for Active; 'I' for Inactive)
REMARK    1  A    between atoms: C_1  and  C_2
REMARK    2  A    between atoms: C_2  and  C_3
REMARK    3  A    between atoms: C_2  and  C_4
REMARK    4  A    between atoms: C_4  and  C_5
REMARK    5  A    between atoms: C_5  and  C_6
REMARK    6  A    between atoms: C_6  and  C_7
REMARK    7  A    between atoms: C_8  and  O_9
REMARK    8  A    between atoms: C_12  and  C_13
REMARK    9  A    between atoms: C_13  and  C_15
REMARK   10  A    between atoms: C_22  and  O_23
REMARK                            x       y       z     vdW  Elec       q    Type
REMARK                         _______ _______ _______ _____ _____    ______ ____
ROOT
ATOM      1  C   UNL     1       5.688   4.145  16.708  0.00  0.00    +0.000 A 
ATOM      2  C   UNL     1       6.898   4.595  17.260  0.00  0.00    +0.000 A 
ATOM      3  C   UNL     1       6.946   5.199  18.515  0.00  0.00    +0.000 A 
ATOM      4  C   UNL     1       5.779   5.392  19.245  0.00  0.00    +0.000 A 
ATOM      5  C   UNL     1       4.544   5.010  18.709  0.00  0.00    +0.000 A 
ATOM      6  C   UNL     1       4.508   4.375  17.449  0.00  0.00    +0.000 A 
ENDROOT
BRANCH   2   7
ATOM      7  O   UNL     1       8.103   4.487  16.626  0.00  0.00    +0.000 OA
ATOM      8  H   UNL     1       8.719   5.149  16.976  0.00  0.00    +0.000 HD
ENDBRANCH   2   7
BRANCH   5   9
ATOM      9  C   UNL     1       3.292   5.211  19.497  0.00  0.00    +0.000 C 
ATOM     10  O   UNL     1       2.856   4.249  20.129  0.00  0.00    +0.000 OA
BRANCH   9  11
ATOM     11  C   UNL     1       2.637   6.504  19.530  0.00  0.00    +0.000 A 
ATOM     12  C   UNL     1       2.432   7.446  18.530  0.00  0.00    +0.000 A 
ATOM     13  C   UNL     1       1.745   8.549  19.093  0.00  0.00    +0.000 A 
ATOM     14 CL   UNL     1       1.304   9.950  18.247  0.00  0.00    +0.000 Cl
ATOM     15  C   UNL     1       1.534   8.242  20.408  0.00  0.00    +0.000 A 
ATOM     16 CL   UNL     1       0.802   9.084  21.687  0.00  0.00    +0.000 Cl
ATOM     17  N   UNL     1       2.031   7.001  20.668  0.00  0.00    +0.000 N 
ATOM     18  H   UNL     1       1.994   6.528  21.562  0.00  0.00    +0.000 HD
ENDBRANCH   9  11
ENDBRANCH   5   9
BRANCH   6  19
ATOM     19  O   UNL     1       3.317   3.969  16.897  0.00  0.00    +0.000 OA
ATOM     20  H   UNL     1       3.451   3.109  16.444  0.00  0.00    +0.000 HD
ENDBRANCH   6  19
BRANCH   1  21
ATOM     21  C   UNL     1       5.643   3.422  15.375  0.00  0.00    +0.000 C 
BRANCH  21  22
ATOM     22  C   UNL     1       5.647   4.345  14.142  0.00  0.00    +0.000 C 
BRANCH  22  23
ATOM     23  C   UNL     1       6.237   3.729  12.867  0.00  0.00    +0.000 C 
BRANCH  23  25
ATOM     24  C   UNL     1       4.256   3.355  11.317  0.00  0.00    +0.000 C 
ATOM     25  C   UNL     1       5.339   2.693  12.171  0.00  0.00    +0.000 C 
ATOM     26  C   UNL     1       6.187   1.755  11.312  0.00  0.00    +0.000 C 
ENDBRANCH  23  25
ENDBRANCH  22  23
ENDBRANCH  21  22
ENDBRANCH   1  21
TORSDOF 8
ENDMDL
MODEL 3
REMARK VINA RESULT:      -7.2      3.825      6.622
REMARK  Name = 
REMARK  10 active torsions:
REMARK  status: ('A' for Active; 'I' for Inactive)
REMARK    1  A    between atoms: C_1  and  C_2
REMARK    2  A    between atoms: C_2  and  C_3
REMARK    3  A    between atoms: C_2  and  C_4
REMARK    4  A    between atoms: C_4  and  C_5
REMARK    5  A    between atoms: C_5  and  C_6
REMARK    6  A    between atoms: C_6  and  C_7
REMARK    7  A    between atoms: C_8  and  O_9
REMARK    8  A    between atoms: C_12  and  C_13
REMARK    9  A    between atoms: C_13  and  C_15
REMARK   10  A    between atoms: C_22  and  O_23
REMARK                            x       y       z     vdW  Elec       q    Type
REMARK                         _______ _______ _______ _____ _____    ______ ____
ROOT
ATOM      1  C   UNL     1       5.621   4.113  16.713  0.00  0.00    +0.000 A 
ATOM      2  C   UNL     1       6.822   4.587  17.263  0.00  0.00    +0.000 A 
ATOM      3  C   UNL     1       6.862   5.189  18.518  0.00  0.00    +0.000 A 
ATOM      4  C   UNL     1       5.694   5.356  19.252  0.00  0.00    +0.000 A 
ATOM      5  C   UNL     1       4.465   4.949  18.720  0.00  0.00    +0.000 A 
ATOM      6  C   UNL     1       4.439   4.316  17.458  0.00  0.00    +0.000 A 
ENDROOT
BRANCH   2   7
ATOM      7  O   UNL     1       8.028   4.506  16.625  0.00  0.00    +0.000 OA
ATOM      8  H   UNL     1       8.698   4.998  17.124  0.00  0.00    +0.000 HD
ENDBRANCH   2   7
BRANCH   5   9
ATOM      9  C   UNL     1       3.211   5.121  19.512  0.00  0.00    +0.000 C 
ATOM     10  O   UNL     1       2.767   4.134  20.097  0.00  0.00    +0.000 OA
BRANCH   9  11
ATOM     11  C   UNL     1       2.564   6.415  19.603  0.00  0.00    +0.000 A 
ATOM     12  C   UNL     1       1.819   6.990  20.625  0.00  0.00    +0.000 A 
ATOM     13  C   UNL     1       1.401   8.275  20.201  0.00  0.00    +0.000 A 
ATOM     14 CL   UNL     1       0.444   9.334  21.115  0.00  0.00    +0.000 Cl
ATOM     15  C   UNL     1       1.916   8.454  18.947  0.00  0.00    +0.000 A 
ATOM     16 CL   UNL     1       1.811   9.725  17.827  0.00  0.00    +0.000 Cl
ATOM     17  N   UNL     1       2.647   7.360  18.598  0.00  0.00    +0.000 N 
ATOM     18  H   UNL     1       3.146   7.240  17.726  0.00  0.00    +0.000 HD
ENDBRANCH   9  11
ENDBRANCH   5   9
BRANCH   6  19
ATOM     19  O   UNL     1       3.255   3.887  16.908  0.00  0.00    +0.000 OA
ATOM     20  H   UNL     1       2.549   4.534  17.124  0.00  0.00    +0.000 HD
ENDBRANCH   6  19
BRANCH   1  21
ATOM     21  C   UNL     1       5.587   3.392  15.378  0.00  0.00    +0.000 C 
BRANCH  21  22
ATOM     22  C   UNL     1       5.631   4.316  14.147  0.00  0.00    +0.000 C 
BRANCH  22  23
ATOM     23  C   UNL     1       6.265   3.702  12.892  0.00  0.00    +0.000 C 
BRANCH  23  25
ATOM     24  C   UNL     1       4.270   3.327  11.361  0.00  0.00    +0.000 C 
ATOM     25  C   UNL     1       5.391   2.667  12.164  0.00  0.00    +0.000 C 
ATOM     26  C   UNL     1       6.256   1.802  11.247  0.00  0.00    +0.000 C 
ENDBRANCH  23  25
ENDBRANCH  22  23
ENDBRANCH  21  22
ENDBRANCH   1  21
TORSDOF 8
ENDMDL
MODEL 4
REMARK VINA RESULT:      -7.2      0.760      1.404
REMARK  Name = 
REMARK  10 active torsions:
REMARK  status: ('A' for Active; 'I' for Inactive)
REMARK    1  A    between atoms: C_1  and  C_2
REMARK    2  A    between atoms: C_2  and  C_3
REMARK    3  A    between atoms: C_2  and  C_4
REMARK    4  A    between atoms: C_4  and  C_5
REMARK    5  A    between atoms: C_5  and  C_6
REMARK    6  A    between atoms: C_6  and  C_7
REMARK    7  A    between atoms: C_8  and  O_9
REMARK    8  A    between atoms: C_12  and  C_13
REMARK    9  A    between atoms: C_13  and  C_15
REMARK   10  A    between atoms: C_22  and  O_23
REMARK                            x       y       z     vdW  Elec       q    Type
REMARK                         _______ _______ _______ _____ _____    ______ ____
ROOT
ATOM      1  C   UNL     1       3.362   5.503  19.705  0.00  0.00    +0.000 A 
ATOM      2  C   UNL     1       2.880   6.664  19.081  0.00  0.00    +0.000 A 
ATOM      3  C   UNL     1       3.486   7.183  17.939  0.00  0.00    +0.000 A 
ATOM      4  C   UNL     1       4.609   6.567  17.400  0.00  0.00    +0.000 A 
ATOM      5  C   UNL     1       5.158   5.440  18.021  0.00  0.00    +0.000 A 
ATOM      6  C   UNL     1       4.522   4.906  19.163  0.00  0.00    +0.000 A 
ENDROOT
BRANCH   2   7
ATOM      7  O   UNL     1       1.803   7.372  19.533  0.00  0.00    +0.000 OA
ATOM      8  H   UNL     1       1.060   6.771  19.697  0.00  0.00    +0.000 HD
ENDBRANCH   2   7
BRANCH   5   9
ATOM      9  C   UNL     1       6.360   4.774  17.438  0.00  0.00    +0.000 C 
ATOM     10  O   UNL     1       7.166   4.269  18.219  0.00  0.00    +0.000 OA
BRANCH   9  11
ATOM     11  C   UNL     1       6.548   4.709  16.002  0.00  0.00    +0.000 A 
ATOM     12  C   UNL     1       7.478   5.329  15.177  0.00  0.00    +0.000 A 
ATOM     13  C   UNL     1       7.217   4.936  13.841  0.00  0.00    +0.000 A 
ATOM     14 CL   UNL     1       8.088   5.468  12.488  0.00  0.00    +0.000 Cl
ATOM     15  C   UNL     1       6.155   4.078  13.892  0.00  0.00    +0.000 A 
ATOM     16 CL   UNL     1       5.289   3.241  12.695  0.00  0.00    +0.000 Cl
ATOM     17  N   UNL     1       5.773   3.906  15.187  0.00  0.00    +0.000 N 
ATOM     18  H   UNL     1       5.019   3.310  15.504  0.00  0.00    +0.000 HD
ENDBRANCH   9  11
ENDBRANCH   5   9
BRANCH   6  19
ATOM     19  O   UNL     1       5.019   3.790  19.791  0.00  0.00    +0.000 OA
ATOM     20  H   UNL     1       4.352   3.072  19.743  0.00  0.00    +0.000 HD
ENDBRANCH   6  19
BRANCH   1  21
ATOM     21  C   UNL     1       2.661   4.895  20.905  0.00  0.00    +0.000 C 
BRANCH  21  22
ATOM     22  C   UNL     1       1.697   3.741  20.571  0.00  0.00    +0.000 C 
BRANCH  22  23
ATOM     23  C   UNL     1       1.130   3.755  19.147  0.00  0.00    +0.000 C 
BRANCH  23  25
ATOM     24  C   UNL     1       2.421   3.187  17.032  0.00  0.00    +0.000 C 
ATOM     25  C   UNL     1       1.648   2.635  18.230  0.00  0.00    +0.000 C 
ATOM     26  C   UNL     1       2.527   1.670  19.026  0.00  0.00    +0.000 C 
ENDBRANCH  23  25
ENDBRANCH  22  23
ENDBRANCH  21  22
ENDBRANCH   1  21
TORSDOF 8
ENDMDL
MODEL 5
REMARK VINA RESULT:      -7.2      2.083      3.675
REMARK  Name = 
REMARK  10 active torsions:
REMARK  status: ('A' for Active; 'I' for Inactive)
REMARK    1  A    between atoms: C_1  and  C_2
REMARK    2  A    between atoms: C_2  and  C_3
REMARK    3  A    between atoms: C_2  and  C_4
REMARK    4  A    between atoms: C_4  and  C_5
REMARK    5  A    between atoms: C_5  and  C_6
REMARK    6  A    between atoms: C_6  and  C_7
REMARK    7  A    between atoms: C_8  and  O_9
REMARK    8  A    between atoms: C_12  and  C_13
REMARK    9  A    between atoms: C_13  and  C_15
REMARK   10  A    between atoms: C_22  and  O_23
REMARK                            x       y       z     vdW  Elec       q    Type
REMARK                         _______ _______ _______ _____ _____    ______ ____
ROOT
ATOM      1  C   UNL     1       3.128   5.929  18.265  0.00  0.00    +0.000 A 
ATOM      2  C   UNL     1       2.830   5.066  19.332  0.00  0.00    +0.000 A 
ATOM      3  C   UNL     1       3.730   4.089  19.753  0.00  0.00    +0.000 A 
ATOM      4  C   UNL     1       4.947   3.930  19.101  0.00  0.00    +0.000 A 
ATOM      5  C   UNL     1       5.262   4.729  17.996  0.00  0.00    +0.000 A 
ATOM      6  C   UNL     1       4.357   5.734  17.594  0.00  0.00    +0.000 A 
ENDROOT
BRANCH   2   7
ATOM      7  O   UNL     1       1.657   5.108  20.030  0.00  0.00    +0.000 OA
ATOM      8  H   UNL     1       1.559   4.300  20.558  0.00  0.00    +0.000 HD
ENDBRANCH   2   7
BRANCH   5   9
ATOM      9  C   UNL     1       6.573   4.562  17.301  0.00  0.00    +0.000 C 
ATOM     10  O   UNL     1       7.583   4.486  18.000  0.00  0.00    +0.000 OA
BRANCH   9  11
ATOM     11  C   UNL     1       6.639   4.468  15.856  0.00  0.00    +0.000 A 
ATOM     12  C   UNL     1       5.943   3.660  14.964  0.00  0.00    +0.000 A 
ATOM     13  C   UNL     1       6.394   3.955  13.654  0.00  0.00    +0.000 A 
ATOM     14 CL   UNL     1       5.841   3.192  12.245  0.00  0.00    +0.000 Cl
ATOM     15  C   UNL     1       7.332   4.941  13.782  0.00  0.00    +0.000 A 
ATOM     16 CL   UNL     1       8.302   5.764  12.658  0.00  0.00    +0.000 Cl
ATOM     17  N   UNL     1       7.455   5.281  15.094  0.00  0.00    +0.000 N 
ATOM     18  H   UNL     1       8.073   5.994  15.462  0.00  0.00    +0.000 HD
ENDBRANCH   9  11
ENDBRANCH   5   9
BRANCH   6  19
ATOM     19  O   UNL     1       4.637   6.551  16.526  0.00  0.00    +0.000 OA
ATOM     20  H   UNL     1       4.384   6.092  15.697  0.00  0.00    +0.000 HD
ENDBRANCH   6  19
BRANCH   1  21
ATOM     21  C   UNL     1       2.182   7.041  17.852  0.00  0.00    +0.000 C 
BRANCH  21  22
ATOM     22  C   UNL     1       2.373   8.364  18.616  0.00  0.00    +0.000 C 
BRANCH  22  23
ATOM     23  C   UNL     1       1.754   9.598  17.949  0.00  0.00    +0.000 C 
BRANCH  23  25
ATOM     24  C   UNL     1      -0.751  10.029  18.015  0.00  0.00    +0.000 C 
ATOM     25  C   UNL     1       0.589  10.238  18.721  0.00  0.00    +0.000 C 
ATOM     26  C   UNL     1       0.529   9.676  20.142  0.00  0.00    +0.000 C 
ENDBRANCH  23  25
ENDBRANCH  22  23
ENDBRANCH  21  22
ENDBRANCH   1  21
TORSDOF 8
ENDMDL
MODEL 6
REMARK VINA RESULT:      -7.2      1.873      2.616
REMARK  Name = 
REMARK  10 active torsions:
REMARK  status: ('A' for Active; 'I' for Inactive)
REMARK    1  A    between atoms: C_1  and  C_2
REMARK    2  A    between atoms: C_2  and  C_3
REMARK    3  A    between atoms: C_2  and  C_4
REMARK    4  A    between atoms: C_4  and  C_5
REMARK    5  A    between atoms: C_5  and  C_6
REMARK    6  A    between atoms: C_6  and  C_7
REMARK    7  A    between atoms: C_8  and  O_9
REMARK    8  A    between atoms: C_12  and  C_13
REMARK    9  A    between atoms: C_13  and  C_15
REMARK   10  A    between atoms: C_22  and  O_23
REMARK                            x       y       z     vdW  Elec       q    Type
REMARK                         _______ _______ _______ _____ _____    ______ ____
ROOT
ATOM      1  C   UNL     1       5.127   5.300  17.998  0.00  0.00    +0.000 A 
ATOM      2  C   UNL     1       4.284   6.395  17.753  0.00  0.00    +0.000 A 
ATOM      3  C   UNL     1       4.211   6.991  16.496  0.00  0.00    +0.000 A 
ATOM      4  C   UNL     1       4.999   6.523  15.451  0.00  0.00    +0.000 A 
ATOM      5  C   UNL     1       5.895   5.469  15.665  0.00  0.00    +0.000 A 
ATOM      6  C   UNL     1       5.942   4.854  16.934  0.00  0.00    +0.000 A 
ENDROOT
BRANCH   2   7
ATOM      7  O   UNL     1       3.486   6.961  18.706  0.00  0.00    +0.000 OA
ATOM      8  H   UNL     1       3.700   6.591  19.576  0.00  0.00    +0.000 HD
ENDBRANCH   2   7
BRANCH   5   9
ATOM      9  C   UNL     1       6.735   4.961  14.540  0.00  0.00    +0.000 C 
ATOM     10  O   UNL     1       7.940   5.211  14.571  0.00  0.00    +0.000 OA
BRANCH   9  11
ATOM     11  C   UNL     1       6.147   4.181  13.469  0.00  0.00    +0.000 A 
ATOM     12  C   UNL     1       4.918   4.293  12.830  0.00  0.00    +0.000 A 
ATOM     13  C   UNL     1       4.830   3.268  11.856  0.00  0.00    +0.000 A 
ATOM     14 CL   UNL     1       3.493   3.002  10.849  0.00  0.00    +0.000 Cl
ATOM     15  C   UNL     1       6.008   2.577  11.914  0.00  0.00    +0.000 A 
ATOM     16 CL   UNL     1       6.597   1.228  11.071  0.00  0.00    +0.000 Cl
ATOM     17  N   UNL     1       6.818   3.143  12.851  0.00  0.00    +0.000 N 
ATOM     18  H   UNL     1       7.753   2.833  13.085  0.00  0.00    +0.000 HD
ENDBRANCH   9  11
ENDBRANCH   5   9
BRANCH   6  19
ATOM     19  O   UNL     1       6.796   3.805  17.179  0.00  0.00    +0.000 OA
ATOM     20  H   UNL     1       7.688   4.033  16.839  0.00  0.00    +0.000 HD
ENDBRANCH   6  19
BRANCH   1  21
ATOM     21  C   UNL     1       5.154   4.603  19.346  0.00  0.00    +0.000 C 
BRANCH  21  22
ATOM     22  C   UNL     1       4.361   3.285  19.405  0.00  0.00    +0.000 C 
BRANCH  22  23
ATOM     23  C   UNL     1       2.867   3.435  19.718  0.00  0.00    +0.000 C 
BRANCH  23  25
ATOM     24  C   UNL     1       1.443   4.275  17.787  0.00  0.00    +0.000 C 
ATOM     25  C   UNL     1       1.921   3.051  18.569  0.00  0.00    +0.000 C 
ATOM     26  C   UNL     1       2.610   2.061  17.630  0.00  0.00    +0.000 C 
ENDBRANCH  23  25
ENDBRANCH  22  23
ENDBRANCH  21  22
ENDBRANCH   1  21
TORSDOF 8
ENDMDL
MODEL 7
REMARK VINA RESULT:      -7.1      4.105      6.817
REMARK  Name = 
REMARK  10 active torsions:
REMARK  status: ('A' for Active; 'I' for Inactive)
REMARK    1  A    between atoms: C_1  and  C_2
REMARK    2  A    between atoms: C_2  and  C_3
REMARK    3  A    between atoms: C_2  and  C_4
REMARK    4  A    between atoms: C_4  and  C_5
REMARK    5  A    between atoms: C_5  and  C_6
REMARK    6  A    between atoms: C_6  and  C_7
REMARK    7  A    between atoms: C_8  and  O_9
REMARK    8  A    between atoms: C_12  and  C_13
REMARK    9  A    between atoms: C_13  and  C_15
REMARK   10  A    between atoms: C_22  and  O_23
REMARK                            x       y       z     vdW  Elec       q    Type
REMARK                         _______ _______ _______ _____ _____    ______ ____
ROOT
ATOM      1  C   UNL     1       5.719   4.569  15.952  0.00  0.00    +0.000 A 
ATOM      2  C   UNL     1       6.754   5.515  16.020  0.00  0.00    +0.000 A 
ATOM      3  C   UNL     1       6.830   6.440  17.059  0.00  0.00    +0.000 A 
ATOM      4  C   UNL     1       5.856   6.461  18.050  0.00  0.00    +0.000 A 
ATOM      5  C   UNL     1       4.775   5.574  17.992  0.00  0.00    +0.000 A 
ATOM      6  C   UNL     1       4.722   4.623  16.951  0.00  0.00    +0.000 A 
ENDROOT
BRANCH   2   7
ATOM      7  O   UNL     1       7.751   5.611  15.090  0.00  0.00    +0.000 OA
ATOM      8  H   UNL     1       8.562   5.936  15.511  0.00  0.00    +0.000 HD
ENDBRANCH   2   7
BRANCH   5   9
ATOM      9  C   UNL     1       3.733   5.592  19.062  0.00  0.00    +0.000 C 
ATOM     10  O   UNL     1       3.654   4.608  19.796  0.00  0.00    +0.000 OA
BRANCH   9  11
ATOM     11  C   UNL     1       2.870   6.743  19.235  0.00  0.00    +0.000 A 
ATOM     12  C   UNL     1       2.426   7.694  18.323  0.00  0.00    +0.000 A 
ATOM     13  C   UNL     1       1.606   8.621  19.013  0.00  0.00    +0.000 A 
ATOM     14 CL   UNL     1       0.864   9.970  18.305  0.00  0.00    +0.000 Cl
ATOM     15  C   UNL     1       1.558   8.201  20.313  0.00  0.00    +0.000 A 
ATOM     16 CL   UNL     1       0.798   8.821  21.698  0.00  0.00    +0.000 Cl
ATOM     17  N   UNL     1       2.281   7.055  20.445  0.00  0.00    +0.000 N 
ATOM     18  H   UNL     1       2.398   6.529  21.302  0.00  0.00    +0.000 HD
ENDBRANCH   9  11
ENDBRANCH   5   9
BRANCH   6  19
ATOM     19  O   UNL     1       3.686   3.723  16.868  0.00  0.00    +0.000 OA
ATOM     20  H   UNL     1       3.222   3.690  17.732  0.00  0.00    +0.000 HD
ENDBRANCH   6  19
BRANCH   1  21
ATOM     21  C   UNL     1       5.675   3.515  14.862  0.00  0.00    +0.000 C 
BRANCH  21  22
ATOM     22  C   UNL     1       5.426   4.064  13.445  0.00  0.00    +0.000 C 
BRANCH  22  23
ATOM     23  C   UNL     1       6.362   3.520  12.359  0.00  0.00    +0.000 C 
BRANCH  23  25
ATOM     24  C   UNL     1       5.959   1.247  11.292  0.00  0.00    +0.000 C 
ATOM     25  C   UNL     1       5.664   2.747  11.228  0.00  0.00    +0.000 C 
ATOM     26  C   UNL     1       4.155   2.989  11.279  0.00  0.00    +0.000 C 
ENDBRANCH  23  25
ENDBRANCH  22  23
ENDBRANCH  21  22
ENDBRANCH   1  21
TORSDOF 8
ENDMDL
MODEL 8
REMARK VINA RESULT:      -7.1      2.059      3.484
REMARK  Name = 
REMARK  10 active torsions:
REMARK  status: ('A' for Active; 'I' for Inactive)
REMARK    1  A    between atoms: C_1  and  C_2
REMARK    2  A    between atoms: C_2  and  C_3
REMARK    3  A    between atoms: C_2  and  C_4
REMARK    4  A    between atoms: C_4  and  C_5
REMARK    5  A    between atoms: C_5  and  C_6
REMARK    6  A    between atoms: C_6  and  C_7
REMARK    7  A    between atoms: C_8  and  O_9
REMARK    8  A    between atoms: C_12  and  C_13
REMARK    9  A    between atoms: C_13  and  C_15
REMARK   10  A    between atoms: C_22  and  O_23
REMARK                            x       y       z     vdW  Elec       q    Type
REMARK                         _______ _______ _______ _____ _____    ______ ____
ROOT
ATOM      1  C   UNL     1       2.990   5.666  18.453  0.00  0.00    +0.000 A 
ATOM      2  C   UNL     1       2.697   4.637  19.363  0.00  0.00    +0.000 A 
ATOM      3  C   UNL     1       3.618   3.631  19.646  0.00  0.00    +0.000 A 
ATOM      4  C   UNL     1       4.852   3.611  19.007  0.00  0.00    +0.000 A 
ATOM      5  C   UNL     1       5.165   4.583  18.051  0.00  0.00    +0.000 A 
ATOM      6  C   UNL     1       4.236   5.614  17.790  0.00  0.00    +0.000 A 
ENDROOT
BRANCH   2   7
ATOM      7  O   UNL     1       1.510   4.536  20.030  0.00  0.00    +0.000 OA
ATOM      8  H   UNL     1       1.012   3.771  19.700  0.00  0.00    +0.000 HD
ENDBRANCH   2   7
BRANCH   5   9
ATOM      9  C   UNL     1       6.493   4.565  17.370  0.00  0.00    +0.000 C 
ATOM     10  O   UNL     1       7.497   4.605  18.080  0.00  0.00    +0.000 OA
BRANCH   9  11
ATOM     11  C   UNL     1       6.585   4.475  15.926  0.00  0.00    +0.000 A 
ATOM     12  C   UNL     1       5.880   3.696  15.016  0.00  0.00    +0.000 A 
ATOM     13  C   UNL     1       6.368   3.982  13.717  0.00  0.00    +0.000 A 
ATOM     14 CL   UNL     1       5.818   3.246  12.293  0.00  0.00    +0.000 Cl
ATOM     15  C   UNL     1       7.337   4.934  13.869  0.00  0.00    +0.000 A 
ATOM     16 CL   UNL     1       8.357   5.729  12.769  0.00  0.00    +0.000 Cl
ATOM     17  N   UNL     1       7.445   5.263  15.185  0.00  0.00    +0.000 N 
ATOM     18  H   UNL     1       8.078   5.953  15.569  0.00  0.00    +0.000 HD
ENDBRANCH   9  11
ENDBRANCH   5   9
BRANCH   6  19
ATOM     19  O   UNL     1       4.512   6.597  16.871  0.00  0.00    +0.000 OA
ATOM     20  H   UNL     1       4.658   6.183  15.993  0.00  0.00    +0.000 HD
ENDBRANCH   6  19
BRANCH   1  21
ATOM     21  C   UNL     1       2.018   6.802  18.198  0.00  0.00    +0.000 C 
BRANCH  21  22
ATOM     22  C   UNL     1       2.220   8.036  19.097  0.00  0.00    +0.000 C 
BRANCH  22  23
ATOM     23  C   UNL     1       1.613   7.927  20.502  0.00  0.00    +0.000 C 
BRANCH  23  25
ATOM     24  C   UNL     1       0.217   9.923  19.772  0.00  0.00    +0.000 C 
ATOM     25  C   UNL     1       0.802   9.151  20.956  0.00  0.00    +0.000 C 
ATOM     26  C   UNL     1      -0.314   8.719  21.907  0.00  0.00    +0.000 C 
ENDBRANCH  23  25
ENDBRANCH  22  23
ENDBRANCH  21  22
ENDBRANCH   1  21
TORSDOF 8
ENDMDL
MODEL 9
REMARK VINA RESULT:      -7.0      2.191      3.024
REMARK  Name = 
REMARK  10 active torsions:
REMARK  status: ('A' for Active; 'I' for Inactive)
REMARK    1  A    between atoms: C_1  and  C_2
REMARK    2  A    between atoms: C_2  and  C_3
REMARK    3  A    between atoms: C_2  and  C_4
REMARK    4  A    between atoms: C_4  and  C_5
REMARK    5  A    between atoms: C_5  and  C_6
REMARK    6  A    between atoms: C_6  and  C_7
REMARK    7  A    between atoms: C_8  and  O_9
REMARK    8  A    between atoms: C_12  and  C_13
REMARK    9  A    between atoms: C_13  and  C_15
REMARK   10  A    between atoms: C_22  and  O_23
REMARK                            x       y       z     vdW  Elec       q    Type
REMARK                         _______ _______ _______ _____ _____    ______ ____
ROOT
ATOM      1  C   UNL     1       4.232   4.515  17.464  0.00  0.00    +0.000 A 
ATOM      2  C   UNL     1       3.975   5.879  17.677  0.00  0.00    +0.000 A 
ATOM      3  C   UNL     1       4.496   6.859  16.835  0.00  0.00    +0.000 A 
ATOM      4  C   UNL     1       5.310   6.504  15.766  0.00  0.00    +0.000 A 
ATOM      5  C   UNL     1       5.639   5.161  15.549  0.00  0.00    +0.000 A 
ATOM      6  C   UNL     1       5.086   4.173  16.392  0.00  0.00    +0.000 A 
ENDROOT
BRANCH   2   7
ATOM      7  O   UNL     1       3.214   6.351  18.708  0.00  0.00    +0.000 OA
ATOM      8  H   UNL     1       2.822   5.609  19.194  0.00  0.00    +0.000 HD
ENDBRANCH   2   7
BRANCH   5   9
ATOM      9  C   UNL     1       6.509   4.780  14.397  0.00  0.00    +0.000 C 
ATOM     10  O   UNL     1       7.690   5.122  14.437  0.00  0.00    +0.000 OA
BRANCH   9  11
ATOM     11  C   UNL     1       5.976   4.012  13.289  0.00  0.00    +0.000 A 
ATOM     12  C   UNL     1       4.789   4.143  12.578  0.00  0.00    +0.000 A 
ATOM     13  C   UNL     1       4.746   3.124  11.595  0.00  0.00    +0.000 A 
ATOM     14 CL   UNL     1       3.468   2.880  10.508  0.00  0.00    +0.000 Cl
ATOM     15  C   UNL     1       5.909   2.417  11.721  0.00  0.00    +0.000 A 
ATOM     16 CL   UNL     1       6.529   1.062  10.908  0.00  0.00    +0.000 Cl
ATOM     17  N   UNL     1       6.668   2.967  12.708  0.00  0.00    +0.000 N 
ATOM     18  H   UNL     1       7.583   2.643  12.996  0.00  0.00    +0.000 HD
ENDBRANCH   9  11
ENDBRANCH   5   9
BRANCH   6  19
ATOM     19  O   UNL     1       5.370   2.842  16.201  0.00  0.00    +0.000 OA
ATOM     20  H   UNL     1       5.373   2.389  17.071  0.00  0.00    +0.000 HD
ENDBRANCH   6  19
BRANCH   1  21
ATOM     21  C   UNL     1       3.607   3.442  18.336  0.00  0.00    +0.000 C 
BRANCH  21  22
ATOM     22  C   UNL     1       4.173   3.365  19.766  0.00  0.00    +0.000 C 
BRANCH  22  23
ATOM     23  C   UNL     1       3.366   2.500  20.742  0.00  0.00    +0.000 C 
BRANCH  23  25
ATOM     24  C   UNL     1       2.215   4.685  21.349  0.00  0.00    +0.000 C 
ATOM     25  C   UNL     1       2.093   3.161  21.296  0.00  0.00    +0.000 C 
ATOM     26  C   UNL     1       0.883   2.759  20.454  0.00  0.00    +0.000 C 
ENDBRANCH  23  25
ENDBRANCH  22  23
ENDBRANCH  21  22
ENDBRANCH   1  21
TORSDOF 8
ENDMDL
