MODEL 1
REMARK VINA RESULT:      -6.7      0.000      0.000
REMARK  Name = 
REMARK  5 active torsions:
REMARK  status: ('A' for Active; 'I' for Inactive)
REMARK    1  A    between atoms: C_2  and  O_3
REMARK    2  A    between atoms: C_2  and  C_4
REMARK    3  A    between atoms: C_4  and  C_5
REMARK    4  A    between atoms: C_5  and  C_6
REMARK    5  A    between atoms: C_14  and  N_15
REMARK                            x       y       z     vdW  Elec       q    Type
REMARK                         _______ _______ _______ _____ _____    ______ ____
ROOT
ATOM      1  C   UNL     1       1.029   9.275  19.306  0.00  0.00    +0.000 C 
ATOM      2  O   UNL     1       1.094   9.813  18.204  0.00  0.00    +0.000 OA
ATOM      3  N   UNL     1       1.644   8.104  19.694  0.00  0.00    +0.000 N 
ATOM      4  C   UNL     1       2.529   7.382  18.932  0.00  0.00    +0.000 A 
ATOM      5  N   UNL     1       2.818   6.129  19.193  0.00  0.00    +0.000 NA
ATOM      6  C   UNL     1       3.690   5.640  18.233  0.00  0.00    +0.000 A 
ATOM      7  C   UNL     1       4.161   4.314  18.130  0.00  0.00    +0.000 A 
ATOM      8  C   UNL     1       5.032   3.960  17.089  0.00  0.00    +0.000 A 
ATOM      9  C   UNL     1       5.444   4.924  16.163  0.00  0.00    +0.000 A 
ATOM     10  C   UNL     1       5.002   6.253  16.248  0.00  0.00    +0.000 A 
ATOM     11  C   UNL     1       4.117   6.577  17.291  0.00  0.00    +0.000 A 
ATOM     12  S   UNL     1       3.384   8.088  17.640  0.00  0.00    +0.000 S 
ATOM     13  H   UNL     1       1.268   7.587  20.488  0.00  0.00    +0.000 HD
ENDROOT
BRANCH   9  14
ATOM     14  N   UNL     1       6.356   4.547  15.073  0.00  0.00    +0.000 N 
ATOM     15  O   UNL     1       7.546   4.863  15.184  0.00  0.00    +0.000 OA
ATOM     16  O   UNL     1       5.878   3.928  14.110  0.00  0.00    +0.000 OA
ENDBRANCH   9  14
BRANCH   1  17
ATOM     17  C   UNL     1       0.115   9.861  20.363  0.00  0.00    +0.000 C 
BRANCH  17  18
ATOM     18  C   UNL     1      -0.058   8.887  21.523  0.00  0.00    +0.000 C 
BRANCH  18  20
ATOM     19  O   UNL     1       0.107   9.869  23.719  0.00  0.00    +0.000 OA
ATOM     20  C   UNL     1       0.667   9.375  22.750  0.00  0.00    +0.000 C 
BRANCH  20  21
ATOM     21  O   UNL     1       2.004   9.221  22.682  0.00  0.00    +0.000 OA
ATOM     22  H   UNL     1       2.365   8.527  23.265  0.00  0.00    +0.000 HD
ENDBRANCH  20  21
ENDBRANCH  18  20
ENDBRANCH  17  18
ENDBRANCH   1  17
TORSDOF 5
ENDMDL
MODEL 2
REMARK VINA RESULT:      -6.7      1.086      1.398
REMARK  Name = 
REMARK  5 active torsions:
REMARK  status: ('A' for Active; 'I' for Inactive)
REMARK    1  A    between atoms: C_2  and  O_3
REMARK    2  A    between atoms: C_2  and  C_4
REMARK    3  A    between atoms: C_4  and  C_5
REMARK    4  A    between atoms: C_5  and  C_6
REMARK    5  A    between atoms: C_14  and  N_15
REMARK                            x       y       z     vdW  Elec       q    Type
REMARK                         _______ _______ _______ _____ _____    ______ ____
ROOT
ATOM      1  C   UNL     1       1.508   8.153  20.248  0.00  0.00    +0.000 C 
ATOM      2  O   UNL     1       1.400   8.921  19.296  0.00  0.00    +0.000 OA
ATOM      3  N   UNL     1       2.190   6.955  20.274  0.00  0.00    +0.000 N 
ATOM      4  C   UNL     1       2.961   6.458  19.252  0.00  0.00    +0.000 A 
ATOM      5  N   UNL     1       3.302   5.194  19.184  0.00  0.00    +0.000 NA
ATOM      6  C   UNL     1       4.027   4.967  18.025  0.00  0.00    +0.000 A 
ATOM      7  C   UNL     1       4.496   3.719  17.562  0.00  0.00    +0.000 A 
ATOM      8  C   UNL     1       5.206   3.641  16.356  0.00  0.00    +0.000 A 
ATOM      9  C   UNL     1       5.462   4.802  15.618  0.00  0.00    +0.000 A 
ATOM     10  C   UNL     1       5.019   6.058  16.059  0.00  0.00    +0.000 A 
ATOM     11  C   UNL     1       4.296   6.106  17.263  0.00  0.00    +0.000 A 
ATOM     12  S   UNL     1       3.603   7.469  18.041  0.00  0.00    +0.000 S 
ATOM     13  H   UNL     1       1.944   6.260  20.978  0.00  0.00    +0.000 HD
ENDROOT
BRANCH   9  14
ATOM     14  N   UNL     1       6.206   4.715  14.353  0.00  0.00    +0.000 N 
ATOM     15  O   UNL     1       5.790   3.930  13.494  0.00  0.00    +0.000 OA
ATOM     16  O   UNL     1       7.203   5.440  14.220  0.00  0.00    +0.000 OA
ENDBRANCH   9  14
BRANCH   1  17
ATOM     17  C   UNL     1       0.754   8.451  21.528  0.00  0.00    +0.000 C 
BRANCH  17  18
ATOM     18  C   UNL     1       0.063   9.807  21.442  0.00  0.00    +0.000 C 
BRANCH  18  20
ATOM     19  O   UNL     1      -0.600  11.494  23.032  0.00  0.00    +0.000 OA
ATOM     20  C   UNL     1      -0.247  10.343  22.815  0.00  0.00    +0.000 C 
BRANCH  20  21
ATOM     21  O   UNL     1      -0.094   9.431  23.796  0.00  0.00    +0.000 OA
ATOM     22  H   UNL     1      -0.031   8.507  23.488  0.00  0.00    +0.000 HD
ENDBRANCH  20  21
ENDBRANCH  18  20
ENDBRANCH  17  18
ENDBRANCH   1  17
TORSDOF 5
ENDMDL
MODEL 3
REMARK VINA RESULT:      -6.7      2.098      7.777
REMARK  Name = 
REMARK  5 active torsions:
REMARK  status: ('A' for Active; 'I' for Inactive)
REMARK    1  A    between atoms: C_2  and  O_3
REMARK    2  A    between atoms: C_2  and  C_4
REMARK    3  A    between atoms: C_4  and  C_5
REMARK    4  A    between atoms: C_5  and  C_6
REMARK    5  A    between atoms: C_14  and  N_15
REMARK                            x       y       z     vdW  Elec       q    Type
REMARK                         _______ _______ _______ _____ _____    ______ ____
ROOT
ATOM      1  C   UNL     1       4.405   4.278  17.210  0.00  0.00    +0.000 C 
ATOM      2  O   UNL     1       3.894   3.566  18.070  0.00  0.00    +0.000 OA
ATOM      3  N   UNL     1       4.213   5.631  17.032  0.00  0.00    +0.000 N 
ATOM      4  C   UNL     1       3.483   6.446  17.863  0.00  0.00    +0.000 A 
ATOM      5  N   UNL     1       3.049   7.624  17.484  0.00  0.00    +0.000 NA
ATOM      6  C   UNL     1       2.298   8.195  18.499  0.00  0.00    +0.000 A 
ATOM      7  C   UNL     1       1.599   9.419  18.436  0.00  0.00    +0.000 A 
ATOM      8  C   UNL     1       0.864   9.864  19.544  0.00  0.00    +0.000 A 
ATOM      9  C   UNL     1       0.835   9.101  20.716  0.00  0.00    +0.000 A 
ATOM     10  C   UNL     1       1.530   7.886  20.813  0.00  0.00    +0.000 A 
ATOM     11  C   UNL     1       2.246   7.456  19.683  0.00  0.00    +0.000 A 
ATOM     12  S   UNL     1       3.161   6.019  19.479  0.00  0.00    +0.000 S 
ATOM     13  H   UNL     1       4.408   6.044  16.121  0.00  0.00    +0.000 HD
ENDROOT
BRANCH   9  14
ATOM     14  N   UNL     1       0.062   9.571  21.875  0.00  0.00    +0.000 N 
ATOM     15  O   UNL     1      -0.734   8.781  22.394  0.00  0.00    +0.000 OA
ATOM     16  O   UNL     1       0.260  10.731  22.267  0.00  0.00    +0.000 OA
ENDBRANCH   9  14
BRANCH   1  17
ATOM     17  C   UNL     1       5.273   3.643  16.143  0.00  0.00    +0.000 C 
BRANCH  17  18
ATOM     18  C   UNL     1       6.121   4.697  15.441  0.00  0.00    +0.000 C 
BRANCH  18  20
ATOM     19  O   UNL     1       7.489   6.354  16.535  0.00  0.00    +0.000 OA
ATOM     20  C   UNL     1       7.237   5.174  16.333  0.00  0.00    +0.000 C 
BRANCH  20  21
ATOM     21  O   UNL     1       7.944   4.173  16.893  0.00  0.00    +0.000 OA
ATOM     22  H   UNL     1       8.580   3.738  16.293  0.00  0.00    +0.000 HD
ENDBRANCH  20  21
ENDBRANCH  18  20
ENDBRANCH  17  18
ENDBRANCH   1  17
TORSDOF 5
ENDMDL
MODEL 4
REMARK VINA RESULT:      -6.5      4.131      5.036
REMARK  Name = 
REMARK  5 active torsions:
REMARK  status: ('A' for Active; 'I' for Inactive)
REMARK    1  A    between atoms: C_2  and  O_3
REMARK    2  A    between atoms: C_2  and  C_4
REMARK    3  A    between atoms: C_4  and  C_5
REMARK    4  A    between atoms: C_5  and  C_6
REMARK    5  A    between atoms: C_14  and  N_15
REMARK                            x       y       z     vdW  Elec       q    Type
REMARK                         _______ _______ _______ _____ _____    ______ ____
ROOT
ATOM      1  C   UNL     1       3.350   2.567  20.133  0.00  0.00    +0.000 C 
ATOM      2  O   UNL     1       3.145   1.617  19.383  0.00  0.00    +0.000 OA
ATOM      3  N   UNL     1       4.116   3.682  19.870  0.00  0.00    +0.000 N 
ATOM      4  C   UNL     1       4.708   3.972  18.665  0.00  0.00    +0.000 A 
ATOM      5  N   UNL     1       5.685   4.840  18.556  0.00  0.00    +0.000 NA
ATOM      6  C   UNL     1       6.124   4.888  17.242  0.00  0.00    +0.000 A 
ATOM      7  C   UNL     1       7.211   5.641  16.750  0.00  0.00    +0.000 A 
ATOM      8  C   UNL     1       7.550   5.576  15.391  0.00  0.00    +0.000 A 
ATOM      9  C   UNL     1       6.802   4.777  14.521  0.00  0.00    +0.000 A 
ATOM     10  C   UNL     1       5.708   4.027  14.978  0.00  0.00    +0.000 A 
ATOM     11  C   UNL     1       5.400   4.097  16.348  0.00  0.00    +0.000 A 
ATOM     12  S   UNL     1       4.157   3.285  17.207  0.00  0.00    +0.000 S 
ATOM     13  H   UNL     1       4.483   4.226  20.649  0.00  0.00    +0.000 HD
ENDROOT
BRANCH   9  14
ATOM     14  N   UNL     1       7.162   4.711  13.097  0.00  0.00    +0.000 N 
ATOM     15  O   UNL     1       6.649   3.818  12.414  0.00  0.00    +0.000 OA
ATOM     16  O   UNL     1       7.955   5.561  12.663  0.00  0.00    +0.000 OA
ENDBRANCH   9  14
BRANCH   1  17
ATOM     17  C   UNL     1       2.810   2.522  21.548  0.00  0.00    +0.000 C 
BRANCH  17  18
ATOM     18  C   UNL     1       1.288   2.622  21.546  0.00  0.00    +0.000 C 
BRANCH  18  20
ATOM     19  O   UNL     1       1.125   4.780  20.484  0.00  0.00    +0.000 OA
ATOM     20  C   UNL     1       0.812   3.597  20.502  0.00  0.00    +0.000 C 
BRANCH  20  21
ATOM     21  O   UNL     1      -0.003   3.045  19.581  0.00  0.00    +0.000 OA
ATOM     22  H   UNL     1      -0.956   3.141  19.770  0.00  0.00    +0.000 HD
ENDBRANCH  20  21
ENDBRANCH  18  20
ENDBRANCH  17  18
ENDBRANCH   1  17
TORSDOF 5
ENDMDL
MODEL 5
REMARK VINA RESULT:      -6.5      1.964      8.121
REMARK  Name = 
REMARK  5 active torsions:
REMARK  status: ('A' for Active; 'I' for Inactive)
REMARK    1  A    between atoms: C_2  and  O_3
REMARK    2  A    between atoms: C_2  and  C_4
REMARK    3  A    between atoms: C_4  and  C_5
REMARK    4  A    between atoms: C_5  and  C_6
REMARK    5  A    between atoms: C_14  and  N_15
REMARK                            x       y       z     vdW  Elec       q    Type
REMARK                         _______ _______ _______ _____ _____    ______ ____
ROOT
ATOM      1  C   UNL     1       3.719   4.468  17.737  0.00  0.00    +0.000 C 
ATOM      2  O   UNL     1       3.193   3.819  18.637  0.00  0.00    +0.000 OA
ATOM      3  N   UNL     1       3.604   5.823  17.515  0.00  0.00    +0.000 N 
ATOM      4  C   UNL     1       2.949   6.709  18.335  0.00  0.00    +0.000 A 
ATOM      5  N   UNL     1       2.576   7.897  17.926  0.00  0.00    +0.000 NA
ATOM      6  C   UNL     1       1.892   8.548  18.940  0.00  0.00    +0.000 A 
ATOM      7  C   UNL     1       1.266   9.810  18.851  0.00  0.00    +0.000 A 
ATOM      8  C   UNL     1       0.593  10.338  19.962  0.00  0.00    +0.000 A 
ATOM      9  C   UNL     1       0.553   9.620  21.162  0.00  0.00    +0.000 A 
ATOM     10  C   UNL     1       1.177   8.369  21.284  0.00  0.00    +0.000 A 
ATOM     11  C   UNL     1       1.830   7.856  20.150  0.00  0.00    +0.000 A 
ATOM     12  S   UNL     1       2.650   6.359  19.975  0.00  0.00    +0.000 S 
ATOM     13  H   UNL     1       3.796   6.190  16.584  0.00  0.00    +0.000 HD
ENDROOT
BRANCH   9  14
ATOM     14  N   UNL     1      -0.155  10.177  22.324  0.00  0.00    +0.000 N 
ATOM     15  O   UNL     1       0.237   9.848  23.448  0.00  0.00    +0.000 OA
ATOM     16  O   UNL     1      -1.101  10.949  22.105  0.00  0.00    +0.000 OA
ENDBRANCH   9  14
BRANCH   1  17
ATOM     17  C   UNL     1       4.515   3.743  16.671  0.00  0.00    +0.000 C 
BRANCH  17  18
ATOM     18  C   UNL     1       5.093   4.733  15.665  0.00  0.00    +0.000 C 
BRANCH  18  20
ATOM     19  O   UNL     1       7.492   4.679  15.890  0.00  0.00    +0.000 OA
ATOM     20  C   UNL     1       6.493   4.344  15.269  0.00  0.00    +0.000 C 
BRANCH  20  21
ATOM     21  O   UNL     1       6.547   3.590  14.154  0.00  0.00    +0.000 OA
ATOM     22  H   UNL     1       5.678   3.364  13.772  0.00  0.00    +0.000 HD
ENDBRANCH  20  21
ENDBRANCH  18  20
ENDBRANCH  17  18
ENDBRANCH   1  17
TORSDOF 5
ENDMDL
MODEL 6
REMARK VINA RESULT:      -6.5      1.996      7.882
REMARK  Name = 
REMARK  5 active torsions:
REMARK  status: ('A' for Active; 'I' for Inactive)
REMARK    1  A    between atoms: C_2  and  O_3
REMARK    2  A    between atoms: C_2  and  C_4
REMARK    3  A    between atoms: C_4  and  C_5
REMARK    4  A    between atoms: C_5  and  C_6
REMARK    5  A    between atoms: C_14  and  N_15
REMARK                            x       y       z     vdW  Elec       q    Type
REMARK                         _______ _______ _______ _____ _____    ______ ____
ROOT
ATOM      1  C   UNL     1       3.813   4.653  17.595  0.00  0.00    +0.000 C 
ATOM      2  O   UNL     1       3.348   3.963  18.498  0.00  0.00    +0.000 OA
ATOM      3  N   UNL     1       3.627   6.006  17.406  0.00  0.00    +0.000 N 
ATOM      4  C   UNL     1       2.962   6.844  18.266  0.00  0.00    +0.000 A 
ATOM      5  N   UNL     1       2.520   8.021  17.894  0.00  0.00    +0.000 NA
ATOM      6  C   UNL     1       1.841   8.620  18.944  0.00  0.00    +0.000 A 
ATOM      7  C   UNL     1       1.156   9.852  18.903  0.00  0.00    +0.000 A 
ATOM      8  C   UNL     1       0.497  10.326  20.047  0.00  0.00    +0.000 A 
ATOM      9  C   UNL     1       0.533   9.584  21.232  0.00  0.00    +0.000 A 
ATOM     10  C   UNL     1       1.217   8.361  21.307  0.00  0.00    +0.000 A 
ATOM     11  C   UNL     1       1.854   7.902  20.141  0.00  0.00    +0.000 A 
ATOM     12  S   UNL     1       2.736   6.449  19.907  0.00  0.00    +0.000 S 
ATOM     13  H   UNL     1       3.770   6.400  16.477  0.00  0.00    +0.000 HD
ENDROOT
BRANCH   9  14
ATOM     14  N   UNL     1      -0.160  10.084  22.429  0.00  0.00    +0.000 N 
ATOM     15  O   UNL     1      -1.126  10.836  22.261  0.00  0.00    +0.000 OA
ATOM     16  O   UNL     1       0.262   9.716  23.535  0.00  0.00    +0.000 OA
ENDBRANCH   9  14
BRANCH   1  17
ATOM     17  C   UNL     1       4.604   3.988  16.487  0.00  0.00    +0.000 C 
BRANCH  17  18
ATOM     18  C   UNL     1       5.323   5.030  15.638  0.00  0.00    +0.000 C 
BRANCH  18  20
ATOM     19  O   UNL     1       7.586   4.575  16.332  0.00  0.00    +0.000 OA
ATOM     20  C   UNL     1       6.666   5.373  16.227  0.00  0.00    +0.000 C 
BRANCH  20  21
ATOM     21  O   UNL     1       6.762   6.654  16.638  0.00  0.00    +0.000 OA
ATOM     22  H   UNL     1       5.955   7.186  16.504  0.00  0.00    +0.000 HD
ENDBRANCH  20  21
ENDBRANCH  18  20
ENDBRANCH  17  18
ENDBRANCH   1  17
TORSDOF 5
ENDMDL
MODEL 7
REMARK VINA RESULT:      -6.4      8.003      9.897
REMARK  Name = 
REMARK  5 active torsions:
REMARK  status: ('A' for Active; 'I' for Inactive)
REMARK    1  A    between atoms: C_2  and  O_3
REMARK    2  A    between atoms: C_2  and  C_4
REMARK    3  A    between atoms: C_4  and  C_5
REMARK    4  A    between atoms: C_5  and  C_6
REMARK    5  A    between atoms: C_14  and  N_15
REMARK                            x       y       z     vdW  Elec       q    Type
REMARK                         _______ _______ _______ _____ _____    ______ ____
ROOT
ATOM      1  C   UNL     1       8.282   8.275  18.259  0.00  0.00    +0.000 C 
ATOM      2  O   UNL     1       7.973   8.626  17.123  0.00  0.00    +0.000 OA
ATOM      3  N   UNL     1       8.974   9.013  19.195  0.00  0.00    +0.000 N 
ATOM      4  C   UNL     1       9.354  10.324  19.050  0.00  0.00    +0.000 A 
ATOM      5  N   UNL     1      10.284  10.871  19.796  0.00  0.00    +0.000 NA
ATOM      6  C   UNL     1      10.499  12.179  19.392  0.00  0.00    +0.000 A 
ATOM      7  C   UNL     1      11.477  13.061  19.900  0.00  0.00    +0.000 A 
ATOM      8  C   UNL     1      11.587  14.358  19.379  0.00  0.00    +0.000 A 
ATOM      9  C   UNL     1      10.720  14.783  18.367  0.00  0.00    +0.000 A 
ATOM     10  C   UNL     1       9.729  13.932  17.852  0.00  0.00    +0.000 A 
ATOM     11  C   UNL     1       9.651  12.632  18.380  0.00  0.00    +0.000 A 
ATOM     12  S   UNL     1       8.582  11.364  17.944  0.00  0.00    +0.000 S 
ATOM     13  H   UNL     1       9.456   8.527  19.951  0.00  0.00    +0.000 HD
ENDROOT
BRANCH   9  14
ATOM     14  N   UNL     1      10.841  16.143  17.824  0.00  0.00    +0.000 N 
ATOM     15  O   UNL     1      10.907  16.268  16.596  0.00  0.00    +0.000 OA
ATOM     16  O   UNL     1      10.862  17.086  18.630  0.00  0.00    +0.000 OA
ENDBRANCH   9  14
BRANCH   1  17
ATOM     17  C   UNL     1       7.984   6.857  18.702  0.00  0.00    +0.000 C 
BRANCH  17  18
ATOM     18  C   UNL     1       6.973   6.203  17.767  0.00  0.00    +0.000 C 
BRANCH  18  20
ATOM     19  O   UNL     1       8.071   4.235  16.912  0.00  0.00    +0.000 OA
ATOM     20  C   UNL     1       7.226   4.723  17.649  0.00  0.00    +0.000 C 
BRANCH  20  21
ATOM     21  O   UNL     1       6.424   3.975  18.433  0.00  0.00    +0.000 OA
ATOM     22  H   UNL     1       5.820   4.488  19.004  0.00  0.00    +0.000 HD
ENDBRANCH  20  21
ENDBRANCH  18  20
ENDBRANCH  17  18
ENDBRANCH   1  17
TORSDOF 5
ENDMDL
MODEL 8
REMARK VINA RESULT:      -6.4      1.963      8.027
REMARK  Name = 
REMARK  5 active torsions:
REMARK  status: ('A' for Active; 'I' for Inactive)
REMARK    1  A    between atoms: C_2  and  O_3
REMARK    2  A    between atoms: C_2  and  C_4
REMARK    3  A    between atoms: C_4  and  C_5
REMARK    4  A    between atoms: C_5  and  C_6
REMARK    5  A    between atoms: C_14  and  N_15
REMARK                            x       y       z     vdW  Elec       q    Type
REMARK                         _______ _______ _______ _____ _____    ______ ____
ROOT
ATOM      1  C   UNL     1       4.883   4.197  16.899  0.00  0.00    +0.000 C 
ATOM      2  O   UNL     1       4.304   3.475  17.706  0.00  0.00    +0.000 OA
ATOM      3  N   UNL     1       4.709   5.553  16.725  0.00  0.00    +0.000 N 
ATOM      4  C   UNL     1       3.916   6.358  17.505  0.00  0.00    +0.000 A 
ATOM      5  N   UNL     1       3.516   7.543  17.109  0.00  0.00    +0.000 NA
ATOM      6  C   UNL     1       2.688   8.102  18.069  0.00  0.00    +0.000 A 
ATOM      7  C   UNL     1       1.999   9.330  17.966  0.00  0.00    +0.000 A 
ATOM      8  C   UNL     1       1.179   9.762  19.019  0.00  0.00    +0.000 A 
ATOM      9  C   UNL     1       1.055   8.984  20.174  0.00  0.00    +0.000 A 
ATOM     10  C   UNL     1       1.738   7.766  20.310  0.00  0.00    +0.000 A 
ATOM     11  C   UNL     1       2.540   7.348  19.234  0.00  0.00    +0.000 A 
ATOM     12  S   UNL     1       3.465   5.911  19.085  0.00  0.00    +0.000 S 
ATOM     13  H   UNL     1       4.977   5.977  15.837  0.00  0.00    +0.000 HD
ENDROOT
BRANCH   9  14
ATOM     14  N   UNL     1       0.193   9.441  21.274  0.00  0.00    +0.000 N 
ATOM     15  O   UNL     1      -0.740  10.202  20.995  0.00  0.00    +0.000 OA
ATOM     16  O   UNL     1       0.449   9.030  22.416  0.00  0.00    +0.000 OA
ENDBRANCH   9  14
BRANCH   1  17
ATOM     17  C   UNL     1       5.832   3.573  15.896  0.00  0.00    +0.000 C 
BRANCH  17  18
ATOM     18  C   UNL     1       5.769   4.312  14.564  0.00  0.00    +0.000 C 
BRANCH  18  20
ATOM     19  O   UNL     1       7.605   5.047  13.186  0.00  0.00    +0.000 OA
ATOM     20  C   UNL     1       7.064   5.028  14.282  0.00  0.00    +0.000 C 
BRANCH  20  21
ATOM     21  O   UNL     1       7.581   5.650  15.361  0.00  0.00    +0.000 OA
ATOM     22  H   UNL     1       8.393   5.242  15.716  0.00  0.00    +0.000 HD
ENDBRANCH  20  21
ENDBRANCH  18  20
ENDBRANCH  17  18
ENDBRANCH   1  17
TORSDOF 5
ENDMDL
MODEL 9
REMARK VINA RESULT:      -6.3      2.131      7.992
REMARK  Name = 
REMARK  5 active torsions:
REMARK  status: ('A' for Active; 'I' for Inactive)
REMARK    1  A    between atoms: C_2  and  O_3
REMARK    2  A    between atoms: C_2  and  C_4
REMARK    3  A    between atoms: C_4  and  C_5
REMARK    4  A    between atoms: C_5  and  C_6
REMARK    5  A    between atoms: C_14  and  N_15
REMARK                            x       y       z     vdW  Elec       q    Type
REMARK                         _______ _______ _______ _____ _____    ______ ____
ROOT
ATOM      1  C   UNL     1       4.340   5.884  17.306  0.00  0.00    +0.000 C 
ATOM      2  O   UNL     1       4.638   6.874  16.643  0.00  0.00    +0.000 OA
ATOM      3  N   UNL     1       3.486   5.836  18.387  0.00  0.00    +0.000 N 
ATOM      4  C   UNL     1       2.732   6.886  18.850  0.00  0.00    +0.000 A 
ATOM      5  N   UNL     1       2.211   6.896  20.054  0.00  0.00    +0.000 NA
ATOM      6  C   UNL     1       1.554   8.097  20.269  0.00  0.00    +0.000 A 
ATOM      7  C   UNL     1       0.941   8.512  21.471  0.00  0.00    +0.000 A 
ATOM      8  C   UNL     1       0.325   9.769  21.545  0.00  0.00    +0.000 A 
ATOM      9  C   UNL     1       0.307  10.607  20.425  0.00  0.00    +0.000 A 
ATOM     10  C   UNL     1       0.897  10.217  19.213  0.00  0.00    +0.000 A 
ATOM     11  C   UNL     1       1.521   8.958  19.171  0.00  0.00    +0.000 A 
ATOM     12  S   UNL     1       2.347   8.218  17.862  0.00  0.00    +0.000 S 
ATOM     13  H   UNL     1       3.567   5.065  19.049  0.00  0.00    +0.000 HD
ENDROOT
BRANCH   9  14
ATOM     14  N   UNL     1      -0.339  11.925  20.509  0.00  0.00    +0.000 N 
ATOM     15  O   UNL     1       0.245  12.885  19.995  0.00  0.00    +0.000 OA
ATOM     16  O   UNL     1      -1.436  11.994  21.084  0.00  0.00    +0.000 OA
ENDBRANCH   9  14
BRANCH   1  17
ATOM     17  C   UNL     1       5.026   4.565  17.015  0.00  0.00    +0.000 C 
BRANCH  17  18
ATOM     18  C   UNL     1       5.631   4.571  15.616  0.00  0.00    +0.000 C 
BRANCH  18  20
ATOM     19  O   UNL     1       7.822   4.417  16.610  0.00  0.00    +0.000 OA
ATOM     20  C   UNL     1       7.122   4.777  15.674  0.00  0.00    +0.000 C 
BRANCH  20  21
ATOM     21  O   UNL     1       7.622   5.405  14.591  0.00  0.00    +0.000 OA
ATOM     22  H   UNL     1       6.963   5.901  14.068  0.00  0.00    +0.000 HD
ENDBRANCH  20  21
ENDBRANCH  18  20
ENDBRANCH  17  18
ENDBRANCH   1  17
TORSDOF 5
ENDMDL
