MODEL 1
REMARK VINA RESULT:      -8.1      0.000      0.000
REMARK  Name = 
REMARK  8 active torsions:
REMARK  status: ('A' for Active; 'I' for Inactive)
REMARK    1  A    between atoms: C_1  and  C_2
REMARK    2  A    between atoms: C_2  and  C_3
REMARK    3  A    between atoms: C_3  and  C_4
REMARK    4  A    between atoms: C_4  and  N_5
REMARK    5  A    between atoms: C_4  and  C_17
REMARK    6  A    between atoms: C_6  and  C_8
REMARK    7  A    between atoms: C_17  and  O_18
REMARK    8  A    between atoms: C_17  and  C_19
REMARK                            x       y       z     vdW  Elec       q    Type
REMARK                         _______ _______ _______ _____ _____    ______ ____
ROOT
ATOM      1  N   UNL     1       3.479   5.203  17.603  0.00  0.00    +0.000 N 
ATOM      2  C   UNL     1       3.654   5.976  18.733  0.00  0.00    +0.000 C 
ATOM      3  O   UNL     1       4.463   5.725  19.617  0.00  0.00    +0.000 OA
ATOM      4  H   UNL     1       2.933   5.568  16.836  0.00  0.00    +0.000 HD
ENDROOT
BRANCH   2   5
ATOM      5  C   UNL     1       2.798   7.183  18.826  0.00  0.00    +0.000 A 
ATOM      6  C   UNL     1       2.689   8.070  17.749  0.00  0.00    +0.000 A 
ATOM      7  C   UNL     1       1.883   9.211  17.845  0.00  0.00    +0.000 A 
ATOM      8  C   UNL     1       1.179   9.453  19.034  0.00  0.00    +0.000 A 
ATOM      9  C   UNL     1       0.295  10.481  19.460  0.00  0.00    +0.000 A 
ATOM     10  C   UNL     1      -0.111  10.186  20.741  0.00  0.00    +0.000 A 
ATOM     11  N   UNL     1       0.488   9.008  21.103  0.00  0.00    +0.000 N 
ATOM     12  C   UNL     1       1.286   8.541  20.083  0.00  0.00    +0.000 A 
ATOM     13  C   UNL     1       2.082   7.394  20.015  0.00  0.00    +0.000 A 
ATOM     14  H   UNL     1       0.364   8.545  21.997  0.00  0.00    +0.000 HD
ENDBRANCH   2   5
BRANCH   1  15
ATOM     15  C   UNL     1       4.221   3.968  17.363  0.00  0.00    +0.000 C 
BRANCH  15  16
ATOM     16  C   UNL     1       4.788   3.935  15.921  0.00  0.00    +0.000 C 
BRANCH  16  18
ATOM     17  C   UNL     1       6.752   4.562  14.446  0.00  0.00    +0.000 C 
ATOM     18  C   UNL     1       6.278   4.302  15.868  0.00  0.00    +0.000 C 
ENDBRANCH  16  18
ENDBRANCH  15  16
BRANCH  15  19
ATOM     19  C   UNL     1       3.401   2.680  17.701  0.00  0.00    +0.000 C 
BRANCH  19  20
ATOM     20  C   UNL     1       2.683   2.729  19.047  0.00  0.00    +0.000 A 
ATOM     21  C   UNL     1       1.305   3.013  19.073  0.00  0.00    +0.000 A 
ATOM     22  C   UNL     1       0.613   3.130  20.283  0.00  0.00    +0.000 A 
ATOM     23  C   UNL     1       1.286   2.960  21.488  0.00  0.00    +0.000 A 
ATOM     24  C   UNL     1       2.644   2.644  21.484  0.00  0.00    +0.000 A 
ATOM     25  C   UNL     1       3.338   2.522  20.272  0.00  0.00    +0.000 A 
ENDBRANCH  19  20
BRANCH  19  26
ATOM     26  O   UNL     1       4.267   1.538  17.663  0.00  0.00    +0.000 OA
ATOM     27  H   UNL     1       4.849   1.578  18.439  0.00  0.00    +0.000 HD
ENDBRANCH  19  26
ENDBRANCH  15  19
ENDBRANCH   1  15
TORSDOF 7
ENDMDL
MODEL 2
REMARK VINA RESULT:      -8.1      0.317      1.138
REMARK  Name = 
REMARK  8 active torsions:
REMARK  status: ('A' for Active; 'I' for Inactive)
REMARK    1  A    between atoms: C_1  and  C_2
REMARK    2  A    between atoms: C_2  and  C_3
REMARK    3  A    between atoms: C_3  and  C_4
REMARK    4  A    between atoms: C_4  and  N_5
REMARK    5  A    between atoms: C_4  and  C_17
REMARK    6  A    between atoms: C_6  and  C_8
REMARK    7  A    between atoms: C_17  and  O_18
REMARK    8  A    between atoms: C_17  and  C_19
REMARK                            x       y       z     vdW  Elec       q    Type
REMARK                         _______ _______ _______ _____ _____    ______ ____
ROOT
ATOM      1  N   UNL     1       3.475   5.264  17.574  0.00  0.00    +0.000 N 
ATOM      2  C   UNL     1       3.652   6.049  18.694  0.00  0.00    +0.000 C 
ATOM      3  O   UNL     1       4.465   5.808  19.579  0.00  0.00    +0.000 OA
ATOM      4  H   UNL     1       2.926   5.620  16.805  0.00  0.00    +0.000 HD
ENDROOT
BRANCH   2   5
ATOM      5  C   UNL     1       2.795   7.256  18.778  0.00  0.00    +0.000 A 
ATOM      6  C   UNL     1       2.706   8.148  17.703  0.00  0.00    +0.000 A 
ATOM      7  C   UNL     1       1.900   9.288  17.789  0.00  0.00    +0.000 A 
ATOM      8  C   UNL     1       1.174   9.526  18.966  0.00  0.00    +0.000 A 
ATOM      9  C   UNL     1       0.282  10.553  19.380  0.00  0.00    +0.000 A 
ATOM     10  C   UNL     1      -0.148  10.251  20.652  0.00  0.00    +0.000 A 
ATOM     11  N   UNL     1       0.444   9.072  21.020  0.00  0.00    +0.000 N 
ATOM     12  C   UNL     1       1.261   8.608  20.013  0.00  0.00    +0.000 A 
ATOM     13  C   UNL     1       2.057   7.462  19.954  0.00  0.00    +0.000 A 
ATOM     14  H   UNL     1       0.303   8.605  21.909  0.00  0.00    +0.000 HD
ENDBRANCH   2   5
BRANCH   1  15
ATOM     15  C   UNL     1       4.217   4.027  17.345  0.00  0.00    +0.000 C 
BRANCH  15  16
ATOM     16  C   UNL     1       4.780   3.979  15.902  0.00  0.00    +0.000 C 
BRANCH  16  18
ATOM     17  C   UNL     1       6.888   4.504  17.209  0.00  0.00    +0.000 C 
ATOM     18  C   UNL     1       6.251   4.415  15.831  0.00  0.00    +0.000 C 
ENDBRANCH  16  18
ENDBRANCH  15  16
BRANCH  15  19
ATOM     19  C   UNL     1       3.400   2.742  17.698  0.00  0.00    +0.000 C 
BRANCH  19  20
ATOM     20  C   UNL     1       2.648   2.822  19.025  0.00  0.00    +0.000 A 
ATOM     21  C   UNL     1       3.350   2.578  20.219  0.00  0.00    +0.000 A 
ATOM     22  C   UNL     1       2.697   2.579  21.456  0.00  0.00    +0.000 A 
ATOM     23  C   UNL     1       1.330   2.829  21.519  0.00  0.00    +0.000 A 
ATOM     24  C   UNL     1       0.622   3.105  20.351  0.00  0.00    +0.000 A 
ATOM     25  C   UNL     1       1.276   3.110  19.111  0.00  0.00    +0.000 A 
ENDBRANCH  19  20
BRANCH  19  26
ATOM     26  O   UNL     1       4.276   1.607  17.713  0.00  0.00    +0.000 OA
ATOM     27  H   UNL     1       4.824   1.662  18.512  0.00  0.00    +0.000 HD
ENDBRANCH  19  26
ENDBRANCH  15  19
ENDBRANCH   1  15
TORSDOF 7
ENDMDL
MODEL 3
REMARK VINA RESULT:      -7.9      1.659      2.129
REMARK  Name = 
REMARK  8 active torsions:
REMARK  status: ('A' for Active; 'I' for Inactive)
REMARK    1  A    between atoms: C_1  and  C_2
REMARK    2  A    between atoms: C_2  and  C_3
REMARK    3  A    between atoms: C_3  and  C_4
REMARK    4  A    between atoms: C_4  and  N_5
REMARK    5  A    between atoms: C_4  and  C_17
REMARK    6  A    between atoms: C_6  and  C_8
REMARK    7  A    between atoms: C_17  and  O_18
REMARK    8  A    between atoms: C_17  and  C_19
REMARK                            x       y       z     vdW  Elec       q    Type
REMARK                         _______ _______ _______ _____ _____    ______ ____
ROOT
ATOM      1  N   UNL     1       4.319   5.392  19.441  0.00  0.00    +0.000 N 
ATOM      2  C   UNL     1       3.596   6.033  18.457  0.00  0.00    +0.000 C 
ATOM      3  O   UNL     1       3.644   5.740  17.269  0.00  0.00    +0.000 OA
ATOM      4  H   UNL     1       4.091   5.561  20.410  0.00  0.00    +0.000 HD
ENDROOT
BRANCH   2   5
ATOM      5  C   UNL     1       2.708   7.127  18.920  0.00  0.00    +0.000 A 
ATOM      6  C   UNL     1       2.168   7.114  20.211  0.00  0.00    +0.000 A 
ATOM      7  C   UNL     1       1.326   8.147  20.641  0.00  0.00    +0.000 A 
ATOM      8  C   UNL     1       1.033   9.201  19.763  0.00  0.00    +0.000 A 
ATOM      9  C   UNL     1       0.243  10.378  19.870  0.00  0.00    +0.000 A 
ATOM     10  C   UNL     1       0.340  11.062  18.679  0.00  0.00    +0.000 A 
ATOM     11  N   UNL     1       1.171  10.346  17.858  0.00  0.00    +0.000 N 
ATOM     12  C   UNL     1       1.605   9.202  18.491  0.00  0.00    +0.000 A 
ATOM     13  C   UNL     1       2.449   8.186  18.036  0.00  0.00    +0.000 A 
ATOM     14  H   UNL     1       1.429  10.617  16.915  0.00  0.00    +0.000 HD
ENDBRANCH   2   5
BRANCH   1  15
ATOM     15  C   UNL     1       5.260   4.310  19.158  0.00  0.00    +0.000 C 
BRANCH  15  16
ATOM     16  C   UNL     1       6.105   4.628  17.899  0.00  0.00    +0.000 C 
BRANCH  16  18
ATOM     17  C   UNL     1       7.373   6.821  17.797  0.00  0.00    +0.000 C 
ATOM     18  C   UNL     1       7.408   5.365  18.237  0.00  0.00    +0.000 C 
ENDBRANCH  16  18
ENDBRANCH  15  16
BRANCH  15  19
ATOM     19  C   UNL     1       4.577   2.906  19.067  0.00  0.00    +0.000 C 
BRANCH  19  20
ATOM     20  C   UNL     1       3.098   2.903  19.447  0.00  0.00    +0.000 A 
ATOM     21  C   UNL     1       2.136   2.725  18.436  0.00  0.00    +0.000 A 
ATOM     22  C   UNL     1       0.768   2.774  18.721  0.00  0.00    +0.000 A 
ATOM     23  C   UNL     1       0.338   2.998  20.025  0.00  0.00    +0.000 A 
ATOM     24  C   UNL     1       1.274   3.144  21.047  0.00  0.00    +0.000 A 
ATOM     25  C   UNL     1       2.646   3.090  20.764  0.00  0.00    +0.000 A 
ENDBRANCH  19  20
BRANCH  19  26
ATOM     26  O   UNL     1       5.285   1.976  19.897  0.00  0.00    +0.000 OA
ATOM     27  H   UNL     1       5.483   1.190  19.364  0.00  0.00    +0.000 HD
ENDBRANCH  19  26
ENDBRANCH  15  19
ENDBRANCH   1  15
TORSDOF 7
ENDMDL
MODEL 4
REMARK VINA RESULT:      -7.8      1.804      4.405
REMARK  Name = 
REMARK  8 active torsions:
REMARK  status: ('A' for Active; 'I' for Inactive)
REMARK    1  A    between atoms: C_1  and  C_2
REMARK    2  A    between atoms: C_2  and  C_3
REMARK    3  A    between atoms: C_3  and  C_4
REMARK    4  A    between atoms: C_4  and  N_5
REMARK    5  A    between atoms: C_4  and  C_17
REMARK    6  A    between atoms: C_6  and  C_8
REMARK    7  A    between atoms: C_17  and  O_18
REMARK    8  A    between atoms: C_17  and  C_19
REMARK                            x       y       z     vdW  Elec       q    Type
REMARK                         _______ _______ _______ _____ _____    ______ ____
ROOT
ATOM      1  N   UNL     1       2.564   5.334  19.283  0.00  0.00    +0.000 N 
ATOM      2  C   UNL     1       2.697   6.507  18.569  0.00  0.00    +0.000 C 
ATOM      3  O   UNL     1       3.298   6.598  17.505  0.00  0.00    +0.000 OA
ATOM      4  H   UNL     1       1.905   5.295  20.048  0.00  0.00    +0.000 HD
ENDROOT
BRANCH   2   5
ATOM      5  C   UNL     1       2.041   7.699  19.159  0.00  0.00    +0.000 A 
ATOM      6  C   UNL     1       1.697   7.730  20.516  0.00  0.00    +0.000 A 
ATOM      7  C   UNL     1       1.073   8.856  21.066  0.00  0.00    +0.000 A 
ATOM      8  C   UNL     1       0.800   9.958  20.242  0.00  0.00    +0.000 A 
ATOM      9  C   UNL     1       0.199  11.227  20.465  0.00  0.00    +0.000 A 
ATOM     10  C   UNL     1       0.212  11.916  19.275  0.00  0.00    +0.000 A 
ATOM     11  N   UNL     1       0.811  11.114  18.339  0.00  0.00    +0.000 N 
ATOM     12  C   UNL     1       1.175   9.910  18.899  0.00  0.00    +0.000 A 
ATOM     13  C   UNL     1       1.800   8.800  18.324  0.00  0.00    +0.000 A 
ATOM     14  H   UNL     1       0.964  11.369  17.369  0.00  0.00    +0.000 HD
ENDBRANCH   2   5
BRANCH   1  15
ATOM     15  C   UNL     1       3.169   4.074  18.860  0.00  0.00    +0.000 C 
BRANCH  15  16
ATOM     16  C   UNL     1       2.251   2.875  19.211  0.00  0.00    +0.000 C 
BRANCH  16  18
ATOM     17  C   UNL     1       1.536   2.717  21.638  0.00  0.00    +0.000 C 
ATOM     18  C   UNL     1       1.184   3.239  20.253  0.00  0.00    +0.000 C 
ENDBRANCH  16  18
ENDBRANCH  15  16
BRANCH  15  19
ATOM     19  C   UNL     1       4.623   3.875  19.399  0.00  0.00    +0.000 C 
BRANCH  19  20
ATOM     20  C   UNL     1       5.694   4.611  18.597  0.00  0.00    +0.000 A 
ATOM     21  C   UNL     1       6.558   5.496  19.269  0.00  0.00    +0.000 A 
ATOM     22  C   UNL     1       7.516   6.240  18.572  0.00  0.00    +0.000 A 
ATOM     23  C   UNL     1       7.629   6.108  17.192  0.00  0.00    +0.000 A 
ATOM     24  C   UNL     1       6.807   5.212  16.513  0.00  0.00    +0.000 A 
ATOM     25  C   UNL     1       5.849   4.461  17.209  0.00  0.00    +0.000 A 
ENDBRANCH  19  20
BRANCH  19  26
ATOM     26  O   UNL     1       4.932   2.475  19.436  0.00  0.00    +0.000 OA
ATOM     27  H   UNL     1       5.865   2.368  19.191  0.00  0.00    +0.000 HD
ENDBRANCH  19  26
ENDBRANCH  15  19
ENDBRANCH   1  15
TORSDOF 7
ENDMDL
MODEL 5
REMARK VINA RESULT:      -7.8      1.529      1.780
REMARK  Name = 
REMARK  8 active torsions:
REMARK  status: ('A' for Active; 'I' for Inactive)
REMARK    1  A    between atoms: C_1  and  C_2
REMARK    2  A    between atoms: C_2  and  C_3
REMARK    3  A    between atoms: C_3  and  C_4
REMARK    4  A    between atoms: C_4  and  N_5
REMARK    5  A    between atoms: C_4  and  C_17
REMARK    6  A    between atoms: C_6  and  C_8
REMARK    7  A    between atoms: C_17  and  O_18
REMARK    8  A    between atoms: C_17  and  C_19
REMARK                            x       y       z     vdW  Elec       q    Type
REMARK                         _______ _______ _______ _____ _____    ______ ____
ROOT
ATOM      1  N   UNL     1       4.355   5.455  19.273  0.00  0.00    +0.000 N 
ATOM      2  C   UNL     1       3.693   6.090  18.243  0.00  0.00    +0.000 C 
ATOM      3  O   UNL     1       3.790   5.769  17.064  0.00  0.00    +0.000 OA
ATOM      4  H   UNL     1       4.086   5.650  20.226  0.00  0.00    +0.000 HD
ENDROOT
BRANCH   2   5
ATOM      5  C   UNL     1       2.807   7.211  18.640  0.00  0.00    +0.000 A 
ATOM      6  C   UNL     1       2.540   8.262  17.754  0.00  0.00    +0.000 A 
ATOM      7  C   UNL     1       1.708   9.320  18.136  0.00  0.00    +0.000 A 
ATOM      8  C   UNL     1       1.138   9.315  19.418  0.00  0.00    +0.000 A 
ATOM      9  C   UNL     1       0.270  10.201  20.112  0.00  0.00    +0.000 A 
ATOM     10  C   UNL     1       0.027   9.668  21.357  0.00  0.00    +0.000 A 
ATOM     11  N   UNL     1       0.709   8.482  21.438  0.00  0.00    +0.000 N 
ATOM     12  C   UNL     1       1.401   8.243  20.272  0.00  0.00    +0.000 A 
ATOM     13  C   UNL     1       2.227   7.173  19.917  0.00  0.00    +0.000 A 
ATOM     14  H   UNL     1       0.707   7.867  22.245  0.00  0.00    +0.000 HD
ENDBRANCH   2   5
BRANCH   1  15
ATOM     15  C   UNL     1       5.285   4.349  19.058  0.00  0.00    +0.000 C 
BRANCH  15  16
ATOM     16  C   UNL     1       6.104   4.560  17.759  0.00  0.00    +0.000 C 
BRANCH  16  18
ATOM     17  C   UNL     1       7.766   5.767  19.246  0.00  0.00    +0.000 C 
ATOM     18  C   UNL     1       7.584   4.857  18.041  0.00  0.00    +0.000 C 
ENDBRANCH  16  18
ENDBRANCH  15  16
BRANCH  15  19
ATOM     19  C   UNL     1       4.594   2.947  19.093  0.00  0.00    +0.000 C 
BRANCH  19  20
ATOM     20  C   UNL     1       3.113   2.986  19.462  0.00  0.00    +0.000 A 
ATOM     21  C   UNL     1       2.155   2.832  18.444  0.00  0.00    +0.000 A 
ATOM     22  C   UNL     1       0.786   2.921  18.718  0.00  0.00    +0.000 A 
ATOM     23  C   UNL     1       0.353   3.162  20.018  0.00  0.00    +0.000 A 
ATOM     24  C   UNL     1       1.284   3.284  21.047  0.00  0.00    +0.000 A 
ATOM     25  C   UNL     1       2.656   3.191  20.774  0.00  0.00    +0.000 A 
ENDBRANCH  19  20
BRANCH  19  26
ATOM     26  O   UNL     1       5.292   2.094  20.011  0.00  0.00    +0.000 OA
ATOM     27  H   UNL     1       4.688   1.881  20.740  0.00  0.00    +0.000 HD
ENDBRANCH  19  26
ENDBRANCH  15  19
ENDBRANCH   1  15
TORSDOF 7
ENDMDL
MODEL 6
REMARK VINA RESULT:      -7.7      0.925      1.458
REMARK  Name = 
REMARK  8 active torsions:
REMARK  status: ('A' for Active; 'I' for Inactive)
REMARK    1  A    between atoms: C_1  and  C_2
REMARK    2  A    between atoms: C_2  and  C_3
REMARK    3  A    between atoms: C_3  and  C_4
REMARK    4  A    between atoms: C_4  and  N_5
REMARK    5  A    between atoms: C_4  and  C_17
REMARK    6  A    between atoms: C_6  and  C_8
REMARK    7  A    between atoms: C_17  and  O_18
REMARK    8  A    between atoms: C_17  and  C_19
REMARK                            x       y       z     vdW  Elec       q    Type
REMARK                         _______ _______ _______ _____ _____    ______ ____
ROOT
ATOM      1  N   UNL     1       3.323   5.252  17.748  0.00  0.00    +0.000 N 
ATOM      2  C   UNL     1       3.586   5.945  18.911  0.00  0.00    +0.000 C 
ATOM      3  O   UNL     1       4.493   5.666  19.686  0.00  0.00    +0.000 OA
ATOM      4  H   UNL     1       2.686   5.648  17.072  0.00  0.00    +0.000 HD
ENDROOT
BRANCH   2   5
ATOM      5  C   UNL     1       2.700   7.102  19.187  0.00  0.00    +0.000 A 
ATOM      6  C   UNL     1       2.044   7.225  20.417  0.00  0.00    +0.000 A 
ATOM      7  C   UNL     1       1.204   8.315  20.670  0.00  0.00    +0.000 A 
ATOM      8  C   UNL     1       1.030   9.290  19.677  0.00  0.00    +0.000 A 
ATOM      9  C   UNL     1       0.276  10.493  19.601  0.00  0.00    +0.000 A 
ATOM     10  C   UNL     1       0.504  11.058  18.367  0.00  0.00    +0.000 A 
ATOM     11  N   UNL     1       1.380  10.246  17.696  0.00  0.00    +0.000 N 
ATOM     12  C   UNL     1       1.714   9.156  18.468  0.00  0.00    +0.000 A 
ATOM     13  C   UNL     1       2.559   8.079  18.189  0.00  0.00    +0.000 A 
ATOM     14  H   UNL     1       1.733  10.421  16.761  0.00  0.00    +0.000 HD
ENDBRANCH   2   5
BRANCH   1  15
ATOM     15  C   UNL     1       4.082   4.074  17.336  0.00  0.00    +0.000 C 
BRANCH  15  16
ATOM     16  C   UNL     1       4.479   4.166  15.841  0.00  0.00    +0.000 C 
BRANCH  16  18
ATOM     17  C   UNL     1       6.870   4.685  16.504  0.00  0.00    +0.000 C 
ATOM     18  C   UNL     1       5.964   3.854  15.608  0.00  0.00    +0.000 C 
ENDBRANCH  16  18
ENDBRANCH  15  16
BRANCH  15  19
ATOM     19  C   UNL     1       3.360   2.727  17.670  0.00  0.00    +0.000 C 
BRANCH  19  20
ATOM     20  C   UNL     1       2.659   2.711  19.026  0.00  0.00    +0.000 A 
ATOM     21  C   UNL     1       1.275   2.964  19.080  0.00  0.00    +0.000 A 
ATOM     22  C   UNL     1       0.597   3.021  20.301  0.00  0.00    +0.000 A 
ATOM     23  C   UNL     1       1.290   2.821  21.490  0.00  0.00    +0.000 A 
ATOM     24  C   UNL     1       2.653   2.536  21.458  0.00  0.00    +0.000 A 
ATOM     25  C   UNL     1       3.334   2.474  20.234  0.00  0.00    +0.000 A 
ENDBRANCH  19  20
BRANCH  19  26
ATOM     26  O   UNL     1       4.304   1.650  17.608  0.00  0.00    +0.000 OA
ATOM     27  H   UNL     1       3.823   0.844  17.361  0.00  0.00    +0.000 HD
ENDBRANCH  19  26
ENDBRANCH  15  19
ENDBRANCH   1  15
TORSDOF 7
ENDMDL
MODEL 7
REMARK VINA RESULT:      -7.7      1.089      1.213
REMARK  Name = 
REMARK  8 active torsions:
REMARK  status: ('A' for Active; 'I' for Inactive)
REMARK    1  A    between atoms: C_1  and  C_2
REMARK    2  A    between atoms: C_2  and  C_3
REMARK    3  A    between atoms: C_3  and  C_4
REMARK    4  A    between atoms: C_4  and  N_5
REMARK    5  A    between atoms: C_4  and  C_17
REMARK    6  A    between atoms: C_6  and  C_8
REMARK    7  A    between atoms: C_17  and  O_18
REMARK    8  A    between atoms: C_17  and  C_19
REMARK                            x       y       z     vdW  Elec       q    Type
REMARK                         _______ _______ _______ _____ _____    ______ ____
ROOT
ATOM      1  N   UNL     1       3.706   5.531  18.214  0.00  0.00    +0.000 N 
ATOM      2  C   UNL     1       3.793   6.846  17.808  0.00  0.00    +0.000 C 
ATOM      3  O   UNL     1       4.641   7.269  17.030  0.00  0.00    +0.000 OA
ATOM      4  H   UNL     1       2.878   5.220  18.703  0.00  0.00    +0.000 HD
ENDROOT
BRANCH   2   5
ATOM      5  C   UNL     1       2.766   7.761  18.360  0.00  0.00    +0.000 A 
ATOM      6  C   UNL     1       2.290   8.842  17.609  0.00  0.00    +0.000 A 
ATOM      7  C   UNL     1       1.324   9.706  18.137  0.00  0.00    +0.000 A 
ATOM      8  C   UNL     1       0.831   9.473  19.430  0.00  0.00    +0.000 A 
ATOM      9  C   UNL     1      -0.126  10.130  20.250  0.00  0.00    +0.000 A 
ATOM     10  C   UNL     1      -0.215   9.436  21.435  0.00  0.00    +0.000 A 
ATOM     11  N   UNL     1       0.647   8.374  21.358  0.00  0.00    +0.000 N 
ATOM     12  C   UNL     1       1.305   8.375  20.148  0.00  0.00    +0.000 A 
ATOM     13  C   UNL     1       2.268   7.496  19.645  0.00  0.00    +0.000 A 
ATOM     14  H   UNL     1       0.785   7.685  22.089  0.00  0.00    +0.000 HD
ENDBRANCH   2   5
BRANCH   1  15
ATOM     15  C   UNL     1       4.651   4.502  17.787  0.00  0.00    +0.000 C 
BRANCH  15  16
ATOM     16  C   UNL     1       4.694   4.399  16.241  0.00  0.00    +0.000 C 
BRANCH  16  18
ATOM     17  C   UNL     1       6.159   3.963  14.218  0.00  0.00    +0.000 C 
ATOM     18  C   UNL     1       6.128   4.312  15.699  0.00  0.00    +0.000 C 
ENDBRANCH  16  18
ENDBRANCH  15  16
BRANCH  15  19
ATOM     19  C   UNL     1       4.399   3.114  18.461  0.00  0.00    +0.000 C 
BRANCH  19  20
ATOM     20  C   UNL     1       3.021   2.970  19.103  0.00  0.00    +0.000 A 
ATOM     21  C   UNL     1       1.941   2.545  18.308  0.00  0.00    +0.000 A 
ATOM     22  C   UNL     1       0.648   2.455  18.833  0.00  0.00    +0.000 A 
ATOM     23  C   UNL     1       0.413   2.785  20.163  0.00  0.00    +0.000 A 
ATOM     24  C   UNL     1       1.475   3.176  20.977  0.00  0.00    +0.000 A 
ATOM     25  C   UNL     1       2.773   3.262  20.455  0.00  0.00    +0.000 A 
ENDBRANCH  19  20
BRANCH  19  26
ATOM     26  O   UNL     1       5.413   2.869  19.445  0.00  0.00    +0.000 OA
ATOM     27  H   UNL     1       6.168   3.445  19.247  0.00  0.00    +0.000 HD
ENDBRANCH  19  26
ENDBRANCH  15  19
ENDBRANCH   1  15
TORSDOF 7
ENDMDL
MODEL 8
REMARK VINA RESULT:      -7.7      1.426      1.911
REMARK  Name = 
REMARK  8 active torsions:
REMARK  status: ('A' for Active; 'I' for Inactive)
REMARK    1  A    between atoms: C_1  and  C_2
REMARK    2  A    between atoms: C_2  and  C_3
REMARK    3  A    between atoms: C_3  and  C_4
REMARK    4  A    between atoms: C_4  and  N_5
REMARK    5  A    between atoms: C_4  and  C_17
REMARK    6  A    between atoms: C_6  and  C_8
REMARK    7  A    between atoms: C_17  and  O_18
REMARK    8  A    between atoms: C_17  and  C_19
REMARK                            x       y       z     vdW  Elec       q    Type
REMARK                         _______ _______ _______ _____ _____    ______ ____
ROOT
ATOM      1  N   UNL     1       4.159   6.449  17.627  0.00  0.00    +0.000 N 
ATOM      2  C   UNL     1       3.509   6.559  18.838  0.00  0.00    +0.000 C 
ATOM      3  O   UNL     1       3.709   5.820  19.795  0.00  0.00    +0.000 OA
ATOM      4  H   UNL     1       4.081   7.199  16.955  0.00  0.00    +0.000 HD
ENDROOT
BRANCH   2   5
ATOM      5  C   UNL     1       2.528   7.667  18.945  0.00  0.00    +0.000 A 
ATOM      6  C   UNL     1       2.222   8.462  17.834  0.00  0.00    +0.000 A 
ATOM      7  C   UNL     1       1.299   9.509  17.941  0.00  0.00    +0.000 A 
ATOM      8  C   UNL     1       0.679   9.751  19.176  0.00  0.00    +0.000 A 
ATOM      9  C   UNL     1      -0.280  10.699  19.625  0.00  0.00    +0.000 A 
ATOM     10  C   UNL     1      -0.534  10.447  20.954  0.00  0.00    +0.000 A 
ATOM     11  N   UNL     1       0.228   9.370  21.323  0.00  0.00    +0.000 N 
ATOM     12  C   UNL     1       0.984   8.928  20.260  0.00  0.00    +0.000 A 
ATOM     13  C   UNL     1       1.899   7.875  20.182  0.00  0.00    +0.000 A 
ATOM     14  H   UNL     1       0.238   8.957  22.250  0.00  0.00    +0.000 HD
ENDBRANCH   2   5
BRANCH   1  15
ATOM     15  C   UNL     1       5.136   5.401  17.343  0.00  0.00    +0.000 C 
BRANCH  15  16
ATOM     16  C   UNL     1       6.352   5.973  16.570  0.00  0.00    +0.000 C 
BRANCH  16  18
ATOM     17  C   UNL     1       7.625   5.913  18.762  0.00  0.00    +0.000 C 
ATOM     18  C   UNL     1       7.343   6.700  17.491  0.00  0.00    +0.000 C 
ENDBRANCH  16  18
ENDBRANCH  15  16
BRANCH  15  19
ATOM     19  C   UNL     1       4.517   4.158  16.624  0.00  0.00    +0.000 C 
BRANCH  19  20
ATOM     20  C   UNL     1       3.499   3.390  17.464  0.00  0.00    +0.000 A 
ATOM     21  C   UNL     1       2.144   3.763  17.400  0.00  0.00    +0.000 A 
ATOM     22  C   UNL     1       1.181   3.132  18.195  0.00  0.00    +0.000 A 
ATOM     23  C   UNL     1       1.557   2.115  19.064  0.00  0.00    +0.000 A 
ATOM     24  C   UNL     1       2.889   1.707  19.119  0.00  0.00    +0.000 A 
ATOM     25  C   UNL     1       3.854   2.334  18.320  0.00  0.00    +0.000 A 
ENDBRANCH  19  20
BRANCH  19  26
ATOM     26  O   UNL     1       5.565   3.270  16.215  0.00  0.00    +0.000 OA
ATOM     27  H   UNL     1       5.811   3.496  15.304  0.00  0.00    +0.000 HD
ENDBRANCH  19  26
ENDBRANCH  15  19
ENDBRANCH   1  15
TORSDOF 7
ENDMDL
MODEL 9
REMARK VINA RESULT:      -7.6      1.059      1.438
REMARK  Name = 
REMARK  8 active torsions:
REMARK  status: ('A' for Active; 'I' for Inactive)
REMARK    1  A    between atoms: C_1  and  C_2
REMARK    2  A    between atoms: C_2  and  C_3
REMARK    3  A    between atoms: C_3  and  C_4
REMARK    4  A    between atoms: C_4  and  N_5
REMARK    5  A    between atoms: C_4  and  C_17
REMARK    6  A    between atoms: C_6  and  C_8
REMARK    7  A    between atoms: C_17  and  O_18
REMARK    8  A    between atoms: C_17  and  C_19
REMARK                            x       y       z     vdW  Elec       q    Type
REMARK                         _______ _______ _______ _____ _____    ______ ____
ROOT
ATOM      1  N   UNL     1       3.546   5.516  18.024  0.00  0.00    +0.000 N 
ATOM      2  C   UNL     1       3.787   6.864  17.857  0.00  0.00    +0.000 C 
ATOM      3  O   UNL     1       4.777   7.320  17.297  0.00  0.00    +0.000 OA
ATOM      4  H   UNL     1       2.630   5.213  18.324  0.00  0.00    +0.000 HD
ENDROOT
BRANCH   2   5
ATOM      5  C   UNL     1       2.746   7.776  18.389  0.00  0.00    +0.000 A 
ATOM      6  C   UNL     1       2.243   8.823  17.608  0.00  0.00    +0.000 A 
ATOM      7  C   UNL     1       1.264   9.684  18.118  0.00  0.00    +0.000 A 
ATOM      8  C   UNL     1       0.788   9.483  19.422  0.00  0.00    +0.000 A 
ATOM      9  C   UNL     1      -0.176  10.147  20.230  0.00  0.00    +0.000 A 
ATOM     10  C   UNL     1      -0.241   9.489  21.437  0.00  0.00    +0.000 A 
ATOM     11  N   UNL     1       0.642   8.443  21.386  0.00  0.00    +0.000 N 
ATOM     12  C   UNL     1       1.289   8.418  20.170  0.00  0.00    +0.000 A 
ATOM     13  C   UNL     1       2.265   7.542  19.686  0.00  0.00    +0.000 A 
ATOM     14  H   UNL     1       0.800   7.780  22.137  0.00  0.00    +0.000 HD
ENDBRANCH   2   5
BRANCH   1  15
ATOM     15  C   UNL     1       4.477   4.482  17.582  0.00  0.00    +0.000 C 
BRANCH  15  16
ATOM     16  C   UNL     1       4.344   4.231  16.058  0.00  0.00    +0.000 C 
BRANCH  16  18
ATOM     17  C   UNL     1       6.865   4.488  15.969  0.00  0.00    +0.000 C 
ATOM     18  C   UNL     1       5.545   4.771  15.268  0.00  0.00    +0.000 C 
ENDBRANCH  16  18
ENDBRANCH  15  16
BRANCH  15  19
ATOM     19  C   UNL     1       4.364   3.157  18.406  0.00  0.00    +0.000 C 
BRANCH  19  20
ATOM     20  C   UNL     1       3.130   3.080  19.301  0.00  0.00    +0.000 A 
ATOM     21  C   UNL     1       3.296   3.168  20.696  0.00  0.00    +0.000 A 
ATOM     22  C   UNL     1       2.206   3.042  21.564  0.00  0.00    +0.000 A 
ATOM     23  C   UNL     1       0.931   2.829  21.050  0.00  0.00    +0.000 A 
ATOM     24  C   UNL     1       0.740   2.772  19.671  0.00  0.00    +0.000 A 
ATOM     25  C   UNL     1       1.830   2.903  18.800  0.00  0.00    +0.000 A 
ENDBRANCH  19  20
BRANCH  19  26
ATOM     26  O   UNL     1       5.544   2.988  19.203  0.00  0.00    +0.000 OA
ATOM     27  H   UNL     1       6.314   3.055  18.616  0.00  0.00    +0.000 HD
ENDBRANCH  19  26
ENDBRANCH  15  19
ENDBRANCH   1  15
TORSDOF 7
ENDMDL
