MODEL 1
REMARK VINA RESULT:      -7.3      0.000      0.000
REMARK  Name = 
REMARK  4 active torsions:
REMARK  status: ('A' for Active; 'I' for Inactive)
REMARK    1  A    between atoms: C_1  and  C_2
REMARK    2  A    between atoms: C_2  and  C_16
REMARK    3  A    between atoms: N_3  and  N_4
REMARK    4  A    between atoms: N_4  and  C_5
REMARK                            x       y       z     vdW  Elec       q    Type
REMARK                         _______ _______ _______ _____ _____    ______ ____
ROOT
ATOM      1  N   UNL     1       4.557   6.148  17.574  0.00  0.00    +0.000 N 
ATOM      2  H   UNL     1       4.119   7.073  17.584  0.00  0.00    +0.000 HD
ENDROOT
BRANCH   1   3
ATOM      3  C   UNL     1       3.932   5.289  18.514  0.00  0.00    +0.000 A 
ATOM      4  C   UNL     1       4.491   4.087  18.974  0.00  0.00    +0.000 A 
ATOM      5  F   UNL     1       5.679   3.657  18.520  0.00  0.00    +0.000 F 
ATOM      6  C   UNL     1       3.833   3.306  19.927  0.00  0.00    +0.000 A 
ATOM      7  F   UNL     1       4.395   2.156  20.327  0.00  0.00    +0.000 F 
ATOM      8  C   UNL     1       2.614   3.715  20.459  0.00  0.00    +0.000 A 
ATOM      9 BR   UNL     1       1.717   2.647  21.735  0.00  0.00    +0.000 Br
ATOM     10  C   UNL     1       2.065   4.921  20.044  0.00  0.00    +0.000 A 
ATOM     11  F   UNL     1       0.896   5.351  20.543  0.00  0.00    +0.000 F 
ATOM     12  C   UNL     1       2.724   5.700  19.097  0.00  0.00    +0.000 A 
ATOM     13  F   UNL     1       2.178   6.865  18.708  0.00  0.00    +0.000 F 
ENDBRANCH   1   3
BRANCH   1  16
ATOM     14  C   UNL     1       7.266   6.019  16.815  0.00  0.00    +0.000 C 
ATOM     15  C   UNL     1       6.087   5.555  15.978  0.00  0.00    +0.000 C 
ATOM     16  N   UNL     1       4.843   5.614  16.361  0.00  0.00    +0.000 NA
BRANCH  15  17
ATOM     17  C   UNL     1       6.386   4.983  14.620  0.00  0.00    +0.000 A 
ATOM     18  C   UNL     1       7.497   5.390  13.878  0.00  0.00    +0.000 A 
ATOM     19  C   UNL     1       7.697   4.824  12.631  0.00  0.00    +0.000 A 
ATOM     20  N   UNL     1       6.883   3.898  12.087  0.00  0.00    +0.000 NA
ATOM     21  C   UNL     1       5.818   3.514  12.823  0.00  0.00    +0.000 A 
ATOM     22  C   UNL     1       5.530   4.021  14.080  0.00  0.00    +0.000 A 
ENDBRANCH  15  17
ENDBRANCH   1  16
TORSDOF 3
ENDMDL
MODEL 2
REMARK VINA RESULT:      -7.3      0.039      1.027
REMARK  Name = 
REMARK  4 active torsions:
REMARK  status: ('A' for Active; 'I' for Inactive)
REMARK    1  A    between atoms: C_1  and  C_2
REMARK    2  A    between atoms: C_2  and  C_16
REMARK    3  A    between atoms: N_3  and  N_4
REMARK    4  A    between atoms: N_4  and  C_5
REMARK                            x       y       z     vdW  Elec       q    Type
REMARK                         _______ _______ _______ _____ _____    ______ ____
ROOT
ATOM      1  N   UNL     1       4.545   6.156  17.555  0.00  0.00    +0.000 N 
ATOM      2  H   UNL     1       4.110   7.082  17.570  0.00  0.00    +0.000 HD
ENDROOT
BRANCH   1   3
ATOM      3  C   UNL     1       3.924   5.297  18.499  0.00  0.00    +0.000 A 
ATOM      4  C   UNL     1       4.487   4.096  18.958  0.00  0.00    +0.000 A 
ATOM      5  F   UNL     1       5.674   3.668  18.501  0.00  0.00    +0.000 F 
ATOM      6  C   UNL     1       3.833   3.316  19.915  0.00  0.00    +0.000 A 
ATOM      7  F   UNL     1       4.399   2.167  20.315  0.00  0.00    +0.000 F 
ATOM      8  C   UNL     1       2.616   3.724  20.450  0.00  0.00    +0.000 A 
ATOM      9 BR   UNL     1       1.725   2.656  21.732  0.00  0.00    +0.000 Br
ATOM     10  C   UNL     1       2.063   4.929  20.035  0.00  0.00    +0.000 A 
ATOM     11  F   UNL     1       0.896   5.358  20.538  0.00  0.00    +0.000 F 
ATOM     12  C   UNL     1       2.718   5.707  19.085  0.00  0.00    +0.000 A 
ATOM     13  F   UNL     1       2.168   6.870  18.696  0.00  0.00    +0.000 F 
ENDBRANCH   1   3
BRANCH   1  16
ATOM     14  C   UNL     1       7.251   5.960  16.802  0.00  0.00    +0.000 C 
ATOM     15  C   UNL     1       6.063   5.533  15.958  0.00  0.00    +0.000 C 
ATOM     16  N   UNL     1       4.819   5.623  16.339  0.00  0.00    +0.000 NA
BRANCH  15  17
ATOM     17  C   UNL     1       6.350   4.962  14.598  0.00  0.00    +0.000 A 
ATOM     18  C   UNL     1       5.539   3.981  14.025  0.00  0.00    +0.000 A 
ATOM     19  C   UNL     1       5.878   3.497  12.773  0.00  0.00    +0.000 A 
ATOM     20  N   UNL     1       6.947   3.919  12.069  0.00  0.00    +0.000 NA
ATOM     21  C   UNL     1       7.715   4.871  12.638  0.00  0.00    +0.000 A 
ATOM     22  C   UNL     1       7.462   5.419  13.886  0.00  0.00    +0.000 A 
ENDBRANCH  15  17
ENDBRANCH   1  16
TORSDOF 3
ENDMDL
MODEL 3
REMARK VINA RESULT:      -7.1      4.100      7.608
REMARK  Name = 
REMARK  4 active torsions:
REMARK  status: ('A' for Active; 'I' for Inactive)
REMARK    1  A    between atoms: C_1  and  C_2
REMARK    2  A    between atoms: C_2  and  C_16
REMARK    3  A    between atoms: N_3  and  N_4
REMARK    4  A    between atoms: N_4  and  C_5
REMARK                            x       y       z     vdW  Elec       q    Type
REMARK                         _______ _______ _______ _____ _____    ______ ____
ROOT
ATOM      1  N   UNL     1       2.498   7.540  18.701  0.00  0.00    +0.000 N 
ATOM      2  H   UNL     1       3.302   8.038  18.312  0.00  0.00    +0.000 HD
ENDROOT
BRANCH   1   3
ATOM      3  C   UNL     1       2.735   6.141  18.713  0.00  0.00    +0.000 A 
ATOM      4  C   UNL     1       2.136   5.250  19.617  0.00  0.00    +0.000 A 
ATOM      5  F   UNL     1       1.293   5.687  20.565  0.00  0.00    +0.000 F 
ATOM      6  C   UNL     1       2.391   3.878  19.549  0.00  0.00    +0.000 A 
ATOM      7  F   UNL     1       1.811   3.063  20.443  0.00  0.00    +0.000 F 
ATOM      8  C   UNL     1       3.231   3.361  18.568  0.00  0.00    +0.000 A 
ATOM      9 BR   UNL     1       3.588   1.505  18.491  0.00  0.00    +0.000 Br
ATOM     10  C   UNL     1       3.801   4.224  17.642  0.00  0.00    +0.000 A 
ATOM     11  F   UNL     1       4.607   3.758  16.676  0.00  0.00    +0.000 F 
ATOM     12  C   UNL     1       3.543   5.590  17.708  0.00  0.00    +0.000 A 
ATOM     13  F   UNL     1       4.104   6.410  16.802  0.00  0.00    +0.000 F 
ENDBRANCH   1   3
BRANCH   1  16
ATOM     14  C   UNL     1       0.819   9.774  18.357  0.00  0.00    +0.000 C 
ATOM     15  C   UNL     1       1.152   9.110  19.682  0.00  0.00    +0.000 C 
ATOM     16  N   UNL     1       1.923   8.067  19.810  0.00  0.00    +0.000 NA
BRANCH  15  17
ATOM     17  C   UNL     1       0.541   9.699  20.922  0.00  0.00    +0.000 A 
ATOM     18  C   UNL     1      -0.061  10.959  20.920  0.00  0.00    +0.000 A 
ATOM     19  C   UNL     1      -0.591  11.436  22.106  0.00  0.00    +0.000 A 
ATOM     20  N   UNL     1      -0.564  10.754  23.269  0.00  0.00    +0.000 NA
ATOM     21  C   UNL     1       0.018   9.537  23.249  0.00  0.00    +0.000 A 
ATOM     22  C   UNL     1       0.578   8.971  22.114  0.00  0.00    +0.000 A 
ENDBRANCH  15  17
ENDBRANCH   1  16
TORSDOF 3
ENDMDL
MODEL 4
REMARK VINA RESULT:      -7.1      0.122      2.323
REMARK  Name = 
REMARK  4 active torsions:
REMARK  status: ('A' for Active; 'I' for Inactive)
REMARK    1  A    between atoms: C_1  and  C_2
REMARK    2  A    between atoms: C_2  and  C_16
REMARK    3  A    between atoms: N_3  and  N_4
REMARK    4  A    between atoms: N_4  and  C_5
REMARK                            x       y       z     vdW  Elec       q    Type
REMARK                         _______ _______ _______ _____ _____    ______ ____
ROOT
ATOM      1  N   UNL     1       4.724   6.171  17.701  0.00  0.00    +0.000 N 
ATOM      2  H   UNL     1       4.411   7.145  17.715  0.00  0.00    +0.000 HD
ENDROOT
BRANCH   1   3
ATOM      3  C   UNL     1       3.989   5.397  18.636  0.00  0.00    +0.000 A 
ATOM      4  C   UNL     1       2.711   5.735  19.105  0.00  0.00    +0.000 A 
ATOM      5  F   UNL     1       2.099   6.858  18.698  0.00  0.00    +0.000 F 
ATOM      6  C   UNL     1       2.031   4.907  20.001  0.00  0.00    +0.000 A 
ATOM      7  F   UNL     1       0.817   5.276  20.436  0.00  0.00    +0.000 F 
ATOM      8  C   UNL     1       2.600   3.714  20.433  0.00  0.00    +0.000 A 
ATOM      9 BR   UNL     1       1.684   2.604  21.661  0.00  0.00    +0.000 Br
ATOM     10  C   UNL     1       3.848   3.344  19.950  0.00  0.00    +0.000 A 
ATOM     11  F   UNL     1       4.422   2.195  20.338  0.00  0.00    +0.000 F 
ATOM     12  C   UNL     1       4.522   4.169  19.054  0.00  0.00    +0.000 A 
ATOM     13  F   UNL     1       5.729   3.794  18.596  0.00  0.00    +0.000 F 
ENDBRANCH   1   3
BRANCH   1  16
ATOM     14  C   UNL     1       7.375   6.096  16.757  0.00  0.00    +0.000 C 
ATOM     15  C   UNL     1       6.156   5.574  16.018  0.00  0.00    +0.000 C 
ATOM     16  N   UNL     1       4.940   5.610  16.486  0.00  0.00    +0.000 NA
BRANCH  15  17
ATOM     17  C   UNL     1       6.377   4.970  14.659  0.00  0.00    +0.000 A 
ATOM     18  C   UNL     1       7.473   5.319  13.868  0.00  0.00    +0.000 A 
ATOM     19  C   UNL     1       7.601   4.728  12.623  0.00  0.00    +0.000 A 
ATOM     20  N   UNL     1       6.726   3.829  12.126  0.00  0.00    +0.000 NA
ATOM     21  C   UNL     1       5.677   3.503  12.908  0.00  0.00    +0.000 A 
ATOM     22  C   UNL     1       5.460   4.039  14.167  0.00  0.00    +0.000 A 
ENDBRANCH  15  17
ENDBRANCH   1  16
TORSDOF 3
ENDMDL
MODEL 5
REMARK VINA RESULT:      -7.1      4.117      7.639
REMARK  Name = 
REMARK  4 active torsions:
REMARK  status: ('A' for Active; 'I' for Inactive)
REMARK    1  A    between atoms: C_1  and  C_2
REMARK    2  A    between atoms: C_2  and  C_16
REMARK    3  A    between atoms: N_3  and  N_4
REMARK    4  A    between atoms: N_4  and  C_5
REMARK                            x       y       z     vdW  Elec       q    Type
REMARK                         _______ _______ _______ _____ _____    ______ ____
ROOT
ATOM      1  N   UNL     1       2.496   7.563  18.681  0.00  0.00    +0.000 N 
ATOM      2  H   UNL     1       3.295   8.064  18.284  0.00  0.00    +0.000 HD
ENDROOT
BRANCH   1   3
ATOM      3  C   UNL     1       2.738   6.165  18.691  0.00  0.00    +0.000 A 
ATOM      4  C   UNL     1       2.137   5.269  19.588  0.00  0.00    +0.000 A 
ATOM      5  F   UNL     1       1.287   5.702  20.533  0.00  0.00    +0.000 F 
ATOM      6  C   UNL     1       2.396   3.899  19.518  0.00  0.00    +0.000 A 
ATOM      7  F   UNL     1       1.813   3.079  20.406  0.00  0.00    +0.000 F 
ATOM      8  C   UNL     1       3.242   3.387  18.540  0.00  0.00    +0.000 A 
ATOM      9 BR   UNL     1       3.605   1.533  18.459  0.00  0.00    +0.000 Br
ATOM     10  C   UNL     1       3.815   4.255  17.619  0.00  0.00    +0.000 A 
ATOM     11  F   UNL     1       4.628   3.794  16.656  0.00  0.00    +0.000 F 
ATOM     12  C   UNL     1       3.553   5.620  17.688  0.00  0.00    +0.000 A 
ATOM     13  F   UNL     1       4.116   6.444  16.787  0.00  0.00    +0.000 F 
ENDBRANCH   1   3
BRANCH   1  16
ATOM     14  C   UNL     1       0.825   9.806  18.359  0.00  0.00    +0.000 C 
ATOM     15  C   UNL     1       1.165   9.136  19.678  0.00  0.00    +0.000 C 
ATOM     16  N   UNL     1       1.932   8.088  19.797  0.00  0.00    +0.000 NA
BRANCH  15  17
ATOM     17  C   UNL     1       0.565   9.722  20.926  0.00  0.00    +0.000 A 
ATOM     18  C   UNL     1       0.497   9.000  22.119  0.00  0.00    +0.000 A 
ATOM     19  C   UNL     1      -0.082   9.605  23.221  0.00  0.00    +0.000 A 
ATOM     20  N   UNL     1      -0.585  10.856  23.213  0.00  0.00    +0.000 NA
ATOM     21  C   UNL     1      -0.505  11.538  22.052  0.00  0.00    +0.000 A 
ATOM     22  C   UNL     1       0.054  11.021  20.894  0.00  0.00    +0.000 A 
ENDBRANCH  15  17
ENDBRANCH   1  16
TORSDOF 3
ENDMDL
MODEL 6
REMARK VINA RESULT:      -7.0      0.147      2.542
REMARK  Name = 
REMARK  4 active torsions:
REMARK  status: ('A' for Active; 'I' for Inactive)
REMARK    1  A    between atoms: C_1  and  C_2
REMARK    2  A    between atoms: C_2  and  C_16
REMARK    3  A    between atoms: N_3  and  N_4
REMARK    4  A    between atoms: N_4  and  C_5
REMARK                            x       y       z     vdW  Elec       q    Type
REMARK                         _______ _______ _______ _____ _____    ______ ____
ROOT
ATOM      1  N   UNL     1       4.760   6.250  17.742  0.00  0.00    +0.000 N 
ATOM      2  H   UNL     1       4.464   7.230  17.765  0.00  0.00    +0.000 HD
ENDROOT
BRANCH   1   3
ATOM      3  C   UNL     1       4.011   5.480  18.669  0.00  0.00    +0.000 A 
ATOM      4  C   UNL     1       2.754   5.853  19.168  0.00  0.00    +0.000 A 
ATOM      5  F   UNL     1       2.178   7.008  18.799  0.00  0.00    +0.000 F 
ATOM      6  C   UNL     1       2.058   5.028  20.054  0.00  0.00    +0.000 A 
ATOM      7  F   UNL     1       0.866   5.430  20.519  0.00  0.00    +0.000 F 
ATOM      8  C   UNL     1       2.589   3.804  20.447  0.00  0.00    +0.000 A 
ATOM      9 BR   UNL     1       1.652   2.697  21.661  0.00  0.00    +0.000 Br
ATOM     10  C   UNL     1       3.815   3.401  19.933  0.00  0.00    +0.000 A 
ATOM     11  F   UNL     1       4.351   2.222  20.283  0.00  0.00    +0.000 F 
ATOM     12  C   UNL     1       4.505   4.223  19.048  0.00  0.00    +0.000 A 
ATOM     13  F   UNL     1       5.690   3.815  18.560  0.00  0.00    +0.000 F 
ENDBRANCH   1   3
BRANCH   1  16
ATOM     14  C   UNL     1       7.418   6.065  16.831  0.00  0.00    +0.000 C 
ATOM     15  C   UNL     1       6.185   5.612  16.069  0.00  0.00    +0.000 C 
ATOM     16  N   UNL     1       4.966   5.697  16.521  0.00  0.00    +0.000 NA
BRANCH  15  17
ATOM     17  C   UNL     1       6.397   5.018  14.704  0.00  0.00    +0.000 A 
ATOM     18  C   UNL     1       5.531   4.058  14.177  0.00  0.00    +0.000 A 
ATOM     19  C   UNL     1       5.800   3.550  12.917  0.00  0.00    +0.000 A 
ATOM     20  N   UNL     1       6.853   3.930  12.164  0.00  0.00    +0.000 NA
ATOM     21  C   UNL     1       7.675   4.861  12.691  0.00  0.00    +0.000 A 
ATOM     22  C   UNL     1       7.492   5.430  13.941  0.00  0.00    +0.000 A 
ENDBRANCH  15  17
ENDBRANCH   1  16
TORSDOF 3
ENDMDL
MODEL 7
REMARK VINA RESULT:      -6.9      3.537      5.086
REMARK  Name = 
REMARK  4 active torsions:
REMARK  status: ('A' for Active; 'I' for Inactive)
REMARK    1  A    between atoms: C_1  and  C_2
REMARK    2  A    between atoms: C_2  and  C_16
REMARK    3  A    between atoms: N_3  and  N_4
REMARK    4  A    between atoms: N_4  and  C_5
REMARK                            x       y       z     vdW  Elec       q    Type
REMARK                         _______ _______ _______ _____ _____    ______ ____
ROOT
ATOM      1  N   UNL     1       2.601   6.282  19.739  0.00  0.00    +0.000 N 
ATOM      2  H   UNL     1       2.459   5.913  20.683  0.00  0.00    +0.000 HD
ENDROOT
BRANCH   1   3
ATOM      3  C   UNL     1       2.087   7.600  19.634  0.00  0.00    +0.000 A 
ATOM      4  C   UNL     1       2.156   8.381  18.471  0.00  0.00    +0.000 A 
ATOM      5  F   UNL     1       2.752   7.918  17.361  0.00  0.00    +0.000 F 
ATOM      6  C   UNL     1       1.598   9.660  18.430  0.00  0.00    +0.000 A 
ATOM      7  F   UNL     1       1.701  10.380  17.302  0.00  0.00    +0.000 F 
ATOM      8  C   UNL     1       0.939  10.182  19.538  0.00  0.00    +0.000 A 
ATOM      9 BR   UNL     1       0.200  11.922  19.484  0.00  0.00    +0.000 Br
ATOM     10  C   UNL     1       0.826   9.407  20.685  0.00  0.00    +0.000 A 
ATOM     11  F   UNL     1       0.189   9.875  21.769  0.00  0.00    +0.000 F 
ATOM     12  C   UNL     1       1.380   8.131  20.724  0.00  0.00    +0.000 A 
ATOM     13  F   UNL     1       1.261   7.395  21.842  0.00  0.00    +0.000 F 
ENDBRANCH   1   3
BRANCH   1  16
ATOM     14  C   UNL     1       2.728   4.331  17.712  0.00  0.00    +0.000 C 
ATOM     15  C   UNL     1       3.899   5.147  18.233  0.00  0.00    +0.000 C 
ATOM     16  N   UNL     1       3.808   6.054  19.164  0.00  0.00    +0.000 NA
BRANCH  15  17
ATOM     17  C   UNL     1       5.247   4.889  17.621  0.00  0.00    +0.000 A 
ATOM     18  C   UNL     1       6.417   4.905  18.383  0.00  0.00    +0.000 A 
ATOM     19  C   UNL     1       7.622   4.670  17.743  0.00  0.00    +0.000 A 
ATOM     20  N   UNL     1       7.735   4.424  16.422  0.00  0.00    +0.000 NA
ATOM     21  C   UNL     1       6.593   4.409  15.705  0.00  0.00    +0.000 A 
ATOM     22  C   UNL     1       5.339   4.633  16.251  0.00  0.00    +0.000 A 
ENDBRANCH  15  17
ENDBRANCH   1  16
TORSDOF 3
ENDMDL
MODEL 8
REMARK VINA RESULT:      -6.9      3.541      5.126
REMARK  Name = 
REMARK  4 active torsions:
REMARK  status: ('A' for Active; 'I' for Inactive)
REMARK    1  A    between atoms: C_1  and  C_2
REMARK    2  A    between atoms: C_2  and  C_16
REMARK    3  A    between atoms: N_3  and  N_4
REMARK    4  A    between atoms: N_4  and  C_5
REMARK                            x       y       z     vdW  Elec       q    Type
REMARK                         _______ _______ _______ _____ _____    ______ ____
ROOT
ATOM      1  N   UNL     1       2.541   6.295  19.548  0.00  0.00    +0.000 N 
ATOM      2  H   UNL     1       2.370   5.865  20.461  0.00  0.00    +0.000 HD
ENDROOT
BRANCH   1   3
ATOM      3  C   UNL     1       2.061   7.630  19.528  0.00  0.00    +0.000 A 
ATOM      4  C   UNL     1       2.143   8.478  18.413  0.00  0.00    +0.000 A 
ATOM      5  F   UNL     1       2.716   8.067  17.271  0.00  0.00    +0.000 F 
ATOM      6  C   UNL     1       1.618   9.772  18.454  0.00  0.00    +0.000 A 
ATOM      7  F   UNL     1       1.732  10.555  17.370  0.00  0.00    +0.000 F 
ATOM      8  C   UNL     1       0.983  10.243  19.598  0.00  0.00    +0.000 A 
ATOM      9 BR   UNL     1       0.290  12.002  19.655  0.00  0.00    +0.000 Br
ATOM     10  C   UNL     1       0.859   9.404  20.697  0.00  0.00    +0.000 A 
ATOM     11  F   UNL     1       0.243   9.822  21.814  0.00  0.00    +0.000 F 
ATOM     12  C   UNL     1       1.379   8.114  20.654  0.00  0.00    +0.000 A 
ATOM     13  F   UNL     1       1.248   7.316  21.728  0.00  0.00    +0.000 F 
ENDBRANCH   1   3
BRANCH   1  16
ATOM     14  C   UNL     1       2.717   4.282  17.588  0.00  0.00    +0.000 C 
ATOM     15  C   UNL     1       3.867   5.142  18.081  0.00  0.00    +0.000 C 
ATOM     16  N   UNL     1       3.754   6.078  18.981  0.00  0.00    +0.000 NA
BRANCH  15  17
ATOM     17  C   UNL     1       5.222   4.896  17.478  0.00  0.00    +0.000 A 
ATOM     18  C   UNL     1       5.385   4.644  16.115  0.00  0.00    +0.000 A 
ATOM     19  C   UNL     1       6.665   4.415  15.637  0.00  0.00    +0.000 A 
ATOM     20  N   UNL     1       7.768   4.423  16.413  0.00  0.00    +0.000 NA
ATOM     21  C   UNL     1       7.588   4.673  17.726  0.00  0.00    +0.000 A 
ATOM     22  C   UNL     1       6.350   4.914  18.301  0.00  0.00    +0.000 A 
ENDBRANCH  15  17
ENDBRANCH   1  16
TORSDOF 3
ENDMDL
MODEL 9
REMARK VINA RESULT:      -6.8      5.215      7.770
REMARK  Name = 
REMARK  4 active torsions:
REMARK  status: ('A' for Active; 'I' for Inactive)
REMARK    1  A    between atoms: C_1  and  C_2
REMARK    2  A    between atoms: C_2  and  C_16
REMARK    3  A    between atoms: N_3  and  N_4
REMARK    4  A    between atoms: N_4  and  C_5
REMARK                            x       y       z     vdW  Elec       q    Type
REMARK                         _______ _______ _______ _____ _____    ______ ____
ROOT
ATOM      1  N   UNL     1       1.455   9.386  19.193  0.00  0.00    +0.000 N 
ATOM      2  H   UNL     1       1.423   9.717  20.161  0.00  0.00    +0.000 HD
ENDROOT
BRANCH   1   3
ATOM      3  C   UNL     1       1.972   8.066  19.133  0.00  0.00    +0.000 A 
ATOM      4  C   UNL     1       2.731   7.566  18.064  0.00  0.00    +0.000 A 
ATOM      5  F   UNL     1       3.002   8.328  16.992  0.00  0.00    +0.000 F 
ATOM      6  C   UNL     1       3.238   6.265  18.088  0.00  0.00    +0.000 A 
ATOM      7  F   UNL     1       3.944   5.822  17.038  0.00  0.00    +0.000 F 
ATOM      8  C   UNL     1       3.017   5.439  19.185  0.00  0.00    +0.000 A 
ATOM      9 BR   UNL     1       3.689   3.672  19.206  0.00  0.00    +0.000 Br
ATOM     10  C   UNL     1       2.301   5.930  20.269  0.00  0.00    +0.000 A 
ATOM     11  F   UNL     1       2.079   5.165  21.349  0.00  0.00    +0.000 F 
ATOM     12  C   UNL     1       1.800   7.229  20.245  0.00  0.00    +0.000 A 
ATOM     13  F   UNL     1       1.110   7.687  21.304  0.00  0.00    +0.000 F 
ENDBRANCH   1   3
BRANCH   1  16
ATOM     14  C   UNL     1      -0.697  10.760  20.380  0.00  0.00    +0.000 C 
ATOM     15  C   UNL     1      -0.641  10.272  18.943  0.00  0.00    +0.000 C 
ATOM     16  N   UNL     1       0.375   9.649  18.416  0.00  0.00    +0.000 NA
BRANCH  15  17
ATOM     17  C   UNL     1      -1.841  10.536  18.076  0.00  0.00    +0.000 A 
ATOM     18  C   UNL     1      -2.858  11.406  18.473  0.00  0.00    +0.000 A 
ATOM     19  C   UNL     1      -3.936  11.588  17.624  0.00  0.00    +0.000 A 
ATOM     20  N   UNL     1      -4.063  10.974  16.430  0.00  0.00    +0.000 NA
ATOM     21  C   UNL     1      -3.067  10.141  16.064  0.00  0.00    +0.000 A 
ATOM     22  C   UNL     1      -1.948   9.891  16.842  0.00  0.00    +0.000 A 
ENDBRANCH  15  17
ENDBRANCH   1  16
TORSDOF 3
ENDMDL
