MODEL 1
REMARK VINA RESULT:      -7.3      0.000      0.000
REMARK  Name = 
REMARK  10 active torsions:
REMARK  status: ('A' for Active; 'I' for Inactive)
REMARK    1  A    between atoms: C_1  and  C_2
REMARK    2  A    between atoms: C_2  and  C_3
REMARK    3  A    between atoms: C_2  and  C_4
REMARK    4  A    between atoms: C_2  and  C_5
REMARK    5  A    between atoms: C_7  and  C_8
REMARK    6  A    between atoms: C_8  and  N_9
REMARK    7  A    between atoms: C_12  and  C_13
REMARK    8  A    between atoms: N_17  and  C_18
REMARK    9  A    between atoms: C_18  and  C_19
REMARK   10  A    between atoms: C_19  and  O_20
REMARK                            x       y       z     vdW  Elec       q    Type
REMARK                         _______ _______ _______ _____ _____    ______ ____
ROOT
ATOM      1  N   UNL     1       6.023   6.268  17.558  0.00  0.00    +0.000 NA
ATOM      2  C   UNL     1       4.762   6.366  16.807  0.00  0.00    +0.000 C 
ATOM      3  C   UNL     1       3.544   6.599  17.708  0.00  0.00    +0.000 C 
ATOM      4  C   UNL     1       3.419   5.602  18.866  0.00  0.00    +0.000 C 
ATOM      5  C   UNL     1       4.770   5.474  19.580  0.00  0.00    +0.000 C 
ATOM      6  C   UNL     1       5.946   5.257  18.626  0.00  0.00    +0.000 C 
ENDROOT
BRANCH   4   7
ATOM      7  C   UNL     1       2.850   4.260  18.445  0.00  0.00    +0.000 A 
ATOM      8  C   UNL     1       3.148   3.472  17.345  0.00  0.00    +0.000 A 
ATOM      9  C   UNL     1       2.358   2.325  17.464  0.00  0.00    +0.000 A 
ATOM     10  N   UNL     1       1.586   2.362  18.545  0.00  0.00    +0.000 NA
ATOM     11  N   UNL     1       1.879   3.547  19.129  0.00  0.00    +0.000 N 
BRANCH  11  12
ATOM     12  C   UNL     1       1.126   3.888  20.325  0.00  0.00    +0.000 C 
BRANCH  12  13
ATOM     13  C   UNL     1       1.320   2.882  21.457  0.00  0.00    +0.000 C 
BRANCH  13  14
ATOM     14  O   UNL     1       2.569   3.077  22.118  0.00  0.00    +0.000 OA
ATOM     15  H   UNL     1       2.546   2.516  22.916  0.00  0.00    +0.000 HD
ENDBRANCH  13  14
ENDBRANCH  12  13
ENDBRANCH  11  12
ENDBRANCH   4   7
BRANCH   1  16
ATOM     16  C   UNL     1       7.160   5.915  16.662  0.00  0.00    +0.000 C 
BRANCH  16  19
ATOM     17  C   UNL     1       6.476   4.089  13.707  0.00  0.00    +0.000 A 
ATOM     18  N   UNL     1       6.981   5.167  14.268  0.00  0.00    +0.000 NA
ATOM     19  C   UNL     1       6.823   4.901  15.611  0.00  0.00    +0.000 A 
ATOM     20  N   UNL     1       6.239   3.725  15.882  0.00  0.00    +0.000 NA
ATOM     21  O   UNL     1       6.029   3.173  14.617  0.00  0.00    +0.000 OA
BRANCH  17  23
ATOM     22  C   UNL     1       7.061   4.829  11.411  0.00  0.00    +0.000 C 
ATOM     23  C   UNL     1       6.353   3.752  12.247  0.00  0.00    +0.000 C 
ATOM     24  C   UNL     1       4.864   3.715  11.853  0.00  0.00    +0.000 C 
ATOM     25  C   UNL     1       6.965   2.372  11.940  0.00  0.00    +0.000 C 
ENDBRANCH  17  23
ENDBRANCH  16  19
ENDBRANCH   1  16
TORSDOF 7
ENDMDL
MODEL 2
REMARK VINA RESULT:      -7.2      0.938      1.395
REMARK  Name = 
REMARK  10 active torsions:
REMARK  status: ('A' for Active; 'I' for Inactive)
REMARK    1  A    between atoms: C_1  and  C_2
REMARK    2  A    between atoms: C_2  and  C_3
REMARK    3  A    between atoms: C_2  and  C_4
REMARK    4  A    between atoms: C_2  and  C_5
REMARK    5  A    between atoms: C_7  and  C_8
REMARK    6  A    between atoms: C_8  and  N_9
REMARK    7  A    between atoms: C_12  and  C_13
REMARK    8  A    between atoms: N_17  and  C_18
REMARK    9  A    between atoms: C_18  and  C_19
REMARK   10  A    between atoms: C_19  and  O_20
REMARK                            x       y       z     vdW  Elec       q    Type
REMARK                         _______ _______ _______ _____ _____    ______ ____
ROOT
ATOM      1  N   UNL     1       6.052   5.237  17.579  0.00  0.00    +0.000 NA
ATOM      2  C   UNL     1       4.857   5.388  16.734  0.00  0.00    +0.000 C 
ATOM      3  C   UNL     1       3.677   6.028  17.475  0.00  0.00    +0.000 C 
ATOM      4  C   UNL     1       3.330   5.351  18.807  0.00  0.00    +0.000 C 
ATOM      5  C   UNL     1       4.608   5.146  19.627  0.00  0.00    +0.000 C 
ATOM      6  C   UNL     1       5.751   4.517  18.829  0.00  0.00    +0.000 C 
ENDROOT
BRANCH   4   7
ATOM      7  C   UNL     1       2.530   4.072  18.639  0.00  0.00    +0.000 A 
ATOM      8  C   UNL     1       2.443   3.212  17.557  0.00  0.00    +0.000 A 
ATOM      9  C   UNL     1       1.594   2.174  17.954  0.00  0.00    +0.000 A 
ATOM     10  N   UNL     1       1.143   2.347  19.191  0.00  0.00    +0.000 NA
ATOM     11  N   UNL     1       1.703   3.509  19.597  0.00  0.00    +0.000 N 
BRANCH  11  12
ATOM     12  C   UNL     1       1.331   3.985  20.919  0.00  0.00    +0.000 C 
BRANCH  12  13
ATOM     13  C   UNL     1       1.685   2.997  22.029  0.00  0.00    +0.000 C 
BRANCH  13  14
ATOM     14  O   UNL     1       2.955   2.389  21.798  0.00  0.00    +0.000 OA
ATOM     15  H   UNL     1       2.772   1.530  21.372  0.00  0.00    +0.000 HD
ENDBRANCH  13  14
ENDBRANCH  12  13
ENDBRANCH  11  12
ENDBRANCH   4   7
BRANCH   1  16
ATOM     16  C   UNL     1       7.130   4.497  16.863  0.00  0.00    +0.000 C 
BRANCH  16  19
ATOM     17  C   UNL     1       6.703   4.126  13.368  0.00  0.00    +0.000 A 
ATOM     18  N   UNL     1       6.409   3.716  14.584  0.00  0.00    +0.000 NA
ATOM     19  C   UNL     1       7.079   4.627  15.370  0.00  0.00    +0.000 A 
ATOM     20  N   UNL     1       7.767   5.554  14.689  0.00  0.00    +0.000 NA
ATOM     21  O   UNL     1       7.500   5.236  13.357  0.00  0.00    +0.000 OA
BRANCH  17  23
ATOM     22  C   UNL     1       6.822   2.123  11.906  0.00  0.00    +0.000 C 
ATOM     23  C   UNL     1       6.273   3.552  12.047  0.00  0.00    +0.000 C 
ATOM     24  C   UNL     1       6.837   4.416  10.903  0.00  0.00    +0.000 C 
ATOM     25  C   UNL     1       4.739   3.532  11.921  0.00  0.00    +0.000 C 
ENDBRANCH  17  23
ENDBRANCH  16  19
ENDBRANCH   1  16
TORSDOF 7
ENDMDL
MODEL 3
REMARK VINA RESULT:      -7.2      0.731      1.168
REMARK  Name = 
REMARK  10 active torsions:
REMARK  status: ('A' for Active; 'I' for Inactive)
REMARK    1  A    between atoms: C_1  and  C_2
REMARK    2  A    between atoms: C_2  and  C_3
REMARK    3  A    between atoms: C_2  and  C_4
REMARK    4  A    between atoms: C_2  and  C_5
REMARK    5  A    between atoms: C_7  and  C_8
REMARK    6  A    between atoms: C_8  and  N_9
REMARK    7  A    between atoms: C_12  and  C_13
REMARK    8  A    between atoms: N_17  and  C_18
REMARK    9  A    between atoms: C_18  and  C_19
REMARK   10  A    between atoms: C_19  and  O_20
REMARK                            x       y       z     vdW  Elec       q    Type
REMARK                         _______ _______ _______ _____ _____    ______ ____
ROOT
ATOM      1  N   UNL     1       6.147   6.242  17.515  0.00  0.00    +0.000 NA
ATOM      2  C   UNL     1       4.820   6.316  16.883  0.00  0.00    +0.000 C 
ATOM      3  C   UNL     1       3.680   6.459  17.897  0.00  0.00    +0.000 C 
ATOM      4  C   UNL     1       3.700   5.410  19.016  0.00  0.00    +0.000 C 
ATOM      5  C   UNL     1       5.113   5.311  19.601  0.00  0.00    +0.000 C 
ATOM      6  C   UNL     1       6.206   5.185  18.539  0.00  0.00    +0.000 C 
ENDROOT
BRANCH   4   7
ATOM      7  C   UNL     1       3.148   4.063  18.587  0.00  0.00    +0.000 A 
ATOM      8  C   UNL     1       2.849   3.587  17.320  0.00  0.00    +0.000 A 
ATOM      9  C   UNL     1       2.405   2.272  17.496  0.00  0.00    +0.000 A 
ATOM     10  N   UNL     1       2.395   1.918  18.776  0.00  0.00    +0.000 NA
ATOM     11  N   UNL     1       2.833   3.015  19.435  0.00  0.00    +0.000 N 
BRANCH  11  12
ATOM     12  C   UNL     1       2.869   2.933  20.886  0.00  0.00    +0.000 C 
BRANCH  12  13
ATOM     13  C   UNL     1       1.478   2.930  21.516  0.00  0.00    +0.000 C 
BRANCH  13  14
ATOM     14  O   UNL     1       0.460   3.089  20.529  0.00  0.00    +0.000 OA
ATOM     15  H   UNL     1       0.111   3.994  20.642  0.00  0.00    +0.000 HD
ENDBRANCH  13  14
ENDBRANCH  12  13
ENDBRANCH  11  12
ENDBRANCH   4   7
BRANCH   1  16
ATOM     16  C   UNL     1       7.212   5.975  16.508  0.00  0.00    +0.000 C 
BRANCH  16  19
ATOM     17  C   UNL     1       6.460   4.069  13.621  0.00  0.00    +0.000 A 
ATOM     18  N   UNL     1       6.975   5.163  14.140  0.00  0.00    +0.000 NA
ATOM     19  C   UNL     1       6.851   4.933  15.492  0.00  0.00    +0.000 A 
ATOM     20  N   UNL     1       6.279   3.763  15.810  0.00  0.00    +0.000 NA
ATOM     21  O   UNL     1       6.038   3.177  14.566  0.00  0.00    +0.000 OA
BRANCH  17  23
ATOM     22  C   UNL     1       4.807   3.680  11.810  0.00  0.00    +0.000 C 
ATOM     23  C   UNL     1       6.300   3.693  12.174  0.00  0.00    +0.000 C 
ATOM     24  C   UNL     1       6.882   2.285  11.943  0.00  0.00    +0.000 C 
ATOM     25  C   UNL     1       7.048   4.677  11.256  0.00  0.00    +0.000 C 
ENDBRANCH  17  23
ENDBRANCH  16  19
ENDBRANCH   1  16
TORSDOF 7
ENDMDL
MODEL 4
REMARK VINA RESULT:      -6.8      4.526      7.357
REMARK  Name = 
REMARK  10 active torsions:
REMARK  status: ('A' for Active; 'I' for Inactive)
REMARK    1  A    between atoms: C_1  and  C_2
REMARK    2  A    between atoms: C_2  and  C_3
REMARK    3  A    between atoms: C_2  and  C_4
REMARK    4  A    between atoms: C_2  and  C_5
REMARK    5  A    between atoms: C_7  and  C_8
REMARK    6  A    between atoms: C_8  and  N_9
REMARK    7  A    between atoms: C_12  and  C_13
REMARK    8  A    between atoms: N_17  and  C_18
REMARK    9  A    between atoms: C_18  and  C_19
REMARK   10  A    between atoms: C_19  and  O_20
REMARK                            x       y       z     vdW  Elec       q    Type
REMARK                         _______ _______ _______ _____ _____    ______ ____
ROOT
ATOM      1  N   UNL     1       2.940   7.663  18.366  0.00  0.00    +0.000 NA
ATOM      2  C   UNL     1       2.260   6.850  19.387  0.00  0.00    +0.000 C 
ATOM      3  C   UNL     1       3.222   5.966  20.188  0.00  0.00    +0.000 C 
ATOM      4  C   UNL     1       4.149   5.103  19.324  0.00  0.00    +0.000 C 
ATOM      5  C   UNL     1       4.784   5.968  18.230  0.00  0.00    +0.000 C 
ATOM      6  C   UNL     1       3.775   6.837  17.477  0.00  0.00    +0.000 C 
ENDROOT
BRANCH   4   7
ATOM      7  C   UNL     1       3.472   3.863  18.771  0.00  0.00    +0.000 A 
ATOM      8  C   UNL     1       3.216   3.499  17.459  0.00  0.00    +0.000 A 
ATOM      9  C   UNL     1       2.604   2.243  17.517  0.00  0.00    +0.000 A 
ATOM     10  N   UNL     1       2.451   1.822  18.768  0.00  0.00    +0.000 NA
ATOM     11  N   UNL     1       2.967   2.817  19.525  0.00  0.00    +0.000 N 
BRANCH  11  12
ATOM     12  C   UNL     1       2.880   2.651  20.967  0.00  0.00    +0.000 C 
BRANCH  12  13
ATOM     13  C   UNL     1       1.443   2.671  21.483  0.00  0.00    +0.000 C 
BRANCH  13  14
ATOM     14  O   UNL     1       0.576   3.351  20.577  0.00  0.00    +0.000 OA
ATOM     15  H   UNL     1       0.755   2.976  19.694  0.00  0.00    +0.000 HD
ENDBRANCH  13  14
ENDBRANCH  12  13
ENDBRANCH  11  12
ENDBRANCH   4   7
BRANCH   1  16
ATOM     16  C   UNL     1       1.960   8.408  17.526  0.00  0.00    +0.000 C 
BRANCH  16  19
ATOM     17  C   UNL     1       0.267  11.226  18.840  0.00  0.00    +0.000 A 
ATOM     18  N   UNL     1       0.242   9.949  18.525  0.00  0.00    +0.000 NA
ATOM     19  C   UNL     1       1.534   9.725  18.101  0.00  0.00    +0.000 A 
ATOM     20  N   UNL     1       2.327  10.805  18.135  0.00  0.00    +0.000 NA
ATOM     21  O   UNL     1       1.493  11.799  18.648  0.00  0.00    +0.000 OA
BRANCH  17  23
ATOM     22  C   UNL     1      -0.568  13.558  19.010  0.00  0.00    +0.000 C 
ATOM     23  C   UNL     1      -0.840  12.090  19.377  0.00  0.00    +0.000 C 
ATOM     24  C   UNL     1      -0.892  11.962  20.911  0.00  0.00    +0.000 C 
ATOM     25  C   UNL     1      -2.206  11.660  18.812  0.00  0.00    +0.000 C 
ENDBRANCH  17  23
ENDBRANCH  16  19
ENDBRANCH   1  16
TORSDOF 7
ENDMDL
MODEL 5
REMARK VINA RESULT:      -6.7      3.984      5.969
REMARK  Name = 
REMARK  10 active torsions:
REMARK  status: ('A' for Active; 'I' for Inactive)
REMARK    1  A    between atoms: C_1  and  C_2
REMARK    2  A    between atoms: C_2  and  C_3
REMARK    3  A    between atoms: C_2  and  C_4
REMARK    4  A    between atoms: C_2  and  C_5
REMARK    5  A    between atoms: C_7  and  C_8
REMARK    6  A    between atoms: C_8  and  N_9
REMARK    7  A    between atoms: C_12  and  C_13
REMARK    8  A    between atoms: N_17  and  C_18
REMARK    9  A    between atoms: C_18  and  C_19
REMARK   10  A    between atoms: C_19  and  O_20
REMARK                            x       y       z     vdW  Elec       q    Type
REMARK                         _______ _______ _______ _____ _____    ______ ____
ROOT
ATOM      1  N   UNL     1       6.737   6.440  17.479  0.00  0.00    +0.000 NA
ATOM      2  C   UNL     1       6.887   5.025  17.103  0.00  0.00    +0.000 C 
ATOM      3  C   UNL     1       5.653   4.460  16.390  0.00  0.00    +0.000 C 
ATOM      4  C   UNL     1       4.334   4.695  17.136  0.00  0.00    +0.000 C 
ATOM      5  C   UNL     1       4.247   6.162  17.573  0.00  0.00    +0.000 C 
ATOM      6  C   UNL     1       5.513   6.669  18.265  0.00  0.00    +0.000 C 
ENDROOT
BRANCH   4   7
ATOM      7  C   UNL     1       4.113   3.728  18.284  0.00  0.00    +0.000 A 
ATOM      8  C   UNL     1       5.029   3.136  19.138  0.00  0.00    +0.000 A 
ATOM      9  C   UNL     1       4.282   2.363  20.032  0.00  0.00    +0.000 A 
ATOM     10  N   UNL     1       2.980   2.425  19.776  0.00  0.00    +0.000 NA
ATOM     11  N   UNL     1       2.885   3.244  18.704  0.00  0.00    +0.000 N 
BRANCH  11  12
ATOM     12  C   UNL     1       1.553   3.452  18.158  0.00  0.00    +0.000 C 
BRANCH  12  13
ATOM     13  C   UNL     1       0.478   2.654  18.891  0.00  0.00    +0.000 C 
BRANCH  13  14
ATOM     14  O   UNL     1       0.259   3.163  20.206  0.00  0.00    +0.000 OA
ATOM     15  H   UNL     1       0.069   4.114  20.101  0.00  0.00    +0.000 HD
ENDBRANCH  13  14
ENDBRANCH  12  13
ENDBRANCH  11  12
ENDBRANCH   4   7
BRANCH   1  16
ATOM     16  C   UNL     1       7.901   6.912  18.280  0.00  0.00    +0.000 C 
BRANCH  16  19
ATOM     17  C   UNL     1       8.970  10.275  18.570  0.00  0.00    +0.000 A 
ATOM     18  N   UNL     1       9.088   9.023  18.959  0.00  0.00    +0.000 NA
ATOM     19  C   UNL     1       8.199   8.374  18.130  0.00  0.00    +0.000 A 
ATOM     20  N   UNL     1       7.548   9.173  17.273  0.00  0.00    +0.000 NA
ATOM     21  O   UNL     1       8.077  10.435  17.549  0.00  0.00    +0.000 OA
BRANCH  17  23
ATOM     22  C   UNL     1      11.124  11.510  18.547  0.00  0.00    +0.000 C 
ATOM     23  C   UNL     1       9.683  11.496  19.083  0.00  0.00    +0.000 C 
ATOM     24  C   UNL     1       9.724  11.457  20.622  0.00  0.00    +0.000 C 
ATOM     25  C   UNL     1       8.959  12.785  18.654  0.00  0.00    +0.000 C 
ENDBRANCH  17  23
ENDBRANCH  16  19
ENDBRANCH   1  16
TORSDOF 7
ENDMDL
MODEL 6
REMARK VINA RESULT:      -6.7      4.073      8.053
REMARK  Name = 
REMARK  10 active torsions:
REMARK  status: ('A' for Active; 'I' for Inactive)
REMARK    1  A    between atoms: C_1  and  C_2
REMARK    2  A    between atoms: C_2  and  C_3
REMARK    3  A    between atoms: C_2  and  C_4
REMARK    4  A    between atoms: C_2  and  C_5
REMARK    5  A    between atoms: C_7  and  C_8
REMARK    6  A    between atoms: C_8  and  N_9
REMARK    7  A    between atoms: C_12  and  C_13
REMARK    8  A    between atoms: N_17  and  C_18
REMARK    9  A    between atoms: C_18  and  C_19
REMARK   10  A    between atoms: C_19  and  O_20
REMARK                            x       y       z     vdW  Elec       q    Type
REMARK                         _______ _______ _______ _____ _____    ______ ____
ROOT
ATOM      1  N   UNL     1       2.819   6.251  18.733  0.00  0.00    +0.000 NA
ATOM      2  C   UNL     1       2.603   5.256  17.670  0.00  0.00    +0.000 C 
ATOM      3  C   UNL     1       3.266   3.906  17.969  0.00  0.00    +0.000 C 
ATOM      4  C   UNL     1       4.751   4.004  18.340  0.00  0.00    +0.000 C 
ATOM      5  C   UNL     1       4.945   5.097  19.396  0.00  0.00    +0.000 C 
ATOM      6  C   UNL     1       4.249   6.414  19.046  0.00  0.00    +0.000 C 
ENDROOT
BRANCH   4   7
ATOM      7  C   UNL     1       5.659   4.182  17.138  0.00  0.00    +0.000 A 
ATOM      8  C   UNL     1       5.472   3.807  15.817  0.00  0.00    +0.000 A 
ATOM      9  C   UNL     1       6.606   4.246  15.126  0.00  0.00    +0.000 A 
ATOM     10  N   UNL     1       7.478   4.845  15.929  0.00  0.00    +0.000 NA
ATOM     11  N   UNL     1       6.904   4.790  17.153  0.00  0.00    +0.000 N 
BRANCH  11  12
ATOM     12  C   UNL     1       7.676   5.329  18.260  0.00  0.00    +0.000 C 
BRANCH  12  13
ATOM     13  C   UNL     1       7.864   6.842  18.174  0.00  0.00    +0.000 C 
BRANCH  13  14
ATOM     14  O   UNL     1       7.155   7.391  17.064  0.00  0.00    +0.000 OA
ATOM     15  H   UNL     1       7.549   6.992  16.265  0.00  0.00    +0.000 HD
ENDBRANCH  13  14
ENDBRANCH  12  13
ENDBRANCH  11  12
ENDBRANCH   4   7
BRANCH   1  16
ATOM     16  C   UNL     1       2.272   7.582  18.346  0.00  0.00    +0.000 C 
BRANCH  16  19
ATOM     17  C   UNL     1       0.632   9.872  20.491  0.00  0.00    +0.000 A 
ATOM     18  N   UNL     1       1.005   9.547  19.272  0.00  0.00    +0.000 NA
ATOM     19  C   UNL     1       1.587   8.313  19.461  0.00  0.00    +0.000 A 
ATOM     20  N   UNL     1       1.591   7.887  20.733  0.00  0.00    +0.000 NA
ATOM     21  O   UNL     1       0.935   8.913  21.416  0.00  0.00    +0.000 OA
BRANCH  17  23
ATOM     22  C   UNL     1      -1.254  11.420  20.031  0.00  0.00    +0.000 C 
ATOM     23  C   UNL     1      -0.073  11.112  20.966  0.00  0.00    +0.000 C 
ATOM     24  C   UNL     1       0.906  12.302  20.938  0.00  0.00    +0.000 C 
ATOM     25  C   UNL     1      -0.584  10.945  22.408  0.00  0.00    +0.000 C 
ENDBRANCH  17  23
ENDBRANCH  16  19
ENDBRANCH   1  16
TORSDOF 7
ENDMDL
MODEL 7
REMARK VINA RESULT:      -6.7      1.150      1.550
REMARK  Name = 
REMARK  10 active torsions:
REMARK  status: ('A' for Active; 'I' for Inactive)
REMARK    1  A    between atoms: C_1  and  C_2
REMARK    2  A    between atoms: C_2  and  C_3
REMARK    3  A    between atoms: C_2  and  C_4
REMARK    4  A    between atoms: C_2  and  C_5
REMARK    5  A    between atoms: C_7  and  C_8
REMARK    6  A    between atoms: C_8  and  N_9
REMARK    7  A    between atoms: C_12  and  C_13
REMARK    8  A    between atoms: N_17  and  C_18
REMARK    9  A    between atoms: C_18  and  C_19
REMARK   10  A    between atoms: C_19  and  O_20
REMARK                            x       y       z     vdW  Elec       q    Type
REMARK                         _______ _______ _______ _____ _____    ______ ____
ROOT
ATOM      1  N   UNL     1       6.055   5.262  17.610  0.00  0.00    +0.000 NA
ATOM      2  C   UNL     1       4.876   5.515  16.766  0.00  0.00    +0.000 C 
ATOM      3  C   UNL     1       3.746   6.233  17.513  0.00  0.00    +0.000 C 
ATOM      4  C   UNL     1       3.345   5.567  18.835  0.00  0.00    +0.000 C 
ATOM      5  C   UNL     1       4.603   5.255  19.654  0.00  0.00    +0.000 C 
ATOM      6  C   UNL     1       5.697   4.552  18.850  0.00  0.00    +0.000 C 
ENDROOT
BRANCH   4   7
ATOM      7  C   UNL     1       2.451   4.355  18.650  0.00  0.00    +0.000 A 
ATOM      8  C   UNL     1       1.511   4.085  17.669  0.00  0.00    +0.000 A 
ATOM      9  C   UNL     1       1.005   2.813  17.957  0.00  0.00    +0.000 A 
ATOM     10  N   UNL     1       1.555   2.295  19.050  0.00  0.00    +0.000 NA
ATOM     11  N   UNL     1       2.421   3.243  19.475  0.00  0.00    +0.000 N 
BRANCH  11  12
ATOM     12  C   UNL     1       3.135   2.967  20.711  0.00  0.00    +0.000 C 
BRANCH  12  13
ATOM     13  C   UNL     1       2.210   2.550  21.852  0.00  0.00    +0.000 C 
BRANCH  13  14
ATOM     14  O   UNL     1       0.878   3.014  21.637  0.00  0.00    +0.000 OA
ATOM     15  H   UNL     1       0.956   3.949  21.367  0.00  0.00    +0.000 HD
ENDBRANCH  13  14
ENDBRANCH  12  13
ENDBRANCH  11  12
ENDBRANCH   4   7
BRANCH   1  16
ATOM     16  C   UNL     1       7.074   4.452  16.886  0.00  0.00    +0.000 C 
BRANCH  16  19
ATOM     17  C   UNL     1       6.715   4.166  13.375  0.00  0.00    +0.000 A 
ATOM     18  N   UNL     1       6.403   3.724  14.575  0.00  0.00    +0.000 NA
ATOM     19  C   UNL     1       7.050   4.620  15.396  0.00  0.00    +0.000 A 
ATOM     20  N   UNL     1       7.742   5.570  14.751  0.00  0.00    +0.000 NA
ATOM     21  O   UNL     1       7.502   5.283  13.407  0.00  0.00    +0.000 OA
BRANCH  17  23
ATOM     22  C   UNL     1       4.781   3.547  11.948  0.00  0.00    +0.000 C 
ATOM     23  C   UNL     1       6.314   3.622  12.032  0.00  0.00    +0.000 C 
ATOM     24  C   UNL     1       6.893   2.205  11.859  0.00  0.00    +0.000 C 
ATOM     25  C   UNL     1       6.853   4.504  10.891  0.00  0.00    +0.000 C 
ENDBRANCH  17  23
ENDBRANCH  16  19
ENDBRANCH   1  16
TORSDOF 7
ENDMDL
MODEL 8
REMARK VINA RESULT:      -6.7      4.417      7.197
REMARK  Name = 
REMARK  10 active torsions:
REMARK  status: ('A' for Active; 'I' for Inactive)
REMARK    1  A    between atoms: C_1  and  C_2
REMARK    2  A    between atoms: C_2  and  C_3
REMARK    3  A    between atoms: C_2  and  C_4
REMARK    4  A    between atoms: C_2  and  C_5
REMARK    5  A    between atoms: C_7  and  C_8
REMARK    6  A    between atoms: C_8  and  N_9
REMARK    7  A    between atoms: C_12  and  C_13
REMARK    8  A    between atoms: N_17  and  C_18
REMARK    9  A    between atoms: C_18  and  C_19
REMARK   10  A    between atoms: C_19  and  O_20
REMARK                            x       y       z     vdW  Elec       q    Type
REMARK                         _______ _______ _______ _____ _____    ______ ____
ROOT
ATOM      1  N   UNL     1       2.925   7.743  18.418  0.00  0.00    +0.000 NA
ATOM      2  C   UNL     1       2.254   6.908  19.427  0.00  0.00    +0.000 C 
ATOM      3  C   UNL     1       3.221   5.992  20.186  0.00  0.00    +0.000 C 
ATOM      4  C   UNL     1       4.124   5.145  19.282  0.00  0.00    +0.000 C 
ATOM      5  C   UNL     1       4.748   6.035  18.201  0.00  0.00    +0.000 C 
ATOM      6  C   UNL     1       3.735   6.934  17.491  0.00  0.00    +0.000 C 
ENDROOT
BRANCH   4   7
ATOM      7  C   UNL     1       3.425   3.927  18.706  0.00  0.00    +0.000 A 
ATOM      8  C   UNL     1       3.073   3.640  17.397  0.00  0.00    +0.000 A 
ATOM      9  C   UNL     1       2.486   2.370  17.424  0.00  0.00    +0.000 A 
ATOM     10  N   UNL     1       2.438   1.871  18.654  0.00  0.00    +0.000 NA
ATOM     11  N   UNL     1       2.997   2.828  19.430  0.00  0.00    +0.000 N 
BRANCH  11  12
ATOM     12  C   UNL     1       3.026   2.572  20.861  0.00  0.00    +0.000 C 
BRANCH  12  13
ATOM     13  C   UNL     1       1.733   2.979  21.564  0.00  0.00    +0.000 C 
BRANCH  13  14
ATOM     14  O   UNL     1       0.629   2.982  20.661  0.00  0.00    +0.000 OA
ATOM     15  H   UNL     1       0.929   2.508  19.862  0.00  0.00    +0.000 HD
ENDBRANCH  13  14
ENDBRANCH  12  13
ENDBRANCH  11  12
ENDBRANCH   4   7
BRANCH   1  16
ATOM     16  C   UNL     1       1.938   8.520  17.617  0.00  0.00    +0.000 C 
BRANCH  16  19
ATOM     17  C   UNL     1       1.563  11.810  18.870  0.00  0.00    +0.000 A 
ATOM     18  N   UNL     1       2.194  10.981  18.067  0.00  0.00    +0.000 NA
ATOM     19  C   UNL     1       1.503   9.805  18.256  0.00  0.00    +0.000 A 
ATOM     20  N   UNL     1       0.497   9.884  19.139  0.00  0.00    +0.000 NA
ATOM     21  O   UNL     1       0.521  11.223  19.531  0.00  0.00    +0.000 OA
BRANCH  17  23
ATOM     22  C   UNL     1       0.590  14.090  18.738  0.00  0.00    +0.000 C 
ATOM     23  C   UNL     1       1.830  13.268  19.125  0.00  0.00    +0.000 C 
ATOM     24  C   UNL     1       3.022  13.730  18.266  0.00  0.00    +0.000 C 
ATOM     25  C   UNL     1       2.177  13.520  20.604  0.00  0.00    +0.000 C 
ENDBRANCH  17  23
ENDBRANCH  16  19
ENDBRANCH   1  16
TORSDOF 7
ENDMDL
MODEL 9
REMARK VINA RESULT:      -6.6      1.501      1.855
REMARK  Name = 
REMARK  10 active torsions:
REMARK  status: ('A' for Active; 'I' for Inactive)
REMARK    1  A    between atoms: C_1  and  C_2
REMARK    2  A    between atoms: C_2  and  C_3
REMARK    3  A    between atoms: C_2  and  C_4
REMARK    4  A    between atoms: C_2  and  C_5
REMARK    5  A    between atoms: C_7  and  C_8
REMARK    6  A    between atoms: C_8  and  N_9
REMARK    7  A    between atoms: C_12  and  C_13
REMARK    8  A    between atoms: N_17  and  C_18
REMARK    9  A    between atoms: C_18  and  C_19
REMARK   10  A    between atoms: C_19  and  O_20
REMARK                            x       y       z     vdW  Elec       q    Type
REMARK                         _______ _______ _______ _____ _____    ______ ____
ROOT
ATOM      1  N   UNL     1       5.949   5.220  17.583  0.00  0.00    +0.000 NA
ATOM      2  C   UNL     1       4.719   5.333  16.784  0.00  0.00    +0.000 C 
ATOM      3  C   UNL     1       3.580   6.035  17.533  0.00  0.00    +0.000 C 
ATOM      4  C   UNL     1       3.285   5.448  18.920  0.00  0.00    +0.000 C 
ATOM      5  C   UNL     1       4.597   5.279  19.694  0.00  0.00    +0.000 C 
ATOM      6  C   UNL     1       5.697   4.586  18.889  0.00  0.00    +0.000 C 
ENDROOT
BRANCH   4   7
ATOM      7  C   UNL     1       2.466   4.172  18.870  0.00  0.00    +0.000 A 
ATOM      8  C   UNL     1       1.385   3.840  18.069  0.00  0.00    +0.000 A 
ATOM      9  C   UNL     1       1.037   2.529  18.413  0.00  0.00    +0.000 A 
ATOM     10  N   UNL     1       1.813   2.045  19.376  0.00  0.00    +0.000 NA
ATOM     11  N   UNL     1       2.670   3.053  19.659  0.00  0.00    +0.000 N 
BRANCH  11  12
ATOM     12  C   UNL     1       3.616   2.821  20.739  0.00  0.00    +0.000 C 
BRANCH  12  13
ATOM     13  C   UNL     1       4.565   1.658  20.458  0.00  0.00    +0.000 C 
BRANCH  13  14
ATOM     14  O   UNL     1       5.438   1.422  21.561  0.00  0.00    +0.000 OA
ATOM     15  H   UNL     1       6.145   0.836  21.229  0.00  0.00    +0.000 HD
ENDBRANCH  13  14
ENDBRANCH  12  13
ENDBRANCH  11  12
ENDBRANCH   4   7
BRANCH   1  16
ATOM     16  C   UNL     1       6.986   4.422  16.870  0.00  0.00    +0.000 C 
BRANCH  16  19
ATOM     17  C   UNL     1       6.674   4.141  13.354  0.00  0.00    +0.000 A 
ATOM     18  N   UNL     1       6.352   3.692  14.549  0.00  0.00    +0.000 NA
ATOM     19  C   UNL     1       6.978   4.594  15.381  0.00  0.00    +0.000 A 
ATOM     20  N   UNL     1       7.666   5.553  14.747  0.00  0.00    +0.000 NA
ATOM     21  O   UNL     1       7.447   5.267  13.398  0.00  0.00    +0.000 OA
BRANCH  17  23
ATOM     22  C   UNL     1       6.897   2.192  11.834  0.00  0.00    +0.000 C 
ATOM     23  C   UNL     1       6.296   3.596  12.005  0.00  0.00    +0.000 C 
ATOM     24  C   UNL     1       6.859   4.516  10.904  0.00  0.00    +0.000 C 
ATOM     25  C   UNL     1       4.767   3.529  11.839  0.00  0.00    +0.000 C 
ENDBRANCH  17  23
ENDBRANCH  16  19
ENDBRANCH   1  16
TORSDOF 7
ENDMDL
