MODEL 1
REMARK VINA RESULT:      -8.7      0.000      0.000
REMARK  Name = 
REMARK  3 active torsions:
REMARK  status: ('A' for Active; 'I' for Inactive)
REMARK    1  A    between atoms: C_2  and  C_14
REMARK    2  A    between atoms: N_3  and  C_4
REMARK    3  A    between atoms: C_8  and  C_9
REMARK                            x       y       z     vdW  Elec       q    Type
REMARK                         _______ _______ _______ _____ _____    ______ ____
ROOT
ATOM      1  O   UNL     1       2.753   8.537  17.626  0.00  0.00    +0.000 OA
ATOM      2  C   UNL     1       2.310   7.910  18.580  0.00  0.00    +0.000 C 
ATOM      3  N   UNL     1       2.568   6.571  18.862  0.00  0.00    +0.000 N 
ATOM      4  H   UNL     1       1.972   6.156  19.563  0.00  0.00    +0.000 HD
ENDROOT
BRANCH   2   5
ATOM      5  C   UNL     1       1.446   8.529  19.584  0.00  0.00    +0.000 A 
ATOM      6  C   UNL     1       1.277   8.146  20.900  0.00  0.00    +0.000 A 
ATOM      7  C   UNL     1       0.478   9.104  21.562  0.00  0.00    +0.000 A 
ATOM      8  C   UNL     1       0.095   9.240  22.904  0.00  0.00    +0.000 A 
ATOM      9  C   UNL     1      -0.665  10.340  23.294  0.00  0.00    +0.000 A 
ATOM     10  C   UNL     1      -1.113  11.258  22.345  0.00  0.00    +0.000 A 
ATOM     11  C   UNL     1      -1.907  12.346  22.712  0.00  0.00    +0.000 A 
ATOM     12  C   UNL     1      -2.423  13.174  21.723  0.00  0.00    +0.000 A 
ATOM     13  C   UNL     1      -2.104  12.898  20.400  0.00  0.00    +0.000 A 
ATOM     14  N   UNL     1      -1.271  11.904  19.992  0.00  0.00    +0.000 NA
ATOM     15  C   UNL     1      -0.794  11.104  20.971  0.00  0.00    +0.000 A 
ATOM     16  C   UNL     1       0.070  10.043  20.616  0.00  0.00    +0.000 A 
ATOM     17  N   UNL     1       0.688   9.690  19.421  0.00  0.00    +0.000 N 
ATOM     18  H   UNL     1       0.632  10.235  18.573  0.00  0.00    +0.000 HD
ENDBRANCH   2   5
BRANCH   3  19
ATOM     19  C   UNL     1       3.522   5.699  18.292  0.00  0.00    +0.000 A 
ATOM     20  C   UNL     1       3.197   4.636  17.452  0.00  0.00    +0.000 A 
ATOM     21  C   UNL     1       4.202   3.828  16.909  0.00  0.00    +0.000 A 
ATOM     22  C   UNL     1       5.544   4.066  17.202  0.00  0.00    +0.000 A 
ATOM     23  C   UNL     1       5.901   5.130  18.036  0.00  0.00    +0.000 A 
ATOM     24  C   UNL     1       4.880   5.950  18.565  0.00  0.00    +0.000 A 
BRANCH  23  25
ATOM     25  C   UNL     1       7.354   5.391  18.373  0.00  0.00    +0.000 C 
ATOM     26  F   UNL     1       7.857   6.514  17.786  0.00  0.00    +0.000 F 
ATOM     27  F   UNL     1       7.563   5.547  19.709  0.00  0.00    +0.000 F 
ATOM     28  F   UNL     1       8.171   4.374  17.984  0.00  0.00    +0.000 F 
ENDBRANCH  23  25
ENDBRANCH   3  19
TORSDOF 3
ENDMDL
MODEL 2
REMARK VINA RESULT:      -8.6      2.380      3.343
REMARK  Name = 
REMARK  3 active torsions:
REMARK  status: ('A' for Active; 'I' for Inactive)
REMARK    1  A    between atoms: C_2  and  C_14
REMARK    2  A    between atoms: N_3  and  C_4
REMARK    3  A    between atoms: C_8  and  C_9
REMARK                            x       y       z     vdW  Elec       q    Type
REMARK                         _______ _______ _______ _____ _____    ______ ____
ROOT
ATOM      1  O   UNL     1       2.511   5.467  17.830  0.00  0.00    +0.000 OA
ATOM      2  C   UNL     1       3.072   6.475  18.241  0.00  0.00    +0.000 C 
ATOM      3  N   UNL     1       4.450   6.671  18.296  0.00  0.00    +0.000 N 
ATOM      4  H   UNL     1       4.750   7.465  18.842  0.00  0.00    +0.000 HD
ENDROOT
BRANCH   2   5
ATOM      5  C   UNL     1       2.328   7.642  18.712  0.00  0.00    +0.000 A 
ATOM      6  C   UNL     1       1.933   8.742  17.975  0.00  0.00    +0.000 A 
ATOM      7  C   UNL     1       1.104   9.560  18.774  0.00  0.00    +0.000 A 
ATOM      8  C   UNL     1       0.374  10.722  18.484  0.00  0.00    +0.000 A 
ATOM      9  C   UNL     1      -0.423  11.297  19.471  0.00  0.00    +0.000 A 
ATOM     10  C   UNL     1      -0.432  10.772  20.763  0.00  0.00    +0.000 A 
ATOM     11  C   UNL     1      -1.195  11.357  21.774  0.00  0.00    +0.000 A 
ATOM     12  C   UNL     1      -1.092  10.870  23.071  0.00  0.00    +0.000 A 
ATOM     13  C   UNL     1      -0.245   9.794  23.305  0.00  0.00    +0.000 A 
ATOM     14  N   UNL     1       0.457   9.135  22.346  0.00  0.00    +0.000 NA
ATOM     15  C   UNL     1       0.351   9.636  21.096  0.00  0.00    +0.000 A 
ATOM     16  C   UNL     1       1.064   9.005  20.051  0.00  0.00    +0.000 A 
ATOM     17  N   UNL     1       1.796   7.824  19.990  0.00  0.00    +0.000 N 
ATOM     18  H   UNL     1       1.880   7.170  20.754  0.00  0.00    +0.000 HD
ENDBRANCH   2   5
BRANCH   3  19
ATOM     19  C   UNL     1       5.491   5.905  17.727  0.00  0.00    +0.000 A 
ATOM     20  C   UNL     1       6.605   5.461  18.436  0.00  0.00    +0.000 A 
ATOM     21  C   UNL     1       7.586   4.688  17.805  0.00  0.00    +0.000 A 
ATOM     22  C   UNL     1       7.472   4.354  16.456  0.00  0.00    +0.000 A 
ATOM     23  C   UNL     1       6.362   4.780  15.721  0.00  0.00    +0.000 A 
ATOM     24  C   UNL     1       5.369   5.545  16.371  0.00  0.00    +0.000 A 
BRANCH  23  25
ATOM     25  C   UNL     1       6.233   4.437  14.252  0.00  0.00    +0.000 C 
ATOM     26  F   UNL     1       7.096   5.125  13.453  0.00  0.00    +0.000 F 
ATOM     27  F   UNL     1       6.463   3.120  13.998  0.00  0.00    +0.000 F 
ATOM     28  F   UNL     1       4.989   4.699  13.762  0.00  0.00    +0.000 F 
ENDBRANCH  23  25
ENDBRANCH   3  19
TORSDOF 3
ENDMDL
MODEL 3
REMARK VINA RESULT:      -8.3      1.497      2.177
REMARK  Name = 
REMARK  3 active torsions:
REMARK  status: ('A' for Active; 'I' for Inactive)
REMARK    1  A    between atoms: C_2  and  C_14
REMARK    2  A    between atoms: N_3  and  C_4
REMARK    3  A    between atoms: C_8  and  C_9
REMARK                            x       y       z     vdW  Elec       q    Type
REMARK                         _______ _______ _______ _____ _____    ______ ____
ROOT
ATOM      1  O   UNL     1       2.151   6.269  20.556  0.00  0.00    +0.000 OA
ATOM      2  C   UNL     1       2.219   7.120  19.679  0.00  0.00    +0.000 C 
ATOM      3  N   UNL     1       2.937   7.006  18.491  0.00  0.00    +0.000 N 
ATOM      4  H   UNL     1       3.054   7.865  17.974  0.00  0.00    +0.000 HD
ENDROOT
BRANCH   2   5
ATOM      5  C   UNL     1       1.506   8.393  19.774  0.00  0.00    +0.000 A 
ATOM      6  C   UNL     1       1.369   9.355  18.792  0.00  0.00    +0.000 A 
ATOM      7  C   UNL     1       0.475  10.351  19.242  0.00  0.00    +0.000 A 
ATOM      8  C   UNL     1      -0.072  11.476  18.609  0.00  0.00    +0.000 A 
ATOM      9  C   UNL     1      -0.994  12.268  19.289  0.00  0.00    +0.000 A 
ATOM     10  C   UNL     1      -1.310  11.994  20.619  0.00  0.00    +0.000 A 
ATOM     11  C   UNL     1      -2.203  12.799  21.328  0.00  0.00    +0.000 A 
ATOM     12  C   UNL     1      -2.407  12.558  22.681  0.00  0.00    +0.000 A 
ATOM     13  C   UNL     1      -1.727  11.501  23.272  0.00  0.00    +0.000 A 
ATOM     14  N   UNL     1      -0.910  10.637  22.613  0.00  0.00    +0.000 NA
ATOM     15  C   UNL     1      -0.717  10.901  21.302  0.00  0.00    +0.000 A 
ATOM     16  C   UNL     1       0.130  10.048  20.557  0.00  0.00    +0.000 A 
ATOM     17  N   UNL     1       0.748   8.838  20.857  0.00  0.00    +0.000 N 
ATOM     18  H   UNL     1       0.617   8.335  21.723  0.00  0.00    +0.000 HD
ENDBRANCH   2   5
BRANCH   3  19
ATOM     19  C   UNL     1       3.551   5.871  17.917  0.00  0.00    +0.000 A 
ATOM     20  C   UNL     1       2.881   4.681  17.642  0.00  0.00    +0.000 A 
ATOM     21  C   UNL     1       3.556   3.606  17.052  0.00  0.00    +0.000 A 
ATOM     22  C   UNL     1       4.911   3.702  16.736  0.00  0.00    +0.000 A 
ATOM     23  C   UNL     1       5.608   4.887  16.993  0.00  0.00    +0.000 A 
ATOM     24  C   UNL     1       4.913   5.971  17.572  0.00  0.00    +0.000 A 
BRANCH  23  25
ATOM     25  C   UNL     1       7.082   4.999  16.667  0.00  0.00    +0.000 C 
ATOM     26  F   UNL     1       7.538   6.284  16.642  0.00  0.00    +0.000 F 
ATOM     27  F   UNL     1       7.869   4.345  17.563  0.00  0.00    +0.000 F 
ATOM     28  F   UNL     1       7.388   4.475  15.448  0.00  0.00    +0.000 F 
ENDBRANCH  23  25
ENDBRANCH   3  19
TORSDOF 3
ENDMDL
MODEL 4
REMARK VINA RESULT:      -8.3      5.866     10.183
REMARK  Name = 
REMARK  3 active torsions:
REMARK  status: ('A' for Active; 'I' for Inactive)
REMARK    1  A    between atoms: C_2  and  C_14
REMARK    2  A    between atoms: N_3  and  C_4
REMARK    3  A    between atoms: C_8  and  C_9
REMARK                            x       y       z     vdW  Elec       q    Type
REMARK                         _______ _______ _______ _____ _____    ______ ____
ROOT
ATOM      1  O   UNL     1       0.021   9.977  23.586  0.00  0.00    +0.000 OA
ATOM      2  C   UNL     1      -0.225  10.253  22.419  0.00  0.00    +0.000 C 
ATOM      3  N   UNL     1      -1.096  11.251  21.987  0.00  0.00    +0.000 N 
ATOM      4  H   UNL     1      -1.339  11.215  21.008  0.00  0.00    +0.000 HD
ENDROOT
BRANCH   2   5
ATOM      5  C   UNL     1       0.413   9.556  21.304  0.00  0.00    +0.000 A 
ATOM      6  C   UNL     1       0.621  10.031  20.023  0.00  0.00    +0.000 A 
ATOM      7  C   UNL     1       1.409   9.102  19.308  0.00  0.00    +0.000 A 
ATOM      8  C   UNL     1       1.976   9.144  18.026  0.00  0.00    +0.000 A 
ATOM      9  C   UNL     1       2.774   8.088  17.592  0.00  0.00    +0.000 A 
ATOM     10  C   UNL     1       2.942   6.959  18.393  0.00  0.00    +0.000 A 
ATOM     11  C   UNL     1       3.708   5.875  17.959  0.00  0.00    +0.000 A 
ATOM     12  C   UNL     1       3.761   4.726  18.738  0.00  0.00    +0.000 A 
ATOM     13  C   UNL     1       3.065   4.712  19.940  0.00  0.00    +0.000 A 
ATOM     14  N   UNL     1       2.372   5.765  20.449  0.00  0.00    +0.000 NA
ATOM     15  C   UNL     1       2.324   6.865  19.667  0.00  0.00    +0.000 A 
ATOM     16  C   UNL     1       1.611   7.995  20.130  0.00  0.00    +0.000 A 
ATOM     17  N   UNL     1       1.017   8.298  21.351  0.00  0.00    +0.000 N 
ATOM     18  H   UNL     1       1.067   7.706  22.167  0.00  0.00    +0.000 HD
ENDBRANCH   2   5
BRANCH   3  19
ATOM     19  C   UNL     1      -1.713  12.286  22.722  0.00  0.00    +0.000 A 
ATOM     20  C   UNL     1      -1.031  13.388  23.233  0.00  0.00    +0.000 A 
ATOM     21  C   UNL     1      -1.718  14.385  23.935  0.00  0.00    +0.000 A 
ATOM     22  C   UNL     1      -3.094  14.292  24.143  0.00  0.00    +0.000 A 
ATOM     23  C   UNL     1      -3.806  13.200  23.636  0.00  0.00    +0.000 A 
ATOM     24  C   UNL     1      -3.107  12.209  22.914  0.00  0.00    +0.000 A 
BRANCH  23  25
ATOM     25  C   UNL     1      -5.298  13.079  23.866  0.00  0.00    +0.000 C 
ATOM     26  F   UNL     1      -5.902  14.264  24.163  0.00  0.00    +0.000 F 
ATOM     27  F   UNL     1      -5.959  12.589  22.783  0.00  0.00    +0.000 F 
ATOM     28  F   UNL     1      -5.600  12.243  24.897  0.00  0.00    +0.000 F 
ENDBRANCH  23  25
ENDBRANCH   3  19
TORSDOF 3
ENDMDL
MODEL 5
REMARK VINA RESULT:      -8.3      4.252      8.915
REMARK  Name = 
REMARK  3 active torsions:
REMARK  status: ('A' for Active; 'I' for Inactive)
REMARK    1  A    between atoms: C_2  and  C_14
REMARK    2  A    between atoms: N_3  and  C_4
REMARK    3  A    between atoms: C_8  and  C_9
REMARK                            x       y       z     vdW  Elec       q    Type
REMARK                         _______ _______ _______ _____ _____    ______ ____
ROOT
ATOM      1  O   UNL     1       2.259  10.323  17.557  0.00  0.00    +0.000 OA
ATOM      2  C   UNL     1       1.897   9.341  18.193  0.00  0.00    +0.000 C 
ATOM      3  N   UNL     1       0.922   9.332  19.187  0.00  0.00    +0.000 N 
ATOM      4  H   UNL     1       0.887   8.492  19.747  0.00  0.00    +0.000 HD
ENDROOT
BRANCH   2   5
ATOM      5  C   UNL     1       2.451   8.010  17.949  0.00  0.00    +0.000 A 
ATOM      6  C   UNL     1       3.684   7.699  17.408  0.00  0.00    +0.000 A 
ATOM      7  C   UNL     1       3.888   6.304  17.495  0.00  0.00    +0.000 A 
ATOM      8  C   UNL     1       4.992   5.497  17.185  0.00  0.00    +0.000 A 
ATOM      9  C   UNL     1       4.933   4.127  17.431  0.00  0.00    +0.000 A 
ATOM     10  C   UNL     1       3.757   3.548  17.905  0.00  0.00    +0.000 A 
ATOM     11  C   UNL     1       3.667   2.172  18.122  0.00  0.00    +0.000 A 
ATOM     12  C   UNL     1       2.446   1.621  18.490  0.00  0.00    +0.000 A 
ATOM     13  C   UNL     1       1.361   2.472  18.653  0.00  0.00    +0.000 A 
ATOM     14  N   UNL     1       1.410   3.825  18.534  0.00  0.00    +0.000 NA
ATOM     15  C   UNL     1       2.605   4.336  18.163  0.00  0.00    +0.000 A 
ATOM     16  C   UNL     1       2.725   5.736  18.010  0.00  0.00    +0.000 A 
ATOM     17  N   UNL     1       1.869   6.792  18.304  0.00  0.00    +0.000 N 
ATOM     18  H   UNL     1       0.974   6.686  18.759  0.00  0.00    +0.000 HD
ENDBRANCH   2   5
BRANCH   3  19
ATOM     19  C   UNL     1      -0.003  10.335  19.550  0.00  0.00    +0.000 A 
ATOM     20  C   UNL     1      -0.672  11.141  18.632  0.00  0.00    +0.000 A 
ATOM     21  C   UNL     1      -1.592  12.102  19.069  0.00  0.00    +0.000 A 
ATOM     22  C   UNL     1      -1.850  12.275  20.428  0.00  0.00    +0.000 A 
ATOM     23  C   UNL     1      -1.199  11.475  21.372  0.00  0.00    +0.000 A 
ATOM     24  C   UNL     1      -0.286  10.497  20.920  0.00  0.00    +0.000 A 
BRANCH  23  25
ATOM     25  C   UNL     1      -1.459  11.662  22.852  0.00  0.00    +0.000 C 
ATOM     26  F   UNL     1      -0.939  12.816  23.356  0.00  0.00    +0.000 F 
ATOM     27  F   UNL     1      -2.786  11.692  23.152  0.00  0.00    +0.000 F 
ATOM     28  F   UNL     1      -0.929  10.659  23.606  0.00  0.00    +0.000 F 
ENDBRANCH  23  25
ENDBRANCH   3  19
TORSDOF 3
ENDMDL
MODEL 6
REMARK VINA RESULT:      -8.2      4.786      9.143
REMARK  Name = 
REMARK  3 active torsions:
REMARK  status: ('A' for Active; 'I' for Inactive)
REMARK    1  A    between atoms: C_2  and  C_14
REMARK    2  A    between atoms: N_3  and  C_4
REMARK    3  A    between atoms: C_8  and  C_9
REMARK                            x       y       z     vdW  Elec       q    Type
REMARK                         _______ _______ _______ _____ _____    ______ ____
ROOT
ATOM      1  O   UNL     1       2.376  10.359  17.516  0.00  0.00    +0.000 OA
ATOM      2  C   UNL     1       1.929   9.377  18.096  0.00  0.00    +0.000 C 
ATOM      3  N   UNL     1       0.847   9.375  18.972  0.00  0.00    +0.000 N 
ATOM      4  H   UNL     1       0.735   8.531  19.515  0.00  0.00    +0.000 HD
ENDROOT
BRANCH   2   5
ATOM      5  C   UNL     1       2.489   8.041  17.904  0.00  0.00    +0.000 A 
ATOM      6  C   UNL     1       3.745   7.715  17.429  0.00  0.00    +0.000 A 
ATOM      7  C   UNL     1       3.938   6.321  17.551  0.00  0.00    +0.000 A 
ATOM      8  C   UNL     1       5.052   5.504  17.309  0.00  0.00    +0.000 A 
ATOM      9  C   UNL     1       4.976   4.140  17.579  0.00  0.00    +0.000 A 
ATOM     10  C   UNL     1       3.776   3.574  18.007  0.00  0.00    +0.000 A 
ATOM     11  C   UNL     1       3.670   2.203  18.246  0.00  0.00    +0.000 A 
ATOM     12  C   UNL     1       2.431   1.663  18.565  0.00  0.00    +0.000 A 
ATOM     13  C   UNL     1       1.343   2.521  18.660  0.00  0.00    +0.000 A 
ATOM     14  N   UNL     1       1.404   3.871  18.518  0.00  0.00    +0.000 NA
ATOM     15  C   UNL     1       2.616   4.371  18.194  0.00  0.00    +0.000 A 
ATOM     16  C   UNL     1       2.750   5.767  18.021  0.00  0.00    +0.000 A 
ATOM     17  N   UNL     1       1.885   6.832  18.254  0.00  0.00    +0.000 N 
ATOM     18  H   UNL     1       0.969   6.737  18.668  0.00  0.00    +0.000 HD
ENDBRANCH   2   5
BRANCH   3  19
ATOM     19  C   UNL     1      -0.099  10.389  19.236  0.00  0.00    +0.000 A 
ATOM     20  C   UNL     1       0.103  11.421  20.149  0.00  0.00    +0.000 A 
ATOM     21  C   UNL     1      -0.877  12.402  20.340  0.00  0.00    +0.000 A 
ATOM     22  C   UNL     1      -2.075  12.362  19.627  0.00  0.00    +0.000 A 
ATOM     23  C   UNL     1      -2.302  11.342  18.698  0.00  0.00    +0.000 A 
ATOM     24  C   UNL     1      -1.300  10.367  18.500  0.00  0.00    +0.000 A 
BRANCH  23  25
ATOM     25  C   UNL     1      -3.604  11.279  17.927  0.00  0.00    +0.000 C 
ATOM     26  F   UNL     1      -4.571  12.103  18.421  0.00  0.00    +0.000 F 
ATOM     27  F   UNL     1      -3.457  11.623  16.619  0.00  0.00    +0.000 F 
ATOM     28  F   UNL     1      -4.149  10.031  17.925  0.00  0.00    +0.000 F 
ENDBRANCH  23  25
ENDBRANCH   3  19
TORSDOF 3
ENDMDL
MODEL 7
REMARK VINA RESULT:      -8.2      1.568      1.969
REMARK  Name = 
REMARK  3 active torsions:
REMARK  status: ('A' for Active; 'I' for Inactive)
REMARK    1  A    between atoms: C_2  and  C_14
REMARK    2  A    between atoms: N_3  and  C_4
REMARK    3  A    between atoms: C_8  and  C_9
REMARK                            x       y       z     vdW  Elec       q    Type
REMARK                         _______ _______ _______ _____ _____    ______ ____
ROOT
ATOM      1  O   UNL     1       2.089   5.706  20.868  0.00  0.00    +0.000 OA
ATOM      2  C   UNL     1       2.131   6.706  20.163  0.00  0.00    +0.000 C 
ATOM      3  N   UNL     1       2.842   6.829  18.971  0.00  0.00    +0.000 N 
ATOM      4  H   UNL     1       2.935   7.771  18.622  0.00  0.00    +0.000 HD
ENDROOT
BRANCH   2   5
ATOM      5  C   UNL     1       1.389   7.921  20.492  0.00  0.00    +0.000 A 
ATOM      6  C   UNL     1       0.732   8.212  21.673  0.00  0.00    +0.000 A 
ATOM      7  C   UNL     1       0.282   9.550  21.634  0.00  0.00    +0.000 A 
ATOM      8  C   UNL     1      -0.343  10.357  22.596  0.00  0.00    +0.000 A 
ATOM      9  C   UNL     1      -0.626  11.688  22.298  0.00  0.00    +0.000 A 
ATOM     10  C   UNL     1      -0.366  12.194  21.025  0.00  0.00    +0.000 A 
ATOM     11  C   UNL     1      -0.678  13.514  20.697  0.00  0.00    +0.000 A 
ATOM     12  C   UNL     1      -0.505  13.947  19.388  0.00  0.00    +0.000 A 
ATOM     13  C   UNL     1      -0.001  13.048  18.457  0.00  0.00    +0.000 A 
ATOM     14  N   UNL     1       0.395  11.778  18.739  0.00  0.00    +0.000 NA
ATOM     15  C   UNL     1       0.204  11.377  20.015  0.00  0.00    +0.000 A 
ATOM     16  C   UNL     1       0.584  10.063  20.375  0.00  0.00    +0.000 A 
ATOM     17  N   UNL     1       1.280   9.065  19.700  0.00  0.00    +0.000 N 
ATOM     18  H   UNL     1       1.690   9.182  18.785  0.00  0.00    +0.000 HD
ENDBRANCH   2   5
BRANCH   3  19
ATOM     19  C   UNL     1       3.477   5.834  18.196  0.00  0.00    +0.000 A 
ATOM     20  C   UNL     1       2.842   4.681  17.741  0.00  0.00    +0.000 A 
ATOM     21  C   UNL     1       3.536   3.751  16.959  0.00  0.00    +0.000 A 
ATOM     22  C   UNL     1       4.875   3.956  16.627  0.00  0.00    +0.000 A 
ATOM     23  C   UNL     1       5.536   5.108  17.063  0.00  0.00    +0.000 A 
ATOM     24  C   UNL     1       4.823   6.049  17.837  0.00  0.00    +0.000 A 
BRANCH  23  25
ATOM     25  C   UNL     1       6.994   5.336  16.722  0.00  0.00    +0.000 C 
ATOM     26  F   UNL     1       7.844   4.484  17.362  0.00  0.00    +0.000 F 
ATOM     27  F   UNL     1       7.252   5.186  15.394  0.00  0.00    +0.000 F 
ATOM     28  F   UNL     1       7.415   6.589  17.045  0.00  0.00    +0.000 F 
ENDBRANCH  23  25
ENDBRANCH   3  19
TORSDOF 3
ENDMDL
MODEL 8
REMARK VINA RESULT:      -8.2      4.797      9.322
REMARK  Name = 
REMARK  3 active torsions:
REMARK  status: ('A' for Active; 'I' for Inactive)
REMARK    1  A    between atoms: C_2  and  C_14
REMARK    2  A    between atoms: N_3  and  C_4
REMARK    3  A    between atoms: C_8  and  C_9
REMARK                            x       y       z     vdW  Elec       q    Type
REMARK                         _______ _______ _______ _____ _____    ______ ____
ROOT
ATOM      1  O   UNL     1       2.209  10.520  17.586  0.00  0.00    +0.000 OA
ATOM      2  C   UNL     1       1.798   9.475  18.072  0.00  0.00    +0.000 C 
ATOM      3  N   UNL     1       0.551   9.291  18.664  0.00  0.00    +0.000 N 
ATOM      4  H   UNL     1       0.447   8.436  19.191  0.00  0.00    +0.000 HD
ENDROOT
BRANCH   2   5
ATOM      5  C   UNL     1       2.591   8.247  18.061  0.00  0.00    +0.000 A 
ATOM      6  C   UNL     1       2.559   7.216  18.980  0.00  0.00    +0.000 A 
ATOM      7  C   UNL     1       3.364   6.155  18.513  0.00  0.00    +0.000 A 
ATOM      8  C   UNL     1       3.593   4.863  19.009  0.00  0.00    +0.000 A 
ATOM      9  C   UNL     1       4.408   3.987  18.295  0.00  0.00    +0.000 A 
ATOM     10  C   UNL     1       5.059   4.416  17.139  0.00  0.00    +0.000 A 
ATOM     11  C   UNL     1       5.908   3.564  16.432  0.00  0.00    +0.000 A 
ATOM     12  C   UNL     1       6.622   4.062  15.349  0.00  0.00    +0.000 A 
ATOM     13  C   UNL     1       6.440   5.393  14.996  0.00  0.00    +0.000 A 
ATOM     14  N   UNL     1       5.567   6.244  15.597  0.00  0.00    +0.000 NA
ATOM     15  C   UNL     1       4.895   5.740  16.655  0.00  0.00    +0.000 A 
ATOM     16  C   UNL     1       3.978   6.574  17.335  0.00  0.00    +0.000 A 
ATOM     17  N   UNL     1       3.477   7.842  17.061  0.00  0.00    +0.000 N 
ATOM     18  H   UNL     1       3.691   8.367  16.225  0.00  0.00    +0.000 HD
ENDBRANCH   2   5
BRANCH   3  19
ATOM     19  C   UNL     1      -0.579  10.137  18.663  0.00  0.00    +0.000 A 
ATOM     20  C   UNL     1      -0.869  11.046  19.678  0.00  0.00    +0.000 A 
ATOM     21  C   UNL     1      -2.000  11.866  19.594  0.00  0.00    +0.000 A 
ATOM     22  C   UNL     1      -2.861  11.785  18.500  0.00  0.00    +0.000 A 
ATOM     23  C   UNL     1      -2.591  10.886  17.463  0.00  0.00    +0.000 A 
ATOM     24  C   UNL     1      -1.438  10.076  17.548  0.00  0.00    +0.000 A 
BRANCH  23  25
ATOM     25  C   UNL     1      -3.525  10.777  16.276  0.00  0.00    +0.000 C 
ATOM     26  F   UNL     1      -4.793  11.205  16.538  0.00  0.00    +0.000 F 
ATOM     27  F   UNL     1      -3.103  11.505  15.207  0.00  0.00    +0.000 F 
ATOM     28  F   UNL     1      -3.653   9.498  15.828  0.00  0.00    +0.000 F 
ENDBRANCH  23  25
ENDBRANCH   3  19
TORSDOF 3
ENDMDL
MODEL 9
REMARK VINA RESULT:      -8.2      4.805      8.999
REMARK  Name = 
REMARK  3 active torsions:
REMARK  status: ('A' for Active; 'I' for Inactive)
REMARK    1  A    between atoms: C_2  and  C_14
REMARK    2  A    between atoms: N_3  and  C_4
REMARK    3  A    between atoms: C_8  and  C_9
REMARK                            x       y       z     vdW  Elec       q    Type
REMARK                         _______ _______ _______ _____ _____    ______ ____
ROOT
ATOM      1  O   UNL     1       2.211  10.099  17.480  0.00  0.00    +0.000 OA
ATOM      2  C   UNL     1       1.844   9.266  18.299  0.00  0.00    +0.000 C 
ATOM      3  N   UNL     1       0.848   9.452  19.255  0.00  0.00    +0.000 N 
ATOM      4  H   UNL     1       0.808   8.747  19.977  0.00  0.00    +0.000 HD
ENDROOT
BRANCH   2   5
ATOM      5  C   UNL     1       2.414   7.921  18.349  0.00  0.00    +0.000 A 
ATOM      6  C   UNL     1       3.362   7.378  17.503  0.00  0.00    +0.000 A 
ATOM      7  C   UNL     1       3.750   6.113  17.995  0.00  0.00    +0.000 A 
ATOM      8  C   UNL     1       4.731   5.203  17.575  0.00  0.00    +0.000 A 
ATOM      9  C   UNL     1       4.941   4.033  18.300  0.00  0.00    +0.000 A 
ATOM     10  C   UNL     1       4.127   3.726  19.389  0.00  0.00    +0.000 A 
ATOM     11  C   UNL     1       4.298   2.540  20.105  0.00  0.00    +0.000 A 
ATOM     12  C   UNL     1       3.397   2.220  21.113  0.00  0.00    +0.000 A 
ATOM     13  C   UNL     1       2.369   3.113  21.387  0.00  0.00    +0.000 A 
ATOM     14  N   UNL     1       2.204   4.317  20.778  0.00  0.00    +0.000 NA
ATOM     15  C   UNL     1       3.083   4.599  19.793  0.00  0.00    +0.000 A 
ATOM     16  C   UNL     1       2.963   5.831  19.110  0.00  0.00    +0.000 A 
ATOM     17  N   UNL     1       2.171   6.954  19.325  0.00  0.00    +0.000 N 
ATOM     18  H   UNL     1       1.548   7.065  20.112  0.00  0.00    +0.000 HD
ENDBRANCH   2   5
BRANCH   3  19
ATOM     19  C   UNL     1      -0.093  10.497  19.383  0.00  0.00    +0.000 A 
ATOM     20  C   UNL     1       0.095  11.616  20.191  0.00  0.00    +0.000 A 
ATOM     21  C   UNL     1      -0.878  12.621  20.249  0.00  0.00    +0.000 A 
ATOM     22  C   UNL     1      -2.054  12.518  19.506  0.00  0.00    +0.000 A 
ATOM     23  C   UNL     1      -2.266  11.410  18.681  0.00  0.00    +0.000 A 
ATOM     24  C   UNL     1      -1.271  10.410  18.616  0.00  0.00    +0.000 A 
BRANCH  23  25
ATOM     25  C   UNL     1      -3.545  11.279  17.880  0.00  0.00    +0.000 C 
ATOM     26  F   UNL     1      -4.126  10.050  17.978  0.00  0.00    +0.000 F 
ATOM     27  F   UNL     1      -4.498  12.170  18.264  0.00  0.00    +0.000 F 
ATOM     28  F   UNL     1      -3.351  11.490  16.549  0.00  0.00    +0.000 F 
ENDBRANCH  23  25
ENDBRANCH   3  19
TORSDOF 3
ENDMDL
