MODEL 1
REMARK VINA RESULT:      -9.4      0.000      0.000
REMARK  Name = 
REMARK  8 active torsions:
REMARK  status: ('A' for Active; 'I' for Inactive)
REMARK    1  A    between atoms: C_1  and  C_2
REMARK    2  A    between atoms: C_3  and  C_4
REMARK    3  A    between atoms: N_5  and  C_6
REMARK    4  A    between atoms: C_6  and  C_7
REMARK    5  A    between atoms: C_11  and  C_12
REMARK    6  A    between atoms: C_20  and  C_21
REMARK    7  A    between atoms: N_23  and  C_24
REMARK    8  A    between atoms: C_24  and  C_25
REMARK                            x       y       z     vdW  Elec       q    Type
REMARK                         _______ _______ _______ _____ _____    ______ ____
ROOT
ATOM      1  C   UNL     1       0.330   9.220  22.907  0.00  0.00    +0.000 C 
ATOM      2  C   UNL     1       0.331   9.663  21.484  0.00  0.00    +0.000 A 
ATOM      3  C   UNL     1      -0.278  10.781  20.938  0.00  0.00    +0.000 A 
ATOM      4  C   UNL     1      -1.114  11.833  21.590  0.00  0.00    +0.000 C 
ATOM      5  N   UNL     1      -0.005  10.789  19.578  0.00  0.00    +0.000 N 
ATOM      6  C   UNL     1       0.799   9.707  19.250  0.00  0.00    +0.000 A 
ATOM      7  C   UNL     1       1.381   9.311  18.031  0.00  0.00    +0.000 A 
ATOM      8  C   UNL     1       2.131   8.126  18.005  0.00  0.00    +0.000 A 
ATOM      9  C   UNL     1       2.279   7.340  19.149  0.00  0.00    +0.000 A 
ATOM     10  C   UNL     1       1.725   7.765  20.365  0.00  0.00    +0.000 A 
ATOM     11  C   UNL     1       0.982   8.968  20.419  0.00  0.00    +0.000 A 
ENDROOT
BRANCH   9  12
ATOM     12  C   UNL     1       3.069   6.076  19.062  0.00  0.00    +0.000 C 
ATOM     13  O   UNL     1       3.825   5.754  19.972  0.00  0.00    +0.000 OA
ATOM     14  N   UNL     1       2.910   5.336  17.911  0.00  0.00    +0.000 N 
ATOM     15  H   UNL     1       2.504   5.771  17.093  0.00  0.00    +0.000 HD
BRANCH  14  16
ATOM     16  C   UNL     1       3.652   4.110  17.682  0.00  0.00    +0.000 C 
BRANCH  16  17
ATOM     17  C   UNL     1       4.942   4.341  16.928  0.00  0.00    +0.000 A 
ATOM     18  C   UNL     1       4.929   4.450  15.538  0.00  0.00    +0.000 A 
ATOM     19  C   UNL     1       6.130   4.651  14.863  0.00  0.00    +0.000 A 
ATOM     20  C   UNL     1       7.311   4.737  15.589  0.00  0.00    +0.000 A 
ATOM     21  C   UNL     1       7.241   4.614  16.966  0.00  0.00    +0.000 A 
ATOM     22  N   UNL     1       6.091   4.413  17.651  0.00  0.00    +0.000 NA
ENDBRANCH  16  17
ENDBRANCH  14  16
ENDBRANCH   9  12
BRANCH   5  23
ATOM     23  C   UNL     1      -0.612  11.698  18.605  0.00  0.00    +0.000 C 
BRANCH  23  24
ATOM     24  C   UNL     1      -1.887  11.201  17.958  0.00  0.00    +0.000 A 
ATOM     25  C   UNL     1      -1.803  10.285  16.896  0.00  0.00    +0.000 A 
ATOM     26  C   UNL     1      -2.934   9.941  16.153  0.00  0.00    +0.000 A 
ATOM     27  C   UNL     1      -4.167  10.516  16.450  0.00  0.00    +0.000 A 
ATOM     28  C   UNL     1      -4.285  11.421  17.514  0.00  0.00    +0.000 A 
ATOM     29  C   UNL     1      -3.144  11.740  18.270  0.00  0.00    +0.000 A 
BRANCH  28  30
ATOM     30  C   UNL     1      -5.600  12.088  17.835  0.00  0.00    +0.000 C 
ATOM     31  F   UNL     1      -6.620  11.210  18.047  0.00  0.00    +0.000 F 
ATOM     32  F   UNL     1      -5.536  12.865  18.951  0.00  0.00    +0.000 F 
ATOM     33  F   UNL     1      -6.020  12.907  16.830  0.00  0.00    +0.000 F 
ENDBRANCH  28  30
ENDBRANCH  23  24
ENDBRANCH   5  23
TORSDOF 6
ENDMDL
MODEL 2
REMARK VINA RESULT:      -9.4      5.404      9.595
REMARK  Name = 
REMARK  8 active torsions:
REMARK  status: ('A' for Active; 'I' for Inactive)
REMARK    1  A    between atoms: C_1  and  C_2
REMARK    2  A    between atoms: C_3  and  C_4
REMARK    3  A    between atoms: N_5  and  C_6
REMARK    4  A    between atoms: C_6  and  C_7
REMARK    5  A    between atoms: C_11  and  C_12
REMARK    6  A    between atoms: C_20  and  C_21
REMARK    7  A    between atoms: N_23  and  C_24
REMARK    8  A    between atoms: C_24  and  C_25
REMARK                            x       y       z     vdW  Elec       q    Type
REMARK                         _______ _______ _______ _____ _____    ______ ____
ROOT
ATOM      1  C   UNL     1       1.796   3.267  21.665  0.00  0.00    +0.000 C 
ATOM      2  C   UNL     1       2.143   3.817  20.325  0.00  0.00    +0.000 A 
ATOM      3  C   UNL     1       2.565   3.125  19.202  0.00  0.00    +0.000 A 
ATOM      4  C   UNL     1       2.813   1.664  19.012  0.00  0.00    +0.000 C 
ATOM      5  N   UNL     1       2.766   4.048  18.187  0.00  0.00    +0.000 N 
ATOM      6  C   UNL     1       2.448   5.322  18.636  0.00  0.00    +0.000 A 
ATOM      7  C   UNL     1       2.435   6.568  17.980  0.00  0.00    +0.000 A 
ATOM      8  C   UNL     1       2.094   7.708  18.722  0.00  0.00    +0.000 A 
ATOM      9  C   UNL     1       1.799   7.621  20.084  0.00  0.00    +0.000 A 
ATOM     10  C   UNL     1       1.779   6.369  20.716  0.00  0.00    +0.000 A 
ATOM     11  C   UNL     1       2.100   5.203  19.982  0.00  0.00    +0.000 A 
ENDROOT
BRANCH   9  12
ATOM     12  C   UNL     1       1.464   8.868  20.833  0.00  0.00    +0.000 C 
ATOM     13  O   UNL     1       1.539   8.895  22.057  0.00  0.00    +0.000 OA
ATOM     14  N   UNL     1       1.052   9.943  20.075  0.00  0.00    +0.000 N 
ATOM     15  H   UNL     1       0.745   9.790  19.124  0.00  0.00    +0.000 HD
BRANCH  14  16
ATOM     16  C   UNL     1       0.656  11.199  20.682  0.00  0.00    +0.000 C 
BRANCH  16  17
ATOM     17  C   UNL     1       1.497  12.366  20.213  0.00  0.00    +0.000 A 
ATOM     18  C   UNL     1       1.577  12.666  18.855  0.00  0.00    +0.000 A 
ATOM     19  C   UNL     1       2.367  13.737  18.444  0.00  0.00    +0.000 A 
ATOM     20  C   UNL     1       3.056  14.478  19.395  0.00  0.00    +0.000 A 
ATOM     21  C   UNL     1       2.928  14.112  20.725  0.00  0.00    +0.000 A 
ATOM     22  N   UNL     1       2.173  13.075  21.155  0.00  0.00    +0.000 NA
ENDBRANCH  16  17
ENDBRANCH  14  16
ENDBRANCH   9  12
BRANCH   5  23
ATOM     23  C   UNL     1       3.386   3.754  16.894  0.00  0.00    +0.000 C 
BRANCH  23  24
ATOM     24  C   UNL     1       4.780   4.311  16.698  0.00  0.00    +0.000 A 
ATOM     25  C   UNL     1       5.406   4.162  15.449  0.00  0.00    +0.000 A 
ATOM     26  C   UNL     1       6.751   4.495  15.276  0.00  0.00    +0.000 A 
ATOM     27  C   UNL     1       7.497   4.970  16.351  0.00  0.00    +0.000 A 
ATOM     28  C   UNL     1       6.895   5.144  17.605  0.00  0.00    +0.000 A 
ATOM     29  C   UNL     1       5.535   4.829  17.760  0.00  0.00    +0.000 A 
BRANCH  28  30
ATOM     30  C   UNL     1       7.688   5.621  18.798  0.00  0.00    +0.000 C 
ATOM     31  F   UNL     1       8.727   4.802  19.126  0.00  0.00    +0.000 F 
ATOM     32  F   UNL     1       8.230   6.855  18.609  0.00  0.00    +0.000 F 
ATOM     33  F   UNL     1       6.922   5.714  19.921  0.00  0.00    +0.000 F 
ENDBRANCH  28  30
ENDBRANCH  23  24
ENDBRANCH   5  23
TORSDOF 6
ENDMDL
MODEL 3
REMARK VINA RESULT:      -9.2      4.953      9.946
REMARK  Name = 
REMARK  8 active torsions:
REMARK  status: ('A' for Active; 'I' for Inactive)
REMARK    1  A    between atoms: C_1  and  C_2
REMARK    2  A    between atoms: C_3  and  C_4
REMARK    3  A    between atoms: N_5  and  C_6
REMARK    4  A    between atoms: C_6  and  C_7
REMARK    5  A    between atoms: C_11  and  C_12
REMARK    6  A    between atoms: C_20  and  C_21
REMARK    7  A    between atoms: N_23  and  C_24
REMARK    8  A    between atoms: C_24  and  C_25
REMARK                            x       y       z     vdW  Elec       q    Type
REMARK                         _______ _______ _______ _____ _____    ______ ____
ROOT
ATOM      1  C   UNL     1       1.839   3.250  21.586  0.00  0.00    +0.000 C 
ATOM      2  C   UNL     1       2.147   3.873  20.268  0.00  0.00    +0.000 A 
ATOM      3  C   UNL     1       2.559   3.246  19.103  0.00  0.00    +0.000 A 
ATOM      4  C   UNL     1       2.834   1.803  18.836  0.00  0.00    +0.000 C 
ATOM      5  N   UNL     1       2.720   4.223  18.132  0.00  0.00    +0.000 N 
ATOM      6  C   UNL     1       2.385   5.466  18.650  0.00  0.00    +0.000 A 
ATOM      7  C   UNL     1       2.333   6.742  18.058  0.00  0.00    +0.000 A 
ATOM      8  C   UNL     1       1.984   7.837  18.862  0.00  0.00    +0.000 A 
ATOM      9  C   UNL     1       1.719   7.676  20.223  0.00  0.00    +0.000 A 
ATOM     10  C   UNL     1       1.739   6.394  20.793  0.00  0.00    +0.000 A 
ATOM     11  C   UNL     1       2.068   5.274  19.995  0.00  0.00    +0.000 A 
ENDROOT
BRANCH   9  12
ATOM     12  C   UNL     1       1.374   8.877  21.040  0.00  0.00    +0.000 C 
ATOM     13  O   UNL     1       1.434   8.832  22.264  0.00  0.00    +0.000 OA
ATOM     14  N   UNL     1       0.973   9.995  20.341  0.00  0.00    +0.000 N 
ATOM     15  H   UNL     1       0.677   9.898  19.379  0.00  0.00    +0.000 HD
BRANCH  14  16
ATOM     16  C   UNL     1       0.568  11.214  21.016  0.00  0.00    +0.000 C 
BRANCH  16  17
ATOM     17  C   UNL     1      -0.818  11.670  20.617  0.00  0.00    +0.000 A 
ATOM     18  C   UNL     1      -1.640  12.304  21.548  0.00  0.00    +0.000 A 
ATOM     19  C   UNL     1      -2.916  12.704  21.163  0.00  0.00    +0.000 A 
ATOM     20  C   UNL     1      -3.341  12.462  19.862  0.00  0.00    +0.000 A 
ATOM     21  C   UNL     1      -2.467  11.821  18.999  0.00  0.00    +0.000 A 
ATOM     22  N   UNL     1      -1.223  11.416  19.345  0.00  0.00    +0.000 NA
ENDBRANCH  16  17
ENDBRANCH  14  16
ENDBRANCH   9  12
BRANCH   5  23
ATOM     23  C   UNL     1       3.319   4.006  16.814  0.00  0.00    +0.000 C 
BRANCH  23  24
ATOM     24  C   UNL     1       4.760   4.447  16.673  0.00  0.00    +0.000 A 
ATOM     25  C   UNL     1       5.440   4.185  15.471  0.00  0.00    +0.000 A 
ATOM     26  C   UNL     1       6.815   4.407  15.362  0.00  0.00    +0.000 A 
ATOM     27  C   UNL     1       7.536   4.881  16.454  0.00  0.00    +0.000 A 
ATOM     28  C   UNL     1       6.882   5.166  17.661  0.00  0.00    +0.000 A 
ATOM     29  C   UNL     1       5.494   4.962  17.751  0.00  0.00    +0.000 A 
BRANCH  28  30
ATOM     30  C   UNL     1       7.643   5.645  18.873  0.00  0.00    +0.000 C 
ATOM     31  F   UNL     1       6.883   5.713  20.003  0.00  0.00    +0.000 F 
ATOM     32  F   UNL     1       8.699   4.844  19.180  0.00  0.00    +0.000 F 
ATOM     33  F   UNL     1       8.156   6.895  18.698  0.00  0.00    +0.000 F 
ENDBRANCH  28  30
ENDBRANCH  23  24
ENDBRANCH   5  23
TORSDOF 6
ENDMDL
MODEL 4
REMARK VINA RESULT:      -9.2      2.429      3.270
REMARK  Name = 
REMARK  8 active torsions:
REMARK  status: ('A' for Active; 'I' for Inactive)
REMARK    1  A    between atoms: C_1  and  C_2
REMARK    2  A    between atoms: C_3  and  C_4
REMARK    3  A    between atoms: N_5  and  C_6
REMARK    4  A    between atoms: C_6  and  C_7
REMARK    5  A    between atoms: C_11  and  C_12
REMARK    6  A    between atoms: C_20  and  C_21
REMARK    7  A    between atoms: N_23  and  C_24
REMARK    8  A    between atoms: C_24  and  C_25
REMARK                            x       y       z     vdW  Elec       q    Type
REMARK                         _______ _______ _______ _____ _____    ______ ____
ROOT
ATOM      1  C   UNL     1      -0.133   9.405  23.500  0.00  0.00    +0.000 C 
ATOM      2  C   UNL     1      -0.208  10.173  22.226  0.00  0.00    +0.000 A 
ATOM      3  C   UNL     1      -0.886  11.356  21.981  0.00  0.00    +0.000 A 
ATOM      4  C   UNL     1      -1.740  12.178  22.889  0.00  0.00    +0.000 C 
ATOM      5  N   UNL     1      -0.668  11.702  20.656  0.00  0.00    +0.000 N 
ATOM      6  C   UNL     1       0.169  10.772  20.055  0.00  0.00    +0.000 A 
ATOM      7  C   UNL     1       0.719  10.709  18.761  0.00  0.00    +0.000 A 
ATOM      8  C   UNL     1       1.519   9.605  18.430  0.00  0.00    +0.000 A 
ATOM      9  C   UNL     1       1.746   8.577  19.347  0.00  0.00    +0.000 A 
ATOM     10  C   UNL     1       1.222   8.671  20.645  0.00  0.00    +0.000 A 
ATOM     11  C   UNL     1       0.431   9.786  21.007  0.00  0.00    +0.000 A 
ENDROOT
BRANCH   9  12
ATOM     12  C   UNL     1       2.586   7.414  18.938  0.00  0.00    +0.000 C 
ATOM     13  O   UNL     1       2.960   7.298  17.776  0.00  0.00    +0.000 OA
ATOM     14  N   UNL     1       2.879   6.496  19.924  0.00  0.00    +0.000 N 
ATOM     15  H   UNL     1       2.330   6.488  20.772  0.00  0.00    +0.000 HD
BRANCH  14  16
ATOM     16  C   UNL     1       3.650   5.299  19.648  0.00  0.00    +0.000 C 
BRANCH  16  17
ATOM     17  C   UNL     1       2.780   4.112  19.296  0.00  0.00    +0.000 A 
ATOM     18  C   UNL     1       3.196   3.205  18.323  0.00  0.00    +0.000 A 
ATOM     19  C   UNL     1       2.374   2.127  18.006  0.00  0.00    +0.000 A 
ATOM     20  C   UNL     1       1.160   1.982  18.665  0.00  0.00    +0.000 A 
ATOM     21  C   UNL     1       0.816   2.929  19.615  0.00  0.00    +0.000 A 
ATOM     22  N   UNL     1       1.590   3.990  19.942  0.00  0.00    +0.000 NA
ENDBRANCH  16  17
ENDBRANCH  14  16
ENDBRANCH   9  12
BRANCH   5  23
ATOM     23  C   UNL     1      -1.352  12.784  19.946  0.00  0.00    +0.000 C 
BRANCH  23  24
ATOM     24  C   UNL     1      -2.569  12.370  19.146  0.00  0.00    +0.000 A 
ATOM     25  C   UNL     1      -3.838  12.445  19.744  0.00  0.00    +0.000 A 
ATOM     26  C   UNL     1      -4.962  11.905  19.114  0.00  0.00    +0.000 A 
ATOM     27  C   UNL     1      -4.834  11.270  17.882  0.00  0.00    +0.000 A 
ATOM     28  C   UNL     1      -3.584  11.193  17.254  0.00  0.00    +0.000 A 
ATOM     29  C   UNL     1      -2.465  11.762  17.887  0.00  0.00    +0.000 A 
BRANCH  28  30
ATOM     30  C   UNL     1      -3.409  10.478  15.937  0.00  0.00    +0.000 C 
ATOM     31  F   UNL     1      -3.033   9.174  16.069  0.00  0.00    +0.000 F 
ATOM     32  F   UNL     1      -4.546  10.466  15.190  0.00  0.00    +0.000 F 
ATOM     33  F   UNL     1      -2.453  11.060  15.158  0.00  0.00    +0.000 F 
ENDBRANCH  28  30
ENDBRANCH  23  24
ENDBRANCH   5  23
TORSDOF 6
ENDMDL
MODEL 5
REMARK VINA RESULT:      -9.2      5.002      9.911
REMARK  Name = 
REMARK  8 active torsions:
REMARK  status: ('A' for Active; 'I' for Inactive)
REMARK    1  A    between atoms: C_1  and  C_2
REMARK    2  A    between atoms: C_3  and  C_4
REMARK    3  A    between atoms: N_5  and  C_6
REMARK    4  A    between atoms: C_6  and  C_7
REMARK    5  A    between atoms: C_11  and  C_12
REMARK    6  A    between atoms: C_20  and  C_21
REMARK    7  A    between atoms: N_23  and  C_24
REMARK    8  A    between atoms: C_24  and  C_25
REMARK                            x       y       z     vdW  Elec       q    Type
REMARK                         _______ _______ _______ _____ _____    ______ ____
ROOT
ATOM      1  C   UNL     1       2.017   3.065  21.623  0.00  0.00    +0.000 C 
ATOM      2  C   UNL     1       2.292   3.683  20.296  0.00  0.00    +0.000 A 
ATOM      3  C   UNL     1       2.728   3.059  19.137  0.00  0.00    +0.000 A 
ATOM      4  C   UNL     1       3.065   1.626  18.889  0.00  0.00    +0.000 C 
ATOM      5  N   UNL     1       2.842   4.029  18.153  0.00  0.00    +0.000 N 
ATOM      6  C   UNL     1       2.454   5.263  18.655  0.00  0.00    +0.000 A 
ATOM      7  C   UNL     1       2.343   6.527  18.046  0.00  0.00    +0.000 A 
ATOM      8  C   UNL     1       1.948   7.615  18.837  0.00  0.00    +0.000 A 
ATOM      9  C   UNL     1       1.696   7.462  20.202  0.00  0.00    +0.000 A 
ATOM     10  C   UNL     1       1.774   6.190  20.788  0.00  0.00    +0.000 A 
ATOM     11  C   UNL     1       2.150   5.074  20.004  0.00  0.00    +0.000 A 
ENDROOT
BRANCH   9  12
ATOM     12  C   UNL     1       1.300   8.657  21.004  0.00  0.00    +0.000 C 
ATOM     13  O   UNL     1       1.104   8.557  22.210  0.00  0.00    +0.000 OA
ATOM     14  N   UNL     1       1.153   9.837  20.307  0.00  0.00    +0.000 N 
ATOM     15  H   UNL     1       1.053   9.810  19.301  0.00  0.00    +0.000 HD
BRANCH  14  16
ATOM     16  C   UNL     1       0.730  11.062  20.960  0.00  0.00    +0.000 C 
BRANCH  16  17
ATOM     17  C   UNL     1      -0.623  11.541  20.482  0.00  0.00    +0.000 A 
ATOM     18  C   UNL     1      -1.185  11.004  19.325  0.00  0.00    +0.000 A 
ATOM     19  C   UNL     1      -2.426  11.467  18.897  0.00  0.00    +0.000 A 
ATOM     20  C   UNL     1      -3.073  12.453  19.630  0.00  0.00    +0.000 A 
ATOM     21  C   UNL     1      -2.446  12.940  20.765  0.00  0.00    +0.000 A 
ATOM     22  N   UNL     1      -1.239  12.513  21.205  0.00  0.00    +0.000 NA
ENDBRANCH  16  17
ENDBRANCH  14  16
ENDBRANCH   9  12
BRANCH   5  23
ATOM     23  C   UNL     1       3.445   3.821  16.835  0.00  0.00    +0.000 C 
BRANCH  23  24
ATOM     24  C   UNL     1       4.832   4.400  16.655  0.00  0.00    +0.000 A 
ATOM     25  C   UNL     1       5.459   4.294  15.402  0.00  0.00    +0.000 A 
ATOM     26  C   UNL     1       6.801   4.647  15.239  0.00  0.00    +0.000 A 
ATOM     27  C   UNL     1       7.541   5.100  16.327  0.00  0.00    +0.000 A 
ATOM     28  C   UNL     1       6.938   5.231  17.586  0.00  0.00    +0.000 A 
ATOM     29  C   UNL     1       5.581   4.896  17.732  0.00  0.00    +0.000 A 
BRANCH  28  30
ATOM     30  C   UNL     1       7.726   5.683  18.791  0.00  0.00    +0.000 C 
ATOM     31  F   UNL     1       8.292   6.914  18.643  0.00  0.00    +0.000 F 
ATOM     32  F   UNL     1       6.966   5.753  19.919  0.00  0.00    +0.000 F 
ATOM     33  F   UNL     1       8.753   4.836  19.081  0.00  0.00    +0.000 F 
ENDBRANCH  28  30
ENDBRANCH  23  24
ENDBRANCH   5  23
TORSDOF 6
ENDMDL
MODEL 6
REMARK VINA RESULT:      -9.1      5.304      9.737
REMARK  Name = 
REMARK  8 active torsions:
REMARK  status: ('A' for Active; 'I' for Inactive)
REMARK    1  A    between atoms: C_1  and  C_2
REMARK    2  A    between atoms: C_3  and  C_4
REMARK    3  A    between atoms: N_5  and  C_6
REMARK    4  A    between atoms: C_6  and  C_7
REMARK    5  A    between atoms: C_11  and  C_12
REMARK    6  A    between atoms: C_20  and  C_21
REMARK    7  A    between atoms: N_23  and  C_24
REMARK    8  A    between atoms: C_24  and  C_25
REMARK                            x       y       z     vdW  Elec       q    Type
REMARK                         _______ _______ _______ _____ _____    ______ ____
ROOT
ATOM      1  C   UNL     1       1.912   3.256  21.650  0.00  0.00    +0.000 C 
ATOM      2  C   UNL     1       2.197   3.870  20.323  0.00  0.00    +0.000 A 
ATOM      3  C   UNL     1       2.605   3.238  19.160  0.00  0.00    +0.000 A 
ATOM      4  C   UNL     1       2.897   1.796  18.904  0.00  0.00    +0.000 C 
ATOM      5  N   UNL     1       2.741   4.208  18.178  0.00  0.00    +0.000 N 
ATOM      6  C   UNL     1       2.394   5.451  18.687  0.00  0.00    +0.000 A 
ATOM      7  C   UNL     1       2.317   6.720  18.083  0.00  0.00    +0.000 A 
ATOM      8  C   UNL     1       1.961   7.817  18.881  0.00  0.00    +0.000 A 
ATOM      9  C   UNL     1       1.714   7.666  20.247  0.00  0.00    +0.000 A 
ATOM     10  C   UNL     1       1.758   6.391  20.828  0.00  0.00    +0.000 A 
ATOM     11  C   UNL     1       2.094   5.267  20.037  0.00  0.00    +0.000 A 
ENDROOT
BRANCH   9  12
ATOM     12  C   UNL     1       1.360   8.870  21.056  0.00  0.00    +0.000 C 
ATOM     13  O   UNL     1       1.567   8.887  22.264  0.00  0.00    +0.000 OA
ATOM     14  N   UNL     1       0.781   9.916  20.371  0.00  0.00    +0.000 N 
ATOM     15  H   UNL     1       0.385   9.751  19.455  0.00  0.00    +0.000 HD
BRANCH  14  16
ATOM     16  C   UNL     1       0.351  11.126  21.046  0.00  0.00    +0.000 C 
BRANCH  16  17
ATOM     17  C   UNL     1       0.589  12.372  20.221  0.00  0.00    +0.000 A 
ATOM     18  C   UNL     1       1.877  12.688  19.791  0.00  0.00    +0.000 A 
ATOM     19  C   UNL     1       2.076  13.845  19.042  0.00  0.00    +0.000 A 
ATOM     20  C   UNL     1       0.988  14.657  18.744  0.00  0.00    +0.000 A 
ATOM     21  C   UNL     1      -0.258  14.276  19.214  0.00  0.00    +0.000 A 
ATOM     22  N   UNL     1      -0.483  13.161  19.946  0.00  0.00    +0.000 NA
ENDBRANCH  16  17
ENDBRANCH  14  16
ENDBRANCH   9  12
BRANCH   5  23
ATOM     23  C   UNL     1       3.328   3.987  16.855  0.00  0.00    +0.000 C 
BRANCH  23  24
ATOM     24  C   UNL     1       4.758   4.455  16.691  0.00  0.00    +0.000 A 
ATOM     25  C   UNL     1       5.417   4.224  15.471  0.00  0.00    +0.000 A 
ATOM     26  C   UNL     1       6.785   4.471  15.336  0.00  0.00    +0.000 A 
ATOM     27  C   UNL     1       7.520   4.942  16.421  0.00  0.00    +0.000 A 
ATOM     28  C   UNL     1       6.887   5.196  17.645  0.00  0.00    +0.000 A 
ATOM     29  C   UNL     1       5.505   4.966  17.761  0.00  0.00    +0.000 A 
BRANCH  28  30
ATOM     30  C   UNL     1       7.665   5.670  18.848  0.00  0.00    +0.000 C 
ATOM     31  F   UNL     1       8.181   6.923  18.706  0.00  0.00    +0.000 F 
ATOM     32  F   UNL     1       6.912   5.702  19.982  0.00  0.00    +0.000 F 
ATOM     33  F   UNL     1       8.728   4.863  19.124  0.00  0.00    +0.000 F 
ENDBRANCH  28  30
ENDBRANCH  23  24
ENDBRANCH   5  23
TORSDOF 6
ENDMDL
MODEL 7
REMARK VINA RESULT:      -9.0      2.100      2.626
REMARK  Name = 
REMARK  8 active torsions:
REMARK  status: ('A' for Active; 'I' for Inactive)
REMARK    1  A    between atoms: C_1  and  C_2
REMARK    2  A    between atoms: C_3  and  C_4
REMARK    3  A    between atoms: N_5  and  C_6
REMARK    4  A    between atoms: C_6  and  C_7
REMARK    5  A    between atoms: C_11  and  C_12
REMARK    6  A    between atoms: C_20  and  C_21
REMARK    7  A    between atoms: N_23  and  C_24
REMARK    8  A    between atoms: C_24  and  C_25
REMARK                            x       y       z     vdW  Elec       q    Type
REMARK                         _______ _______ _______ _____ _____    ______ ____
ROOT
ATOM      1  C   UNL     1      -0.038   9.475  23.023  0.00  0.00    +0.000 C 
ATOM      2  C   UNL     1      -0.116  10.075  21.662  0.00  0.00    +0.000 A 
ATOM      3  C   UNL     1      -0.832  11.192  21.261  0.00  0.00    +0.000 A 
ATOM      4  C   UNL     1      -1.734  12.086  22.047  0.00  0.00    +0.000 C 
ATOM      5  N   UNL     1      -0.601  11.378  19.907  0.00  0.00    +0.000 N 
ATOM      6  C   UNL     1       0.281  10.414  19.440  0.00  0.00    +0.000 A 
ATOM      7  C   UNL     1       0.859  10.212  18.172  0.00  0.00    +0.000 A 
ATOM      8  C   UNL     1       1.705   9.108  17.993  0.00  0.00    +0.000 A 
ATOM      9  C   UNL     1       1.952   8.212  19.035  0.00  0.00    +0.000 A 
ATOM     10  C   UNL     1       1.399   8.446  20.303  0.00  0.00    +0.000 A 
ATOM     11  C   UNL     1       0.560   9.566  20.511  0.00  0.00    +0.000 A 
ENDROOT
BRANCH   9  12
ATOM     12  C   UNL     1       2.842   7.040  18.787  0.00  0.00    +0.000 C 
ATOM     13  O   UNL     1       3.226   6.783  17.651  0.00  0.00    +0.000 OA
ATOM     14  N   UNL     1       3.170   6.279  19.888  0.00  0.00    +0.000 N 
ATOM     15  H   UNL     1       2.617   6.363  20.731  0.00  0.00    +0.000 HD
BRANCH  14  16
ATOM     16  C   UNL     1       3.992   5.088  19.777  0.00  0.00    +0.000 C 
BRANCH  16  17
ATOM     17  C   UNL     1       3.199   3.869  19.362  0.00  0.00    +0.000 A 
ATOM     18  C   UNL     1       1.978   3.589  19.972  0.00  0.00    +0.000 A 
ATOM     19  C   UNL     1       1.271   2.454  19.583  0.00  0.00    +0.000 A 
ATOM     20  C   UNL     1       1.798   1.629  18.598  0.00  0.00    +0.000 A 
ATOM     21  C   UNL     1       3.020   1.973  18.045  0.00  0.00    +0.000 A 
ATOM     22  N   UNL     1       3.734   3.065  18.405  0.00  0.00    +0.000 NA
ENDBRANCH  16  17
ENDBRANCH  14  16
ENDBRANCH   9  12
BRANCH   5  23
ATOM     23  C   UNL     1      -1.311  12.336  19.057  0.00  0.00    +0.000 C 
BRANCH  23  24
ATOM     24  C   UNL     1      -2.465  11.768  18.261  0.00  0.00    +0.000 A 
ATOM     25  C   UNL     1      -2.238  11.332  16.944  0.00  0.00    +0.000 A 
ATOM     26  C   UNL     1      -3.302  10.973  16.113  0.00  0.00    +0.000 A 
ATOM     27  C   UNL     1      -4.611  11.056  16.579  0.00  0.00    +0.000 A 
ATOM     28  C   UNL     1      -4.868  11.472  17.893  0.00  0.00    +0.000 A 
ATOM     29  C   UNL     1      -3.787  11.807  18.727  0.00  0.00    +0.000 A 
BRANCH  28  30
ATOM     30  C   UNL     1      -6.278  11.607  18.413  0.00  0.00    +0.000 C 
ATOM     31  F   UNL     1      -7.172  12.014  17.468  0.00  0.00    +0.000 F 
ATOM     32  F   UNL     1      -6.768  10.440  18.913  0.00  0.00    +0.000 F 
ATOM     33  F   UNL     1      -6.368  12.517  19.423  0.00  0.00    +0.000 F 
ENDBRANCH  28  30
ENDBRANCH  23  24
ENDBRANCH   5  23
TORSDOF 6
ENDMDL
MODEL 8
REMARK VINA RESULT:      -9.0      1.522      1.840
REMARK  Name = 
REMARK  8 active torsions:
REMARK  status: ('A' for Active; 'I' for Inactive)
REMARK    1  A    between atoms: C_1  and  C_2
REMARK    2  A    between atoms: C_3  and  C_4
REMARK    3  A    between atoms: N_5  and  C_6
REMARK    4  A    between atoms: C_6  and  C_7
REMARK    5  A    between atoms: C_11  and  C_12
REMARK    6  A    between atoms: C_20  and  C_21
REMARK    7  A    between atoms: N_23  and  C_24
REMARK    8  A    between atoms: C_24  and  C_25
REMARK                            x       y       z     vdW  Elec       q    Type
REMARK                         _______ _______ _______ _____ _____    ______ ____
ROOT
ATOM      1  C   UNL     1      -0.165   9.527  23.242  0.00  0.00    +0.000 C 
ATOM      2  C   UNL     1      -0.224  10.115  21.875  0.00  0.00    +0.000 A 
ATOM      3  C   UNL     1      -0.910  11.245  21.461  0.00  0.00    +0.000 A 
ATOM      4  C   UNL     1      -1.789  12.171  22.235  0.00  0.00    +0.000 C 
ATOM      5  N   UNL     1      -0.672  11.411  20.104  0.00  0.00    +0.000 N 
ATOM      6  C   UNL     1       0.185  10.419  19.649  0.00  0.00    +0.000 A 
ATOM      7  C   UNL     1       0.759  10.188  18.385  0.00  0.00    +0.000 A 
ATOM      8  C   UNL     1       1.575   9.060  18.219  0.00  0.00    +0.000 A 
ATOM      9  C   UNL     1       1.796   8.169  19.271  0.00  0.00    +0.000 A 
ATOM     10  C   UNL     1       1.249   8.431  20.536  0.00  0.00    +0.000 A 
ATOM     11  C   UNL     1       0.439   9.575  20.730  0.00  0.00    +0.000 A 
ENDROOT
BRANCH   9  12
ATOM     12  C   UNL     1       2.656   6.971  19.037  0.00  0.00    +0.000 C 
ATOM     13  O   UNL     1       2.801   6.130  19.918  0.00  0.00    +0.000 OA
ATOM     14  N   UNL     1       3.273   6.894  17.807  0.00  0.00    +0.000 N 
ATOM     15  H   UNL     1       3.346   7.726  17.236  0.00  0.00    +0.000 HD
BRANCH  14  16
ATOM     16  C   UNL     1       4.168   5.804  17.468  0.00  0.00    +0.000 C 
BRANCH  16  17
ATOM     17  C   UNL     1       5.596   6.067  17.894  0.00  0.00    +0.000 A 
ATOM     18  C   UNL     1       6.153   5.346  18.948  0.00  0.00    +0.000 A 
ATOM     19  C   UNL     1       7.465   5.612  19.332  0.00  0.00    +0.000 A 
ATOM     20  C   UNL     1       8.185   6.590  18.658  0.00  0.00    +0.000 A 
ATOM     21  C   UNL     1       7.557   7.267  17.626  0.00  0.00    +0.000 A 
ATOM     22  N   UNL     1       6.283   7.034  17.232  0.00  0.00    +0.000 NA
ENDBRANCH  16  17
ENDBRANCH  14  16
ENDBRANCH   9  12
BRANCH   5  23
ATOM     23  C   UNL     1      -1.355  12.378  19.244  0.00  0.00    +0.000 C 
BRANCH  23  24
ATOM     24  C   UNL     1      -2.562  11.848  18.500  0.00  0.00    +0.000 A 
ATOM     25  C   UNL     1      -2.418  11.448  17.160  0.00  0.00    +0.000 A 
ATOM     26  C   UNL     1      -3.533  11.127  16.383  0.00  0.00    +0.000 A 
ATOM     27  C   UNL     1      -4.812  11.213  16.927  0.00  0.00    +0.000 A 
ATOM     28  C   UNL     1      -4.986  11.594  18.265  0.00  0.00    +0.000 A 
ATOM     29  C   UNL     1      -3.854  11.890  19.044  0.00  0.00    +0.000 A 
BRANCH  28  30
ATOM     30  C   UNL     1      -6.361  11.732  18.870  0.00  0.00    +0.000 C 
ATOM     31  F   UNL     1      -6.598  10.863  19.893  0.00  0.00    +0.000 F 
ATOM     32  F   UNL     1      -6.591  12.975  19.375  0.00  0.00    +0.000 F 
ATOM     33  F   UNL     1      -7.349  11.508  17.959  0.00  0.00    +0.000 F 
ENDBRANCH  28  30
ENDBRANCH  23  24
ENDBRANCH   5  23
TORSDOF 6
ENDMDL
MODEL 9
REMARK VINA RESULT:      -9.0      1.260      1.526
REMARK  Name = 
REMARK  8 active torsions:
REMARK  status: ('A' for Active; 'I' for Inactive)
REMARK    1  A    between atoms: C_1  and  C_2
REMARK    2  A    between atoms: C_3  and  C_4
REMARK    3  A    between atoms: N_5  and  C_6
REMARK    4  A    between atoms: C_6  and  C_7
REMARK    5  A    between atoms: C_11  and  C_12
REMARK    6  A    between atoms: C_20  and  C_21
REMARK    7  A    between atoms: N_23  and  C_24
REMARK    8  A    between atoms: C_24  and  C_25
REMARK                            x       y       z     vdW  Elec       q    Type
REMARK                         _______ _______ _______ _____ _____    ______ ____
ROOT
ATOM      1  C   UNL     1       0.312   9.355  23.136  0.00  0.00    +0.000 C 
ATOM      2  C   UNL     1       0.228   9.900  21.753  0.00  0.00    +0.000 A 
ATOM      3  C   UNL     1      -0.367  11.080  21.335  0.00  0.00    +0.000 A 
ATOM      4  C   UNL     1      -1.103  12.113  22.121  0.00  0.00    +0.000 C 
ATOM      5  N   UNL     1      -0.195  11.177  19.962  0.00  0.00    +0.000 N 
ATOM      6  C   UNL     1       0.531  10.089  19.498  0.00  0.00    +0.000 A 
ATOM      7  C   UNL     1       1.003   9.761  18.213  0.00  0.00    +0.000 A 
ATOM      8  C   UNL     1       1.694   8.552  18.045  0.00  0.00    +0.000 A 
ATOM      9  C   UNL     1       1.890   7.679  19.116  0.00  0.00    +0.000 A 
ATOM     10  C   UNL     1       1.447   8.035  20.398  0.00  0.00    +0.000 A 
ATOM     11  C   UNL     1       0.766   9.260  20.594  0.00  0.00    +0.000 A 
ENDROOT
BRANCH   9  12
ATOM     12  C   UNL     1       2.612   6.394  18.880  0.00  0.00    +0.000 C 
ATOM     13  O   UNL     1       2.473   5.790  17.822  0.00  0.00    +0.000 OA
ATOM     14  N   UNL     1       3.403   5.940  19.914  0.00  0.00    +0.000 N 
ATOM     15  H   UNL     1       3.268   6.316  20.843  0.00  0.00    +0.000 HD
BRANCH  14  16
ATOM     16  C   UNL     1       4.124   4.683  19.830  0.00  0.00    +0.000 C 
BRANCH  16  17
ATOM     17  C   UNL     1       5.407   4.799  19.038  0.00  0.00    +0.000 A 
ATOM     18  C   UNL     1       5.471   4.307  17.735  0.00  0.00    +0.000 A 
ATOM     19  C   UNL     1       6.666   4.413  17.029  0.00  0.00    +0.000 A 
ATOM     20  C   UNL     1       7.765   5.005  17.638  0.00  0.00    +0.000 A 
ATOM     21  C   UNL     1       7.623   5.463  18.937  0.00  0.00    +0.000 A 
ATOM     22  N   UNL     1       6.477   5.370  19.651  0.00  0.00    +0.000 NA
ENDBRANCH  16  17
ENDBRANCH  14  16
ENDBRANCH   9  12
BRANCH   5  23
ATOM     23  C   UNL     1      -0.831  12.178  19.104  0.00  0.00    +0.000 C 
BRANCH  23  24
ATOM     24  C   UNL     1      -2.163  11.775  18.509  0.00  0.00    +0.000 A 
ATOM     25  C   UNL     1      -2.204  11.292  17.190  0.00  0.00    +0.000 A 
ATOM     26  C   UNL     1      -3.422  11.082  16.540  0.00  0.00    +0.000 A 
ATOM     27  C   UNL     1      -4.620  11.362  17.193  0.00  0.00    +0.000 A 
ATOM     28  C   UNL     1      -4.611  11.829  18.514  0.00  0.00    +0.000 A 
ATOM     29  C   UNL     1      -3.379  12.013  19.166  0.00  0.00    +0.000 A 
BRANCH  28  30
ATOM     30  C   UNL     1      -5.891  12.177  19.234  0.00  0.00    +0.000 C 
ATOM     31  F   UNL     1      -6.960  12.330  18.402  0.00  0.00    +0.000 F 
ATOM     32  F   UNL     1      -6.256  11.232  20.143  0.00  0.00    +0.000 F 
ATOM     33  F   UNL     1      -5.791  13.347  19.925  0.00  0.00    +0.000 F 
ENDBRANCH  28  30
ENDBRANCH  23  24
ENDBRANCH   5  23
TORSDOF 6
ENDMDL
