MODEL 1
REMARK VINA RESULT:      -8.1      0.000      0.000
REMARK  Name = 
REMARK  10 active torsions:
REMARK  status: ('A' for Active; 'I' for Inactive)
REMARK    1  A    between atoms: C_1  and  N_2
REMARK    2  A    between atoms: N_2  and  C_3
REMARK    3  A    between atoms: N_2  and  C_4
REMARK    4  A    between atoms: C_8  and  N_9
REMARK    5  A    between atoms: N_9  and  C_10
REMARK    6  A    between atoms: C_10  and  C_11
REMARK    7  A    between atoms: C_11  and  C_12
REMARK    8  A    between atoms: C_12  and  C_13
REMARK    9  A    between atoms: C_22  and  C_23
REMARK   10  A    between atoms: C_22  and  C_24
REMARK                            x       y       z     vdW  Elec       q    Type
REMARK                         _______ _______ _______ _____ _____    ______ ____
ROOT
ATOM      1  C   UNL     1       4.754   5.115  17.696  0.00  0.00    +0.000 C 
ATOM      2  C   UNL     1       5.422   4.073  16.740  0.00  0.00    +0.000 C 
ATOM      3  C   UNL     1       6.829   4.433  16.289  0.00  0.00    +0.000 C 
ATOM      4  O   UNL     1       7.689   4.633  17.404  0.00  0.00    +0.000 OA
ATOM      5  C   UNL     1       7.290   5.726  18.239  0.00  0.00    +0.000 C 
ATOM      6  C   UNL     1       8.213   5.713  19.474  0.00  0.00    +0.000 C 
ATOM      7  C   UNL     1       7.584   7.046  17.513  0.00  0.00    +0.000 C 
ATOM      8  C   UNL     1       5.848   5.488  18.746  0.00  0.00    +0.000 C 
ENDROOT
BRANCH   1   9
ATOM      9  C   UNL     1       3.507   4.464  18.377  0.00  0.00    +0.000 A 
ATOM     10  C   UNL     1       3.543   3.990  19.705  0.00  0.00    +0.000 A 
ATOM     11  C   UNL     1       2.429   3.376  20.294  0.00  0.00    +0.000 A 
ATOM     12  C   UNL     1       1.264   3.198  19.567  0.00  0.00    +0.000 A 
ATOM     13  C   UNL     1       1.201   3.643  18.250  0.00  0.00    +0.000 A 
ATOM     14  C   UNL     1       2.303   4.278  17.670  0.00  0.00    +0.000 A 
ENDBRANCH   1   9
BRANCH   1  15
ATOM     15  C   UNL     1       4.233   6.335  16.860  0.00  0.00    +0.000 C 
BRANCH  15  16
ATOM     16  C   UNL     1       4.032   7.687  17.574  0.00  0.00    +0.000 C 
BRANCH  16  17
ATOM     17  N   UNL     1       2.644   8.123  17.591  0.00  0.00    +0.000 N 
ATOM     18  H   UNL     1       2.396   8.746  16.827  0.00  0.00    +0.000 HD
BRANCH  17  23
ATOM     19  C   UNL     1       0.420   9.750  20.157  0.00  0.00    +0.000 A 
ATOM     20  C   UNL     1       0.623   8.834  21.199  0.00  0.00    +0.000 A 
ATOM     21  C   UNL     1       1.429   7.705  21.037  0.00  0.00    +0.000 A 
ATOM     22  C   UNL     1       2.052   7.466  19.815  0.00  0.00    +0.000 A 
ATOM     23  C   UNL     1       1.899   8.352  18.741  0.00  0.00    +0.000 A 
ATOM     24  C   UNL     1       1.122   9.496  18.955  0.00  0.00    +0.000 A 
BRANCH  19  26
ATOM     25  C   UNL     1      -0.448  11.866  19.219  0.00  0.00    +0.000 C 
ATOM     26  N   UNL     1      -0.400  10.877  20.293  0.00  0.00    +0.000 N 
ATOM     27  C   UNL     1      -0.675  11.367  21.642  0.00  0.00    +0.000 C 
ENDBRANCH  19  26
ENDBRANCH  17  23
ENDBRANCH  16  17
ENDBRANCH  15  16
ENDBRANCH   1  15
TORSDOF 6
ENDMDL
MODEL 2
REMARK VINA RESULT:      -8.0      0.551      1.051
REMARK  Name = 
REMARK  10 active torsions:
REMARK  status: ('A' for Active; 'I' for Inactive)
REMARK    1  A    between atoms: C_1  and  N_2
REMARK    2  A    between atoms: N_2  and  C_3
REMARK    3  A    between atoms: N_2  and  C_4
REMARK    4  A    between atoms: C_8  and  N_9
REMARK    5  A    between atoms: N_9  and  C_10
REMARK    6  A    between atoms: C_10  and  C_11
REMARK    7  A    between atoms: C_11  and  C_12
REMARK    8  A    between atoms: C_12  and  C_13
REMARK    9  A    between atoms: C_22  and  C_23
REMARK   10  A    between atoms: C_22  and  C_24
REMARK                            x       y       z     vdW  Elec       q    Type
REMARK                         _______ _______ _______ _____ _____    ______ ____
ROOT
ATOM      1  C   UNL     1       4.546   5.167  17.873  0.00  0.00    +0.000 C 
ATOM      2  C   UNL     1       5.139   4.109  16.886  0.00  0.00    +0.000 C 
ATOM      3  C   UNL     1       6.545   4.417  16.394  0.00  0.00    +0.000 C 
ATOM      4  O   UNL     1       7.447   4.568  17.483  0.00  0.00    +0.000 OA
ATOM      5  C   UNL     1       7.120   5.667  18.341  0.00  0.00    +0.000 C 
ATOM      6  C   UNL     1       8.081   5.601  19.546  0.00  0.00    +0.000 C 
ATOM      7  C   UNL     1       7.446   6.981  17.620  0.00  0.00    +0.000 C 
ATOM      8  C   UNL     1       5.687   5.483  18.892  0.00  0.00    +0.000 C 
ENDROOT
BRANCH   1   9
ATOM      9  C   UNL     1       3.295   4.561  18.587  0.00  0.00    +0.000 A 
ATOM     10  C   UNL     1       2.261   3.923  17.870  0.00  0.00    +0.000 A 
ATOM     11  C   UNL     1       1.126   3.414  18.516  0.00  0.00    +0.000 A 
ATOM     12  C   UNL     1       0.985   3.550  19.887  0.00  0.00    +0.000 A 
ATOM     13  C   UNL     1       1.981   4.186  20.622  0.00  0.00    +0.000 A 
ATOM     14  C   UNL     1       3.124   4.671  19.981  0.00  0.00    +0.000 A 
ENDBRANCH   1   9
BRANCH   1  15
ATOM     15  C   UNL     1       4.050   6.418  17.066  0.00  0.00    +0.000 C 
BRANCH  15  16
ATOM     16  C   UNL     1       3.694   7.702  17.841  0.00  0.00    +0.000 C 
BRANCH  16  17
ATOM     17  N   UNL     1       2.265   7.970  17.878  0.00  0.00    +0.000 N 
ATOM     18  H   UNL     1       1.872   8.247  16.982  0.00  0.00    +0.000 HD
BRANCH  17  23
ATOM     19  C   UNL     1       0.240  10.306  20.028  0.00  0.00    +0.000 A 
ATOM     20  C   UNL     1       0.459   9.674  21.261  0.00  0.00    +0.000 A 
ATOM     21  C   UNL     1       1.210   8.501  21.361  0.00  0.00    +0.000 A 
ATOM     22  C   UNL     1       1.760   7.929  20.217  0.00  0.00    +0.000 A 
ATOM     23  C   UNL     1       1.589   8.521  18.959  0.00  0.00    +0.000 A 
ATOM     24  C   UNL     1       0.870   9.721  18.905  0.00  0.00    +0.000 A 
BRANCH  19  26
ATOM     25  C   UNL     1      -0.116  12.505  18.957  0.00  0.00    +0.000 C 
ATOM     26  N   UNL     1      -0.526  11.471  19.904  0.00  0.00    +0.000 N 
ATOM     27  C   UNL     1      -1.288  11.920  21.068  0.00  0.00    +0.000 C 
ENDBRANCH  19  26
ENDBRANCH  17  23
ENDBRANCH  16  17
ENDBRANCH  15  16
ENDBRANCH   1  15
TORSDOF 6
ENDMDL
MODEL 3
REMARK VINA RESULT:      -8.0      0.708      1.032
REMARK  Name = 
REMARK  10 active torsions:
REMARK  status: ('A' for Active; 'I' for Inactive)
REMARK    1  A    between atoms: C_1  and  N_2
REMARK    2  A    between atoms: N_2  and  C_3
REMARK    3  A    between atoms: N_2  and  C_4
REMARK    4  A    between atoms: C_8  and  N_9
REMARK    5  A    between atoms: N_9  and  C_10
REMARK    6  A    between atoms: C_10  and  C_11
REMARK    7  A    between atoms: C_11  and  C_12
REMARK    8  A    between atoms: C_12  and  C_13
REMARK    9  A    between atoms: C_22  and  C_23
REMARK   10  A    between atoms: C_22  and  C_24
REMARK                            x       y       z     vdW  Elec       q    Type
REMARK                         _______ _______ _______ _____ _____    ______ ____
ROOT
ATOM      1  C   UNL     1       4.791   4.852  17.387  0.00  0.00    +0.000 C 
ATOM      2  C   UNL     1       5.564   4.082  16.267  0.00  0.00    +0.000 C 
ATOM      3  C   UNL     1       6.936   4.648  15.936  0.00  0.00    +0.000 C 
ATOM      4  O   UNL     1       7.761   4.702  17.093  0.00  0.00    +0.000 OA
ATOM      5  C   UNL     1       7.252   5.570  18.112  0.00  0.00    +0.000 C 
ATOM      6  C   UNL     1       8.159   5.398  19.348  0.00  0.00    +0.000 C 
ATOM      7  C   UNL     1       7.430   7.027  17.665  0.00  0.00    +0.000 C 
ATOM      8  C   UNL     1       5.833   5.109  18.522  0.00  0.00    +0.000 C 
ENDROOT
BRANCH   1   9
ATOM      9  C   UNL     1       3.603   3.972  17.892  0.00  0.00    +0.000 A 
ATOM     10  C   UNL     1       2.268   4.425  17.855  0.00  0.00    +0.000 A 
ATOM     11  C   UNL     1       1.213   3.641  18.343  0.00  0.00    +0.000 A 
ATOM     12  C   UNL     1       1.468   2.399  18.900  0.00  0.00    +0.000 A 
ATOM     13  C   UNL     1       2.775   1.928  18.964  0.00  0.00    +0.000 A 
ATOM     14  C   UNL     1       3.824   2.699  18.454  0.00  0.00    +0.000 A 
ENDBRANCH   1   9
BRANCH   1  15
ATOM     15  C   UNL     1       4.167   6.161  16.789  0.00  0.00    +0.000 C 
BRANCH  15  16
ATOM     16  C   UNL     1       4.103   7.420  17.677  0.00  0.00    +0.000 C 
BRANCH  16  17
ATOM     17  N   UNL     1       2.819   8.101  17.610  0.00  0.00    +0.000 N 
ATOM     18  H   UNL     1       2.777   8.840  16.914  0.00  0.00    +0.000 HD
BRANCH  17  23
ATOM     19  C   UNL     1       0.357   9.711  19.962  0.00  0.00    +0.000 A 
ATOM     20  C   UNL     1       0.529   8.841  21.048  0.00  0.00    +0.000 A 
ATOM     21  C   UNL     1       1.392   7.745  20.982  0.00  0.00    +0.000 A 
ATOM     22  C   UNL     1       2.106   7.493  19.812  0.00  0.00    +0.000 A 
ATOM     23  C   UNL     1       1.988   8.335  18.699  0.00  0.00    +0.000 A 
ATOM     24  C   UNL     1       1.150   9.449  18.820  0.00  0.00    +0.000 A 
BRANCH  19  26
ATOM     25  C   UNL     1      -1.337  11.112  18.833  0.00  0.00    +0.000 C 
ATOM     26  N   UNL     1      -0.517  10.804  20.002  0.00  0.00    +0.000 N 
ATOM     27  C   UNL     1      -0.173  11.927  20.871  0.00  0.00    +0.000 C 
ENDBRANCH  19  26
ENDBRANCH  17  23
ENDBRANCH  16  17
ENDBRANCH  15  16
ENDBRANCH   1  15
TORSDOF 6
ENDMDL
MODEL 4
REMARK VINA RESULT:      -7.9      0.833      1.058
REMARK  Name = 
REMARK  10 active torsions:
REMARK  status: ('A' for Active; 'I' for Inactive)
REMARK    1  A    between atoms: C_1  and  N_2
REMARK    2  A    between atoms: N_2  and  C_3
REMARK    3  A    between atoms: N_2  and  C_4
REMARK    4  A    between atoms: C_8  and  N_9
REMARK    5  A    between atoms: N_9  and  C_10
REMARK    6  A    between atoms: C_10  and  C_11
REMARK    7  A    between atoms: C_11  and  C_12
REMARK    8  A    between atoms: C_12  and  C_13
REMARK    9  A    between atoms: C_22  and  C_23
REMARK   10  A    between atoms: C_22  and  C_24
REMARK                            x       y       z     vdW  Elec       q    Type
REMARK                         _______ _______ _______ _____ _____    ______ ____
ROOT
ATOM      1  C   UNL     1       4.413   5.065  18.007  0.00  0.00    +0.000 C 
ATOM      2  C   UNL     1       4.992   4.014  17.005  0.00  0.00    +0.000 C 
ATOM      3  C   UNL     1       6.363   4.359  16.443  0.00  0.00    +0.000 C 
ATOM      4  O   UNL     1       7.310   4.551  17.486  0.00  0.00    +0.000 OA
ATOM      5  C   UNL     1       6.989   5.650  18.348  0.00  0.00    +0.000 C 
ATOM      6  C   UNL     1       8.007   5.629  19.507  0.00  0.00    +0.000 C 
ATOM      7  C   UNL     1       7.239   6.965  17.598  0.00  0.00    +0.000 C 
ATOM      8  C   UNL     1       5.589   5.428  18.968  0.00  0.00    +0.000 C 
ENDROOT
BRANCH   1   9
ATOM      9  C   UNL     1       3.216   4.428  18.786  0.00  0.00    +0.000 A 
ATOM     10  C   UNL     1       2.953   4.739  20.136  0.00  0.00    +0.000 A 
ATOM     11  C   UNL     1       1.898   4.136  20.836  0.00  0.00    +0.000 A 
ATOM     12  C   UNL     1       1.098   3.193  20.213  0.00  0.00    +0.000 A 
ATOM     13  C   UNL     1       1.339   2.854  18.885  0.00  0.00    +0.000 A 
ATOM     14  C   UNL     1       2.375   3.474  18.180  0.00  0.00    +0.000 A 
ENDBRANCH   1   9
BRANCH   1  15
ATOM     15  C   UNL     1       3.840   6.289  17.212  0.00  0.00    +0.000 C 
BRANCH  15  16
ATOM     16  C   UNL     1       3.851   7.676  17.885  0.00  0.00    +0.000 C 
BRANCH  16  17
ATOM     17  N   UNL     1       2.635   8.438  17.642  0.00  0.00    +0.000 N 
ATOM     18  H   UNL     1       2.727   9.147  16.919  0.00  0.00    +0.000 HD
BRANCH  17  23
ATOM     19  C   UNL     1      -0.142  10.178  19.498  0.00  0.00    +0.000 A 
ATOM     20  C   UNL     1       0.025   9.543  20.736  0.00  0.00    +0.000 A 
ATOM     21  C   UNL     1       0.989   8.552  20.930  0.00  0.00    +0.000 A 
ATOM     22  C   UNL     1       1.812   8.169  19.873  0.00  0.00    +0.000 A 
ATOM     23  C   UNL     1       1.704   8.776  18.616  0.00  0.00    +0.000 A 
ATOM     24  C   UNL     1       0.759   9.799  18.474  0.00  0.00    +0.000 A 
BRANCH  19  26
ATOM     25  C   UNL     1      -1.553  12.001  20.390  0.00  0.00    +0.000 C 
ATOM     26  N   UNL     1      -1.115  11.161  19.278  0.00  0.00    +0.000 N 
ATOM     27  C   UNL     1      -2.085  10.939  18.208  0.00  0.00    +0.000 C 
ENDBRANCH  19  26
ENDBRANCH  17  23
ENDBRANCH  16  17
ENDBRANCH  15  16
ENDBRANCH   1  15
TORSDOF 6
ENDMDL
MODEL 5
REMARK VINA RESULT:      -7.8      0.920      1.821
REMARK  Name = 
REMARK  10 active torsions:
REMARK  status: ('A' for Active; 'I' for Inactive)
REMARK    1  A    between atoms: C_1  and  N_2
REMARK    2  A    between atoms: N_2  and  C_3
REMARK    3  A    between atoms: N_2  and  C_4
REMARK    4  A    between atoms: C_8  and  N_9
REMARK    5  A    between atoms: N_9  and  C_10
REMARK    6  A    between atoms: C_10  and  C_11
REMARK    7  A    between atoms: C_11  and  C_12
REMARK    8  A    between atoms: C_12  and  C_13
REMARK    9  A    between atoms: C_22  and  C_23
REMARK   10  A    between atoms: C_22  and  C_24
REMARK                            x       y       z     vdW  Elec       q    Type
REMARK                         _______ _______ _______ _____ _____    ______ ____
ROOT
ATOM      1  C   UNL     1       4.320   4.985  17.939  0.00  0.00    +0.000 C 
ATOM      2  C   UNL     1       4.918   3.951  16.930  0.00  0.00    +0.000 C 
ATOM      3  C   UNL     1       6.266   4.341  16.344  0.00  0.00    +0.000 C 
ATOM      4  O   UNL     1       7.224   4.569  17.370  0.00  0.00    +0.000 OA
ATOM      5  C   UNL     1       6.880   5.659  18.234  0.00  0.00    +0.000 C 
ATOM      6  C   UNL     1       7.917   5.677  19.375  0.00  0.00    +0.000 C 
ATOM      7  C   UNL     1       7.072   6.979  17.476  0.00  0.00    +0.000 C 
ATOM      8  C   UNL     1       5.499   5.392  18.878  0.00  0.00    +0.000 C 
ENDROOT
BRANCH   1   9
ATOM      9  C   UNL     1       3.159   4.311  18.740  0.00  0.00    +0.000 A 
ATOM     10  C   UNL     1       2.106   3.628  18.097  0.00  0.00    +0.000 A 
ATOM     11  C   UNL     1       1.051   3.057  18.823  0.00  0.00    +0.000 A 
ATOM     12  C   UNL     1       1.010   3.175  20.202  0.00  0.00    +0.000 A 
ATOM     13  C   UNL     1       2.027   3.855  20.866  0.00  0.00    +0.000 A 
ATOM     14  C   UNL     1       3.091   4.402  20.144  0.00  0.00    +0.000 A 
ENDBRANCH   1   9
BRANCH   1  15
ATOM     15  C   UNL     1       3.692   6.187  17.150  0.00  0.00    +0.000 C 
BRANCH  15  16
ATOM     16  C   UNL     1       3.522   7.537  17.874  0.00  0.00    +0.000 C 
BRANCH  16  17
ATOM     17  N   UNL     1       2.429   7.536  18.834  0.00  0.00    +0.000 N 
ATOM     18  H   UNL     1       1.937   6.649  18.902  0.00  0.00    +0.000 HD
BRANCH  17  23
ATOM     19  C   UNL     1       0.324  10.069  20.662  0.00  0.00    +0.000 A 
ATOM     20  C   UNL     1      -0.228  10.706  19.542  0.00  0.00    +0.000 A 
ATOM     21  C   UNL     1       0.119  10.337  18.241  0.00  0.00    +0.000 A 
ATOM     22  C   UNL     1       1.040   9.312  18.032  0.00  0.00    +0.000 A 
ATOM     23  C   UNL     1       1.615   8.628  19.110  0.00  0.00    +0.000 A 
ATOM     24  C   UNL     1       1.207   8.994  20.398  0.00  0.00    +0.000 A 
BRANCH  19  26
ATOM     25  C   UNL     1      -0.313   9.402  22.955  0.00  0.00    +0.000 C 
ATOM     26  N   UNL     1       0.004  10.437  21.974  0.00  0.00    +0.000 N 
ATOM     27  C   UNL     1      -0.605  11.748  22.190  0.00  0.00    +0.000 C 
ENDBRANCH  19  26
ENDBRANCH  17  23
ENDBRANCH  16  17
ENDBRANCH  15  16
ENDBRANCH   1  15
TORSDOF 6
ENDMDL
MODEL 6
REMARK VINA RESULT:      -7.8      1.182      1.859
REMARK  Name = 
REMARK  10 active torsions:
REMARK  status: ('A' for Active; 'I' for Inactive)
REMARK    1  A    between atoms: C_1  and  N_2
REMARK    2  A    between atoms: N_2  and  C_3
REMARK    3  A    between atoms: N_2  and  C_4
REMARK    4  A    between atoms: C_8  and  N_9
REMARK    5  A    between atoms: N_9  and  C_10
REMARK    6  A    between atoms: C_10  and  C_11
REMARK    7  A    between atoms: C_11  and  C_12
REMARK    8  A    between atoms: C_12  and  C_13
REMARK    9  A    between atoms: C_22  and  C_23
REMARK   10  A    between atoms: C_22  and  C_24
REMARK                            x       y       z     vdW  Elec       q    Type
REMARK                         _______ _______ _______ _____ _____    ______ ____
ROOT
ATOM      1  C   UNL     1       3.964   4.753  18.349  0.00  0.00    +0.000 C 
ATOM      2  C   UNL     1       4.448   3.682  17.318  0.00  0.00    +0.000 C 
ATOM      3  C   UNL     1       5.649   4.100  16.483  0.00  0.00    +0.000 C 
ATOM      4  O   UNL     1       6.750   4.454  17.310  0.00  0.00    +0.000 OA
ATOM      5  C   UNL     1       6.487   5.584  18.151  0.00  0.00    +0.000 C 
ATOM      6  C   UNL     1       7.700   5.741  19.091  0.00  0.00    +0.000 C 
ATOM      7  C   UNL     1       6.460   6.854  17.290  0.00  0.00    +0.000 C 
ATOM      8  C   UNL     1       5.256   5.290  19.041  0.00  0.00    +0.000 C 
ENDROOT
BRANCH   1   9
ATOM      9  C   UNL     1       3.003   4.078  19.380  0.00  0.00    +0.000 A 
ATOM     10  C   UNL     1       3.486   3.382  20.508  0.00  0.00    +0.000 A 
ATOM     11  C   UNL     1       2.617   2.749  21.408  0.00  0.00    +0.000 A 
ATOM     12  C   UNL     1       1.249   2.775  21.191  0.00  0.00    +0.000 A 
ATOM     13  C   UNL     1       0.741   3.442  20.081  0.00  0.00    +0.000 A 
ATOM     14  C   UNL     1       1.606   4.094  19.197  0.00  0.00    +0.000 A 
ENDBRANCH   1   9
BRANCH   1  15
ATOM     15  C   UNL     1       3.133   5.858  17.608  0.00  0.00    +0.000 C 
BRANCH  15  16
ATOM     16  C   UNL     1       3.167   7.299  18.156  0.00  0.00    +0.000 C 
BRANCH  16  17
ATOM     17  N   UNL     1       2.284   7.497  19.295  0.00  0.00    +0.000 N 
ATOM     18  H   UNL     1       1.805   6.654  19.600  0.00  0.00    +0.000 HD
BRANCH  17  23
ATOM     19  C   UNL     1       0.240  10.150  21.018  0.00  0.00    +0.000 A 
ATOM     20  C   UNL     1      -0.118  10.888  19.880  0.00  0.00    +0.000 A 
ATOM     21  C   UNL     1       0.337  10.541  18.607  0.00  0.00    +0.000 A 
ATOM     22  C   UNL     1       1.172   9.438  18.444  0.00  0.00    +0.000 A 
ATOM     23  C   UNL     1       1.553   8.653  19.540  0.00  0.00    +0.000 A 
ATOM     24  C   UNL     1       1.038   9.003  20.793  0.00  0.00    +0.000 A 
BRANCH  19  26
ATOM     25  C   UNL     1      -0.068   9.520  23.388  0.00  0.00    +0.000 C 
ATOM     26  N   UNL     1      -0.191  10.492  22.305  0.00  0.00    +0.000 N 
ATOM     27  C   UNL     1      -1.266  11.475  22.431  0.00  0.00    +0.000 C 
ENDBRANCH  19  26
ENDBRANCH  17  23
ENDBRANCH  16  17
ENDBRANCH  15  16
ENDBRANCH   1  15
TORSDOF 6
ENDMDL
MODEL 7
REMARK VINA RESULT:      -7.8      1.097      1.799
REMARK  Name = 
REMARK  10 active torsions:
REMARK  status: ('A' for Active; 'I' for Inactive)
REMARK    1  A    between atoms: C_1  and  N_2
REMARK    2  A    between atoms: N_2  and  C_3
REMARK    3  A    between atoms: N_2  and  C_4
REMARK    4  A    between atoms: C_8  and  N_9
REMARK    5  A    between atoms: N_9  and  C_10
REMARK    6  A    between atoms: C_10  and  C_11
REMARK    7  A    between atoms: C_11  and  C_12
REMARK    8  A    between atoms: C_12  and  C_13
REMARK    9  A    between atoms: C_22  and  C_23
REMARK   10  A    between atoms: C_22  and  C_24
REMARK                            x       y       z     vdW  Elec       q    Type
REMARK                         _______ _______ _______ _____ _____    ______ ____
ROOT
ATOM      1  C   UNL     1       4.134   5.304  17.974  0.00  0.00    +0.000 C 
ATOM      2  C   UNL     1       4.591   4.323  16.845  0.00  0.00    +0.000 C 
ATOM      3  C   UNL     1       5.924   4.671  16.201  0.00  0.00    +0.000 C 
ATOM      4  O   UNL     1       6.959   4.744  17.174  0.00  0.00    +0.000 OA
ATOM      5  C   UNL     1       6.751   5.776  18.145  0.00  0.00    +0.000 C 
ATOM      6  C   UNL     1       7.857   5.625  19.210  0.00  0.00    +0.000 C 
ATOM      7  C   UNL     1       6.990   7.141  17.487  0.00  0.00    +0.000 C 
ATOM      8  C   UNL     1       5.398   5.547  18.859  0.00  0.00    +0.000 C 
ENDROOT
BRANCH   1   9
ATOM      9  C   UNL     1       2.981   4.642  18.795  0.00  0.00    +0.000 A 
ATOM     10  C   UNL     1       2.865   4.809  20.191  0.00  0.00    +0.000 A 
ATOM     11  C   UNL     1       1.847   4.183  20.923  0.00  0.00    +0.000 A 
ATOM     12  C   UNL     1       0.936   3.358  20.285  0.00  0.00    +0.000 A 
ATOM     13  C   UNL     1       1.030   3.162  18.910  0.00  0.00    +0.000 A 
ATOM     14  C   UNL     1       2.030   3.807  18.177  0.00  0.00    +0.000 A 
ENDBRANCH   1   9
BRANCH   1  15
ATOM     15  C   UNL     1       3.547   6.609  17.331  0.00  0.00    +0.000 C 
BRANCH  15  16
ATOM     16  C   UNL     1       3.041   7.727  18.264  0.00  0.00    +0.000 C 
BRANCH  16  17
ATOM     17  N   UNL     1       1.895   8.443  17.726  0.00  0.00    +0.000 N 
ATOM     18  H   UNL     1       2.025   8.781  16.776  0.00  0.00    +0.000 HD
BRANCH  17  23
ATOM     19  C   UNL     1       0.141  10.094  20.621  0.00  0.00    +0.000 A 
ATOM     20  C   UNL     1      -0.893  10.705  19.898  0.00  0.00    +0.000 A 
ATOM     21  C   UNL     1      -0.975  10.607  18.508  0.00  0.00    +0.000 A 
ATOM     22  C   UNL     1      -0.011   9.889  17.805  0.00  0.00    +0.000 A 
ATOM     23  C   UNL     1       1.038   9.244  18.471  0.00  0.00    +0.000 A 
ATOM     24  C   UNL     1       1.060   9.326  19.868  0.00  0.00    +0.000 A 
BRANCH  19  26
ATOM     25  C   UNL     1       1.119   9.271  22.737  0.00  0.00    +0.000 C 
ATOM     26  N   UNL     1       0.252  10.197  22.013  0.00  0.00    +0.000 N 
ATOM     27  C   UNL     1      -0.886  10.738  22.754  0.00  0.00    +0.000 C 
ENDBRANCH  19  26
ENDBRANCH  17  23
ENDBRANCH  16  17
ENDBRANCH  15  16
ENDBRANCH   1  15
TORSDOF 6
ENDMDL
MODEL 8
REMARK VINA RESULT:      -7.7      1.907      4.411
REMARK  Name = 
REMARK  10 active torsions:
REMARK  status: ('A' for Active; 'I' for Inactive)
REMARK    1  A    between atoms: C_1  and  N_2
REMARK    2  A    between atoms: N_2  and  C_3
REMARK    3  A    between atoms: N_2  and  C_4
REMARK    4  A    between atoms: C_8  and  N_9
REMARK    5  A    between atoms: N_9  and  C_10
REMARK    6  A    between atoms: C_10  and  C_11
REMARK    7  A    between atoms: C_11  and  C_12
REMARK    8  A    between atoms: C_12  and  C_13
REMARK    9  A    between atoms: C_22  and  C_23
REMARK   10  A    between atoms: C_22  and  C_24
REMARK                            x       y       z     vdW  Elec       q    Type
REMARK                         _______ _______ _______ _____ _____    ______ ____
ROOT
ATOM      1  C   UNL     1       4.071   4.127  18.762  0.00  0.00    +0.000 C 
ATOM      2  C   UNL     1       4.600   2.989  19.695  0.00  0.00    +0.000 C 
ATOM      3  C   UNL     1       3.585   2.466  20.700  0.00  0.00    +0.000 C 
ATOM      4  O   UNL     1       2.412   1.998  20.046  0.00  0.00    +0.000 OA
ATOM      5  C   UNL     1       1.713   3.025  19.332  0.00  0.00    +0.000 C 
ATOM      6  C   UNL     1       0.571   2.339  18.555  0.00  0.00    +0.000 C 
ATOM      7  C   UNL     1       1.029   3.959  20.339  0.00  0.00    +0.000 C 
ATOM      8  C   UNL     1       2.658   3.661  18.285  0.00  0.00    +0.000 C 
ENDROOT
BRANCH   1   9
ATOM      9  C   UNL     1       5.050   4.302  17.557  0.00  0.00    +0.000 A 
ATOM     10  C   UNL     1       4.628   4.141  16.220  0.00  0.00    +0.000 A 
ATOM     11  C   UNL     1       5.523   4.266  15.148  0.00  0.00    +0.000 A 
ATOM     12  C   UNL     1       6.862   4.530  15.385  0.00  0.00    +0.000 A 
ATOM     13  C   UNL     1       7.313   4.682  16.693  0.00  0.00    +0.000 A 
ATOM     14  C   UNL     1       6.416   4.582  17.760  0.00  0.00    +0.000 A 
ENDBRANCH   1   9
BRANCH   1  15
ATOM     15  C   UNL     1       4.061   5.486  19.544  0.00  0.00    +0.000 C 
BRANCH  15  16
ATOM     16  C   UNL     1       3.172   6.632  19.022  0.00  0.00    +0.000 C 
BRANCH  16  17
ATOM     17  N   UNL     1       2.321   7.209  20.051  0.00  0.00    +0.000 N 
ATOM     18  H   UNL     1       1.825   6.522  20.612  0.00  0.00    +0.000 HD
BRANCH  17  23
ATOM     19  C   UNL     1       0.197  10.220  20.831  0.00  0.00    +0.000 A 
ATOM     20  C   UNL     1       0.059  10.704  19.522  0.00  0.00    +0.000 A 
ATOM     21  C   UNL     1       0.680  10.080  18.439  0.00  0.00    +0.000 A 
ATOM     22  C   UNL     1       1.465   8.948  18.646  0.00  0.00    +0.000 A 
ATOM     23  C   UNL     1       1.630   8.408  19.928  0.00  0.00    +0.000 A 
ATOM     24  C   UNL     1       0.953   9.033  20.982  0.00  0.00    +0.000 A 
BRANCH  19  26
ATOM     25  C   UNL     1      -0.692  10.060  23.132  0.00  0.00    +0.000 C 
ATOM     26  N   UNL     1      -0.402  10.843  21.933  0.00  0.00    +0.000 N 
ATOM     27  C   UNL     1      -1.262  11.998  21.684  0.00  0.00    +0.000 C 
ENDBRANCH  19  26
ENDBRANCH  17  23
ENDBRANCH  16  17
ENDBRANCH  15  16
ENDBRANCH   1  15
TORSDOF 6
ENDMDL
MODEL 9
REMARK VINA RESULT:      -7.7      1.015      1.311
REMARK  Name = 
REMARK  10 active torsions:
REMARK  status: ('A' for Active; 'I' for Inactive)
REMARK    1  A    between atoms: C_1  and  N_2
REMARK    2  A    between atoms: N_2  and  C_3
REMARK    3  A    between atoms: N_2  and  C_4
REMARK    4  A    between atoms: C_8  and  N_9
REMARK    5  A    between atoms: N_9  and  C_10
REMARK    6  A    between atoms: C_10  and  C_11
REMARK    7  A    between atoms: C_11  and  C_12
REMARK    8  A    between atoms: C_12  and  C_13
REMARK    9  A    between atoms: C_22  and  C_23
REMARK   10  A    between atoms: C_22  and  C_24
REMARK                            x       y       z     vdW  Elec       q    Type
REMARK                         _______ _______ _______ _____ _____    ______ ____
ROOT
ATOM      1  C   UNL     1       4.477   5.134  17.884  0.00  0.00    +0.000 C 
ATOM      2  C   UNL     1       5.102   4.057  16.938  0.00  0.00    +0.000 C 
ATOM      3  C   UNL     1       6.510   4.371  16.457  0.00  0.00    +0.000 C 
ATOM      4  O   UNL     1       7.393   4.569  17.554  0.00  0.00    +0.000 OA
ATOM      5  C   UNL     1       7.037   5.688  18.374  0.00  0.00    +0.000 C 
ATOM      6  C   UNL     1       7.980   5.673  19.595  0.00  0.00    +0.000 C 
ATOM      7  C   UNL     1       7.353   6.985  17.619  0.00  0.00    +0.000 C 
ATOM      8  C   UNL     1       5.598   5.498  18.909  0.00  0.00    +0.000 C 
ENDROOT
BRANCH   1   9
ATOM      9  C   UNL     1       3.225   4.530  18.597  0.00  0.00    +0.000 A 
ATOM     10  C   UNL     1       3.053   4.601  19.995  0.00  0.00    +0.000 A 
ATOM     11  C   UNL     1       1.943   4.025  20.628  0.00  0.00    +0.000 A 
ATOM     12  C   UNL     1       0.993   3.344  19.886  0.00  0.00    +0.000 A 
ATOM     13  C   UNL     1       1.139   3.244  18.506  0.00  0.00    +0.000 A 
ATOM     14  C   UNL     1       2.233   3.841  17.872  0.00  0.00    +0.000 A 
ENDBRANCH   1   9
BRANCH   1  15
ATOM     15  C   UNL     1       3.975   6.352  17.033  0.00  0.00    +0.000 C 
BRANCH  15  16
ATOM     16  C   UNL     1       3.629   7.667  17.760  0.00  0.00    +0.000 C 
BRANCH  16  17
ATOM     17  N   UNL     1       2.199   7.852  17.956  0.00  0.00    +0.000 N 
ATOM     18  H   UNL     1       1.635   7.616  17.144  0.00  0.00    +0.000 HD
BRANCH  17  23
ATOM     19  C   UNL     1       0.939  11.191  19.158  0.00  0.00    +0.000 A 
ATOM     20  C   UNL     1       0.688  10.835  20.491  0.00  0.00    +0.000 A 
ATOM     21  C   UNL     1       0.888   9.533  20.954  0.00  0.00    +0.000 A 
ATOM     22  C   UNL     1       1.346   8.549  20.081  0.00  0.00    +0.000 A 
ATOM     23  C   UNL     1       1.629   8.846  18.742  0.00  0.00    +0.000 A 
ATOM     24  C   UNL     1       1.461  10.172  18.327  0.00  0.00    +0.000 A 
BRANCH  19  26
ATOM     25  C   UNL     1       1.723  13.524  18.923  0.00  0.00    +0.000 C 
ATOM     26  N   UNL     1       0.726  12.486  18.670  0.00  0.00    +0.000 N 
ATOM     27  C   UNL     1      -0.654  12.936  18.498  0.00  0.00    +0.000 C 
ENDBRANCH  19  26
ENDBRANCH  17  23
ENDBRANCH  16  17
ENDBRANCH  15  16
ENDBRANCH   1  15
TORSDOF 6
ENDMDL
