MODEL 1
REMARK VINA RESULT:      -6.5      0.000      0.000
REMARK  Name = 
REMARK  2 active torsions:
REMARK  status: ('A' for Active; 'I' for Inactive)
REMARK    1  A    between atoms: C_4  and  C_5
REMARK    2  A    between atoms: C_5  and  N_6
REMARK                            x       y       z     vdW  Elec       q    Type
REMARK                         _______ _______ _______ _____ _____    ______ ____
ROOT
ATOM      1  N   UNL     1       4.356   2.832  18.209  0.00  0.00    +0.000 N 
ATOM      2  C   UNL     1       3.330   2.942  19.112  0.00  0.00    +0.000 C 
ATOM      3  N   UNL     1       3.583   2.601  20.332  0.00  0.00    +0.000 NA
ATOM      4  C   UNL     1       2.550   2.674  21.364  0.00  0.00    +0.000 C 
ATOM      5  C   UNL     1       1.434   3.650  21.038  0.00  0.00    +0.000 C 
ATOM      6  C   UNL     1       0.886   3.328  19.662  0.00  0.00    +0.000 C 
ATOM      7  C   UNL     1       1.994   3.494  18.642  0.00  0.00    +0.000 C 
ATOM      8  H   UNL     1       5.236   2.619  18.672  0.00  0.00    +0.000 HD
ENDROOT
BRANCH   1   9
ATOM      9  C   UNL     1       4.492   3.678  17.042  0.00  0.00    +0.000 C 
BRANCH   9  13
ATOM     10  C   UNL     1       7.310   6.874  17.727  0.00  0.00    +0.000 A 
ATOM     11  C   UNL     1       7.585   5.591  18.193  0.00  0.00    +0.000 A 
ATOM     12  C   UNL     1       6.668   4.559  17.982  0.00  0.00    +0.000 A 
ATOM     13  C   UNL     1       5.464   4.801  17.305  0.00  0.00    +0.000 A 
ATOM     14  C   UNL     1       5.199   6.098  16.841  0.00  0.00    +0.000 A 
ATOM     15  C   UNL     1       6.118   7.129  17.051  0.00  0.00    +0.000 A 
ENDBRANCH   9  13
ENDBRANCH   1   9
TORSDOF 2
ENDMDL
MODEL 2
REMARK VINA RESULT:      -6.5      1.335      5.532
REMARK  Name = 
REMARK  2 active torsions:
REMARK  status: ('A' for Active; 'I' for Inactive)
REMARK    1  A    between atoms: C_4  and  C_5
REMARK    2  A    between atoms: C_5  and  N_6
REMARK                            x       y       z     vdW  Elec       q    Type
REMARK                         _______ _______ _______ _____ _____    ______ ____
ROOT
ATOM      1  N   UNL     1       5.433   3.649  19.262  0.00  0.00    +0.000 N 
ATOM      2  C   UNL     1       5.985   4.780  18.720  0.00  0.00    +0.000 C 
ATOM      3  N   UNL     1       7.155   5.125  19.146  0.00  0.00    +0.000 NA
ATOM      4  C   UNL     1       7.821   6.321  18.633  0.00  0.00    +0.000 C 
ATOM      5  C   UNL     1       7.327   6.752  17.264  0.00  0.00    +0.000 C 
ATOM      6  C   UNL     1       5.817   6.875  17.303  0.00  0.00    +0.000 C 
ATOM      7  C   UNL     1       5.223   5.522  17.634  0.00  0.00    +0.000 C 
ATOM      8  H   UNL     1       6.104   3.151  19.844  0.00  0.00    +0.000 HD
ENDROOT
BRANCH   1   9
ATOM      9  C   UNL     1       4.511   2.787  18.555  0.00  0.00    +0.000 C 
BRANCH   9  13
ATOM     10  C   UNL     1       0.585   3.029  20.332  0.00  0.00    +0.000 A 
ATOM     11  C   UNL     1       1.720   3.101  21.136  0.00  0.00    +0.000 A 
ATOM     12  C   UNL     1       2.990   3.011  20.562  0.00  0.00    +0.000 A 
ATOM     13  C   UNL     1       3.138   2.844  19.178  0.00  0.00    +0.000 A 
ATOM     14  C   UNL     1       1.987   2.773  18.379  0.00  0.00    +0.000 A 
ATOM     15  C   UNL     1       0.717   2.865  18.954  0.00  0.00    +0.000 A 
ENDBRANCH   9  13
ENDBRANCH   1   9
TORSDOF 2
ENDMDL
MODEL 3
REMARK VINA RESULT:      -6.5      1.971      5.625
REMARK  Name = 
REMARK  2 active torsions:
REMARK  status: ('A' for Active; 'I' for Inactive)
REMARK    1  A    between atoms: C_4  and  C_5
REMARK    2  A    between atoms: C_5  and  N_6
REMARK                            x       y       z     vdW  Elec       q    Type
REMARK                         _______ _______ _______ _____ _____    ______ ____
ROOT
ATOM      1  N   UNL     1       4.237   6.284  18.384  0.00  0.00    +0.000 N 
ATOM      2  C   UNL     1       5.243   5.771  17.606  0.00  0.00    +0.000 C 
ATOM      3  N   UNL     1       6.302   5.354  18.216  0.00  0.00    +0.000 NA
ATOM      4  C   UNL     1       7.431   4.799  17.472  0.00  0.00    +0.000 C 
ATOM      5  C   UNL     1       7.051   4.261  16.104  0.00  0.00    +0.000 C 
ATOM      6  C   UNL     1       6.302   5.337  15.344  0.00  0.00    +0.000 C 
ATOM      7  C   UNL     1       5.036   5.682  16.102  0.00  0.00    +0.000 C 
ATOM      8  H   UNL     1       4.420   6.133  19.373  0.00  0.00    +0.000 HD
ENDROOT
BRANCH   1   9
ATOM      9  C   UNL     1       2.836   6.225  18.026  0.00  0.00    +0.000 C 
BRANCH   9  13
ATOM     10  C   UNL     1       0.835   2.911  19.933  0.00  0.00    +0.000 A 
ATOM     11  C   UNL     1       1.256   4.001  20.691  0.00  0.00    +0.000 A 
ATOM     12  C   UNL     1       1.914   5.068  20.076  0.00  0.00    +0.000 A 
ATOM     13  C   UNL     1       2.161   5.054  18.696  0.00  0.00    +0.000 A 
ATOM     14  C   UNL     1       1.732   3.950  17.944  0.00  0.00    +0.000 A 
ATOM     15  C   UNL     1       1.072   2.885  18.560  0.00  0.00    +0.000 A 
ENDBRANCH   9  13
ENDBRANCH   1   9
TORSDOF 2
ENDMDL
MODEL 4
REMARK VINA RESULT:      -6.5      0.627      1.407
REMARK  Name = 
REMARK  2 active torsions:
REMARK  status: ('A' for Active; 'I' for Inactive)
REMARK    1  A    between atoms: C_4  and  C_5
REMARK    2  A    between atoms: C_5  and  N_6
REMARK                            x       y       z     vdW  Elec       q    Type
REMARK                         _______ _______ _______ _____ _____    ______ ____
ROOT
ATOM      1  N   UNL     1       4.604   3.205  18.460  0.00  0.00    +0.000 N 
ATOM      2  C   UNL     1       3.388   3.082  19.083  0.00  0.00    +0.000 C 
ATOM      3  N   UNL     1       3.400   2.818  20.347  0.00  0.00    +0.000 NA
ATOM      4  C   UNL     1       2.154   2.660  21.095  0.00  0.00    +0.000 C 
ATOM      5  C   UNL     1       0.966   3.350  20.450  0.00  0.00    +0.000 C 
ATOM      6  C   UNL     1       0.861   2.899  19.006  0.00  0.00    +0.000 C 
ATOM      7  C   UNL     1       2.122   3.308  18.272  0.00  0.00    +0.000 C 
ATOM      8  H   UNL     1       5.367   3.204  19.134  0.00  0.00    +0.000 HD
ENDROOT
BRANCH   1   9
ATOM      9  C   UNL     1       4.834   4.050  17.308  0.00  0.00    +0.000 C 
BRANCH   9  13
ATOM     10  C   UNL     1       7.831   7.025  18.199  0.00  0.00    +0.000 A 
ATOM     11  C   UNL     1       6.874   7.272  17.218  0.00  0.00    +0.000 A 
ATOM     12  C   UNL     1       5.912   6.305  16.922  0.00  0.00    +0.000 A 
ATOM     13  C   UNL     1       5.899   5.077  17.601  0.00  0.00    +0.000 A 
ATOM     14  C   UNL     1       6.868   4.842  18.587  0.00  0.00    +0.000 A 
ATOM     15  C   UNL     1       7.829   5.811  18.884  0.00  0.00    +0.000 A 
ENDBRANCH   9  13
ENDBRANCH   1   9
TORSDOF 2
ENDMDL
MODEL 5
REMARK VINA RESULT:      -6.5      1.943      5.617
REMARK  Name = 
REMARK  2 active torsions:
REMARK  status: ('A' for Active; 'I' for Inactive)
REMARK    1  A    between atoms: C_4  and  C_5
REMARK    2  A    between atoms: C_5  and  N_6
REMARK                            x       y       z     vdW  Elec       q    Type
REMARK                         _______ _______ _______ _____ _____    ______ ____
ROOT
ATOM      1  N   UNL     1       4.087   6.361  18.555  0.00  0.00    +0.000 N 
ATOM      2  C   UNL     1       5.129   5.861  17.816  0.00  0.00    +0.000 C 
ATOM      3  N   UNL     1       6.177   5.479  18.465  0.00  0.00    +0.000 NA
ATOM      4  C   UNL     1       7.342   4.941  17.764  0.00  0.00    +0.000 C 
ATOM      5  C   UNL     1       7.019   4.374  16.394  0.00  0.00    +0.000 C 
ATOM      6  C   UNL     1       6.267   5.421  15.595  0.00  0.00    +0.000 C 
ATOM      7  C   UNL     1       4.971   5.745  16.308  0.00  0.00    +0.000 C 
ATOM      8  H   UNL     1       4.242   6.228  19.551  0.00  0.00    +0.000 HD
ENDROOT
BRANCH   1   9
ATOM      9  C   UNL     1       2.700   6.262  18.155  0.00  0.00    +0.000 C 
BRANCH   9  13
ATOM     10  C   UNL     1       0.918   2.743  19.906  0.00  0.00    +0.000 A 
ATOM     11  C   UNL     1       1.148   2.798  18.534  0.00  0.00    +0.000 A 
ATOM     12  C   UNL     1       1.714   3.941  17.966  0.00  0.00    +0.000 A 
ATOM     13  C   UNL     1       2.052   5.043  18.764  0.00  0.00    +0.000 A 
ATOM     14  C   UNL     1       1.815   4.975  20.145  0.00  0.00    +0.000 A 
ATOM     15  C   UNL     1       1.251   3.830  20.713  0.00  0.00    +0.000 A 
ENDBRANCH   9  13
ENDBRANCH   1   9
TORSDOF 2
ENDMDL
MODEL 6
REMARK VINA RESULT:      -6.4      3.510      6.189
REMARK  Name = 
REMARK  2 active torsions:
REMARK  status: ('A' for Active; 'I' for Inactive)
REMARK    1  A    between atoms: C_4  and  C_5
REMARK    2  A    between atoms: C_5  and  N_6
REMARK                            x       y       z     vdW  Elec       q    Type
REMARK                         _______ _______ _______ _____ _____    ______ ____
ROOT
ATOM      1  N   UNL     1       7.133   5.503  15.782  0.00  0.00    +0.000 N 
ATOM      2  C   UNL     1       6.962   5.009  14.514  0.00  0.00    +0.000 C 
ATOM      3  N   UNL     1       7.784   5.421  13.608  0.00  0.00    +0.000 NA
ATOM      4  C   UNL     1       7.675   4.958  12.226  0.00  0.00    +0.000 C 
ATOM      5  C   UNL     1       6.956   3.629  12.085  0.00  0.00    +0.000 C 
ATOM      6  C   UNL     1       5.620   3.717  12.796  0.00  0.00    +0.000 C 
ATOM      7  C   UNL     1       5.864   3.988  14.267  0.00  0.00    +0.000 C 
ATOM      8  H   UNL     1       7.996   6.037  15.858  0.00  0.00    +0.000 HD
ENDROOT
BRANCH   1   9
ATOM      9  C   UNL     1       6.782   4.774  16.982  0.00  0.00    +0.000 C 
BRANCH   9  13
ATOM     10  C   UNL     1       2.712   5.661  18.108  0.00  0.00    +0.000 A 
ATOM     11  C   UNL     1       3.601   6.698  17.834  0.00  0.00    +0.000 A 
ATOM     12  C   UNL     1       4.921   6.411  17.481  0.00  0.00    +0.000 A 
ATOM     13  C   UNL     1       5.367   5.084  17.402  0.00  0.00    +0.000 A 
ATOM     14  C   UNL     1       4.461   4.049  17.680  0.00  0.00    +0.000 A 
ATOM     15  C   UNL     1       3.140   4.337  18.031  0.00  0.00    +0.000 A 
ENDBRANCH   9  13
ENDBRANCH   1   9
TORSDOF 2
ENDMDL
MODEL 7
REMARK VINA RESULT:      -6.4      2.036      5.737
REMARK  Name = 
REMARK  2 active torsions:
REMARK  status: ('A' for Active; 'I' for Inactive)
REMARK    1  A    between atoms: C_4  and  C_5
REMARK    2  A    between atoms: C_5  and  N_6
REMARK                            x       y       z     vdW  Elec       q    Type
REMARK                         _______ _______ _______ _____ _____    ______ ____
ROOT
ATOM      1  N   UNL     1       3.700   6.198  17.551  0.00  0.00    +0.000 N 
ATOM      2  C   UNL     1       5.046   6.122  17.804  0.00  0.00    +0.000 C 
ATOM      3  N   UNL     1       5.842   6.514  16.866  0.00  0.00    +0.000 NA
ATOM      4  C   UNL     1       7.293   6.462  17.039  0.00  0.00    +0.000 C 
ATOM      5  C   UNL     1       7.731   6.465  18.493  0.00  0.00    +0.000 C 
ATOM      6  C   UNL     1       6.999   5.360  19.229  0.00  0.00    +0.000 C 
ATOM      7  C   UNL     1       5.510   5.634  19.167  0.00  0.00    +0.000 C 
ATOM      8  H   UNL     1       3.514   6.696  16.683  0.00  0.00    +0.000 HD
ENDROOT
BRANCH   1   9
ATOM      9  C   UNL     1       2.701   6.405  18.577  0.00  0.00    +0.000 C 
BRANCH   9  13
ATOM     10  C   UNL     1       0.870   2.685  19.778  0.00  0.00    +0.000 A 
ATOM     11  C   UNL     1       1.165   3.657  20.731  0.00  0.00    +0.000 A 
ATOM     12  C   UNL     1       1.768   4.855  20.344  0.00  0.00    +0.000 A 
ATOM     13  C   UNL     1       2.086   5.093  18.999  0.00  0.00    +0.000 A 
ATOM     14  C   UNL     1       1.783   4.107  18.049  0.00  0.00    +0.000 A 
ATOM     15  C   UNL     1       1.178   2.909  18.437  0.00  0.00    +0.000 A 
ENDBRANCH   9  13
ENDBRANCH   1   9
TORSDOF 2
ENDMDL
MODEL 8
REMARK VINA RESULT:      -6.4      1.470      5.474
REMARK  Name = 
REMARK  2 active torsions:
REMARK  status: ('A' for Active; 'I' for Inactive)
REMARK    1  A    between atoms: C_4  and  C_5
REMARK    2  A    between atoms: C_5  and  N_6
REMARK                            x       y       z     vdW  Elec       q    Type
REMARK                         _______ _______ _______ _____ _____    ______ ____
ROOT
ATOM      1  N   UNL     1       4.580   2.807  17.631  0.00  0.00    +0.000 N 
ATOM      2  C   UNL     1       4.870   4.084  17.222  0.00  0.00    +0.000 C 
ATOM      3  N   UNL     1       6.017   4.273  16.660  0.00  0.00    +0.000 NA
ATOM      4  C   UNL     1       6.420   5.600  16.199  0.00  0.00    +0.000 C 
ATOM      5  C   UNL     1       5.251   6.529  15.927  0.00  0.00    +0.000 C 
ATOM      6  C   UNL     1       4.357   6.565  17.150  0.00  0.00    +0.000 C 
ATOM      7  C   UNL     1       3.824   5.170  17.408  0.00  0.00    +0.000 C 
ATOM      8  H   UNL     1       5.277   2.145  17.300  0.00  0.00    +0.000 HD
ENDROOT
BRANCH   1   9
ATOM      9  C   UNL     1       3.238   2.271  17.694  0.00  0.00    +0.000 C 
BRANCH   9  13
ATOM     10  C   UNL     1       1.379   3.089  21.503  0.00  0.00    +0.000 A 
ATOM     11  C   UNL     1       0.646   3.222  20.326  0.00  0.00    +0.000 A 
ATOM     12  C   UNL     1       1.250   2.969  19.094  0.00  0.00    +0.000 A 
ATOM     13  C   UNL     1       2.597   2.583  19.024  0.00  0.00    +0.000 A 
ATOM     14  C   UNL     1       3.324   2.452  20.216  0.00  0.00    +0.000 A 
ATOM     15  C   UNL     1       2.718   2.704  21.449  0.00  0.00    +0.000 A 
ENDBRANCH   9  13
ENDBRANCH   1   9
TORSDOF 2
ENDMDL
MODEL 9
REMARK VINA RESULT:      -6.3      1.533      5.320
REMARK  Name = 
REMARK  2 active torsions:
REMARK  status: ('A' for Active; 'I' for Inactive)
REMARK    1  A    between atoms: C_4  and  C_5
REMARK    2  A    between atoms: C_5  and  N_6
REMARK                            x       y       z     vdW  Elec       q    Type
REMARK                         _______ _______ _______ _____ _____    ______ ____
ROOT
ATOM      1  N   UNL     1       4.412   2.732  17.500  0.00  0.00    +0.000 N 
ATOM      2  C   UNL     1       4.747   4.015  17.150  0.00  0.00    +0.000 C 
ATOM      3  N   UNL     1       5.871   4.181  16.536  0.00  0.00    +0.000 NA
ATOM      4  C   UNL     1       6.319   5.512  16.130  0.00  0.00    +0.000 C 
ATOM      5  C   UNL     1       5.187   6.513  15.979  0.00  0.00    +0.000 C 
ATOM      6  C   UNL     1       4.363   6.518  17.251  0.00  0.00    +0.000 C 
ATOM      7  C   UNL     1       3.771   5.139  17.457  0.00  0.00    +0.000 C 
ATOM      8  H   UNL     1       5.055   2.057  17.092  0.00  0.00    +0.000 HD
ENDROOT
BRANCH   1   9
ATOM      9  C   UNL     1       3.049   2.260  17.607  0.00  0.00    +0.000 C 
BRANCH   9  13
ATOM     10  C   UNL     1       1.489   3.105  21.541  0.00  0.00    +0.000 A 
ATOM     11  C   UNL     1       2.814   2.706  21.388  0.00  0.00    +0.000 A 
ATOM     12  C   UNL     1       3.316   2.422  20.117  0.00  0.00    +0.000 A 
ATOM     13  C   UNL     1       2.495   2.529  18.984  0.00  0.00    +0.000 A 
ATOM     14  C   UNL     1       1.162   2.932  19.152  0.00  0.00    +0.000 A 
ATOM     15  C   UNL     1       0.662   3.218  20.425  0.00  0.00    +0.000 A 
ENDBRANCH   9  13
ENDBRANCH   1   9
TORSDOF 2
ENDMDL
