MODEL 1
REMARK VINA RESULT:      -7.4      0.000      0.000
REMARK  Name = 
REMARK  2 active torsions:
REMARK  status: ('A' for Active; 'I' for Inactive)
REMARK    1  A    between atoms: C_1  and  C_2
REMARK    2  A    between atoms: C_3  and  C_4
REMARK                            x       y       z     vdW  Elec       q    Type
REMARK                         _______ _______ _______ _____ _____    ______ ____
ROOT
ATOM      1  C   UNL     1       4.009   6.924  17.510  0.00  0.00    +0.000 C 
ATOM      2  C   UNL     1       3.378   6.101  18.595  0.00  0.00    +0.000 A 
ATOM      3  C   UNL     1       2.468   6.538  19.560  0.00  0.00    +0.000 A 
ATOM      4  S   UNL     1       1.998   5.242  20.601  0.00  0.00    +0.000 S 
ATOM      5  C   UNL     1       2.988   4.122  19.811  0.00  0.00    +0.000 A 
ATOM      6  N   UNL     1       3.051   2.828  20.220  0.00  0.00    +0.000 NA
ATOM      7  C   UNL     1       3.849   2.090  19.522  0.00  0.00    +0.000 A 
ATOM      8  N   UNL     1       4.591   2.531  18.455  0.00  0.00    +0.000 N 
ATOM      9  C   UNL     1       4.559   3.830  18.004  0.00  0.00    +0.000 A 
ATOM     10  O   UNL     1       5.234   4.193  17.047  0.00  0.00    +0.000 OA
ATOM     11  C   UNL     1       3.671   4.695  18.762  0.00  0.00    +0.000 A 
ATOM     12  H   UNL     1       5.199   1.902  17.952  0.00  0.00    +0.000 HD
ENDROOT
BRANCH   3  13
ATOM     13  C   UNL     1       1.889   7.879  19.771  0.00  0.00    +0.000 C 
ATOM     14  O   UNL     1       1.879   8.733  18.890  0.00  0.00    +0.000 OA
ATOM     15  N   UNL     1       1.399   8.077  21.045  0.00  0.00    +0.000 N 
ATOM     16  C   UNL     1       0.792   9.191  21.558  0.00  0.00    +0.000 A 
ATOM     17  N   UNL     1       0.502   9.292  22.838  0.00  0.00    +0.000 NA
ATOM     18  N   UNL     1      -0.106  10.493  23.143  0.00  0.00    +0.000 NA
ATOM     19  C   UNL     1      -0.278  11.231  22.069  0.00  0.00    +0.000 A 
ATOM     20  S   UNL     1       0.300  10.523  20.619  0.00  0.00    +0.000 S 
ATOM     21  H   UNL     1       1.539   7.343  21.726  0.00  0.00    +0.000 HD
ENDBRANCH   3  13
TORSDOF 1
ENDMDL
MODEL 2
REMARK VINA RESULT:      -7.1      1.635      2.248
REMARK  Name = 
REMARK  2 active torsions:
REMARK  status: ('A' for Active; 'I' for Inactive)
REMARK    1  A    between atoms: C_1  and  C_2
REMARK    2  A    between atoms: C_3  and  C_4
REMARK                            x       y       z     vdW  Elec       q    Type
REMARK                         _______ _______ _______ _____ _____    ______ ____
ROOT
ATOM      1  C   UNL     1       1.779   5.164  20.471  0.00  0.00    +0.000 C 
ATOM      2  C   UNL     1       2.574   5.785  19.360  0.00  0.00    +0.000 A 
ATOM      3  C   UNL     1       2.519   7.112  18.927  0.00  0.00    +0.000 A 
ATOM      4  S   UNL     1       3.621   7.385  17.624  0.00  0.00    +0.000 S 
ATOM      5  C   UNL     1       4.154   5.781  17.613  0.00  0.00    +0.000 A 
ATOM      6  N   UNL     1       5.091   5.358  16.725  0.00  0.00    +0.000 NA
ATOM      7  C   UNL     1       5.398   4.107  16.834  0.00  0.00    +0.000 A 
ATOM      8  N   UNL     1       4.850   3.243  17.749  0.00  0.00    +0.000 N 
ATOM      9  C   UNL     1       3.900   3.626  18.668  0.00  0.00    +0.000 A 
ATOM     10  O   UNL     1       3.430   2.830  19.473  0.00  0.00    +0.000 OA
ATOM     11  C   UNL     1       3.526   5.028  18.579  0.00  0.00    +0.000 A 
ATOM     12  H   UNL     1       5.132   2.275  17.782  0.00  0.00    +0.000 HD
ENDROOT
BRANCH   3  13
ATOM     13  C   UNL     1       1.699   8.234  19.425  0.00  0.00    +0.000 C 
ATOM     14  O   UNL     1       1.204   9.066  18.672  0.00  0.00    +0.000 OA
ATOM     15  N   UNL     1       1.578   8.265  20.799  0.00  0.00    +0.000 N 
ATOM     16  C   UNL     1       0.882   9.155  21.570  0.00  0.00    +0.000 A 
ATOM     17  N   UNL     1       0.971   9.150  22.883  0.00  0.00    +0.000 NA
ATOM     18  N   UNL     1       0.189  10.127  23.465  0.00  0.00    +0.000 NA
ATOM     19  C   UNL     1      -0.483  10.806  22.561  0.00  0.00    +0.000 A 
ATOM     20  S   UNL     1      -0.199  10.312  20.945  0.00  0.00    +0.000 S 
ATOM     21  H   UNL     1       2.102   7.588  21.336  0.00  0.00    +0.000 HD
ENDBRANCH   3  13
TORSDOF 1
ENDMDL
MODEL 3
REMARK VINA RESULT:      -6.9      3.784      7.453
REMARK  Name = 
REMARK  2 active torsions:
REMARK  status: ('A' for Active; 'I' for Inactive)
REMARK    1  A    between atoms: C_1  and  C_2
REMARK    2  A    between atoms: C_3  and  C_4
REMARK                            x       y       z     vdW  Elec       q    Type
REMARK                         _______ _______ _______ _____ _____    ______ ____
ROOT
ATOM      1  C   UNL     1       3.733   7.672  17.473  0.00  0.00    +0.000 C 
ATOM      2  C   UNL     1       3.906   6.261  17.954  0.00  0.00    +0.000 A 
ATOM      3  C   UNL     1       4.712   5.273  17.384  0.00  0.00    +0.000 A 
ATOM      4  S   UNL     1       4.610   3.798  18.279  0.00  0.00    +0.000 S 
ATOM      5  C   UNL     1       3.510   4.439  19.392  0.00  0.00    +0.000 A 
ATOM      6  N   UNL     1       3.020   3.683  20.410  0.00  0.00    +0.000 NA
ATOM      7  C   UNL     1       2.189   4.306  21.179  0.00  0.00    +0.000 A 
ATOM      8  N   UNL     1       1.803   5.613  21.018  0.00  0.00    +0.000 N 
ATOM      9  C   UNL     1       2.273   6.416  20.005  0.00  0.00    +0.000 A 
ATOM     10  O   UNL     1       1.908   7.581  19.889  0.00  0.00    +0.000 OA
ATOM     11  C   UNL     1       3.212   5.754  19.116  0.00  0.00    +0.000 A 
ATOM     12  H   UNL     1       1.147   6.041  21.654  0.00  0.00    +0.000 HD
ENDROOT
BRANCH   3  13
ATOM     13  C   UNL     1       5.589   5.338  16.199  0.00  0.00    +0.000 C 
ATOM     14  O   UNL     1       6.500   6.154  16.104  0.00  0.00    +0.000 OA
ATOM     15  N   UNL     1       5.265   4.425  15.218  0.00  0.00    +0.000 N 
ATOM     16  C   UNL     1       5.881   4.216  14.014  0.00  0.00    +0.000 A 
ATOM     17  N   UNL     1       5.375   3.406  13.110  0.00  0.00    +0.000 NA
ATOM     18  N   UNL     1       6.153   3.339  11.972  0.00  0.00    +0.000 NA
ATOM     19  C   UNL     1       7.233   4.081  12.084  0.00  0.00    +0.000 A 
ATOM     20  S   UNL     1       7.368   4.919  13.574  0.00  0.00    +0.000 S 
ATOM     21  H   UNL     1       4.438   3.859  15.352  0.00  0.00    +0.000 HD
ENDBRANCH   3  13
TORSDOF 1
ENDMDL
MODEL 4
REMARK VINA RESULT:      -6.8      3.112      7.352
REMARK  Name = 
REMARK  2 active torsions:
REMARK  status: ('A' for Active; 'I' for Inactive)
REMARK    1  A    between atoms: C_1  and  C_2
REMARK    2  A    between atoms: C_3  and  C_4
REMARK                            x       y       z     vdW  Elec       q    Type
REMARK                         _______ _______ _______ _____ _____    ______ ____
ROOT
ATOM      1  C   UNL     1       1.807   6.397  20.808  0.00  0.00    +0.000 C 
ATOM      2  C   UNL     1       1.831   7.511  19.802  0.00  0.00    +0.000 A 
ATOM      3  C   UNL     1       2.468   7.507  18.559  0.00  0.00    +0.000 A 
ATOM      4  S   UNL     1       2.220   9.003  17.731  0.00  0.00    +0.000 S 
ATOM      5  C   UNL     1       1.302   9.657  18.991  0.00  0.00    +0.000 A 
ATOM      6  N   UNL     1       0.796  10.916  18.911  0.00  0.00    +0.000 NA
ATOM      7  C   UNL     1       0.117  11.281  19.948  0.00  0.00    +0.000 A 
ATOM      8  N   UNL     1      -0.097  10.501  21.057  0.00  0.00    +0.000 N 
ATOM      9  C   UNL     1       0.394   9.223  21.182  0.00  0.00    +0.000 A 
ATOM     10  O   UNL     1       0.184   8.551  22.187  0.00  0.00    +0.000 OA
ATOM     11  C   UNL     1       1.164   8.772  20.035  0.00  0.00    +0.000 A 
ATOM     12  H   UNL     1      -0.636  10.847  21.837  0.00  0.00    +0.000 HD
ENDROOT
BRANCH   3  13
ATOM     13  C   UNL     1       3.262   6.446  17.909  0.00  0.00    +0.000 C 
ATOM     14  O   UNL     1       2.874   5.283  17.850  0.00  0.00    +0.000 OA
ATOM     15  N   UNL     1       4.472   6.883  17.413  0.00  0.00    +0.000 N 
ATOM     16  C   UNL     1       5.427   6.163  16.749  0.00  0.00    +0.000 A 
ATOM     17  N   UNL     1       6.603   6.679  16.459  0.00  0.00    +0.000 NA
ATOM     18  N   UNL     1       7.414   5.786  15.787  0.00  0.00    +0.000 NA
ATOM     19  C   UNL     1       6.798   4.645  15.572  0.00  0.00    +0.000 A 
ATOM     20  S   UNL     1       5.198   4.574  16.182  0.00  0.00    +0.000 S 
ATOM     21  H   UNL     1       4.741   7.840  17.596  0.00  0.00    +0.000 HD
ENDBRANCH   3  13
TORSDOF 1
ENDMDL
MODEL 5
REMARK VINA RESULT:      -6.7      3.977      7.354
REMARK  Name = 
REMARK  2 active torsions:
REMARK  status: ('A' for Active; 'I' for Inactive)
REMARK    1  A    between atoms: C_1  and  C_2
REMARK    2  A    between atoms: C_3  and  C_4
REMARK                            x       y       z     vdW  Elec       q    Type
REMARK                         _______ _______ _______ _____ _____    ______ ____
ROOT
ATOM      1  C   UNL     1       3.483   6.828  18.351  0.00  0.00    +0.000 C 
ATOM      2  C   UNL     1       3.471   5.328  18.315  0.00  0.00    +0.000 A 
ATOM      3  C   UNL     1       4.218   4.502  17.473  0.00  0.00    +0.000 A 
ATOM      4  S   UNL     1       3.893   2.835  17.791  0.00  0.00    +0.000 S 
ATOM      5  C   UNL     1       2.773   3.188  19.008  0.00  0.00    +0.000 A 
ATOM      6  N   UNL     1       2.125   2.198  19.676  0.00  0.00    +0.000 NA
ATOM      7  C   UNL     1       1.299   2.618  20.577  0.00  0.00    +0.000 A 
ATOM      8  N   UNL     1       1.062   3.939  20.866  0.00  0.00    +0.000 N 
ATOM      9  C   UNL     1       1.695   4.975  20.218  0.00  0.00    +0.000 A 
ATOM     10  O   UNL     1       1.461   6.145  20.500  0.00  0.00    +0.000 OA
ATOM     11  C   UNL     1       2.634   4.545  19.196  0.00  0.00    +0.000 A 
ATOM     12  H   UNL     1       0.401   4.203  21.581  0.00  0.00    +0.000 HD
ENDROOT
BRANCH   3  13
ATOM     13  C   UNL     1       5.195   4.858  16.425  0.00  0.00    +0.000 C 
ATOM     14  O   UNL     1       5.984   5.788  16.556  0.00  0.00    +0.000 OA
ATOM     15  N   UNL     1       5.107   4.072  15.295  0.00  0.00    +0.000 N 
ATOM     16  C   UNL     1       5.868   4.130  14.159  0.00  0.00    +0.000 A 
ATOM     17  N   UNL     1       5.579   3.410  13.097  0.00  0.00    +0.000 NA
ATOM     18  N   UNL     1       6.471   3.617  12.065  0.00  0.00    +0.000 NA
ATOM     19  C   UNL     1       7.417   4.464  12.410  0.00  0.00    +0.000 A 
ATOM     20  S   UNL     1       7.277   5.074  14.006  0.00  0.00    +0.000 S 
ATOM     21  H   UNL     1       4.361   3.393  15.247  0.00  0.00    +0.000 HD
ENDBRANCH   3  13
TORSDOF 1
ENDMDL
MODEL 6
REMARK VINA RESULT:      -6.7      2.052      7.302
REMARK  Name = 
REMARK  2 active torsions:
REMARK  status: ('A' for Active; 'I' for Inactive)
REMARK    1  A    between atoms: C_1  and  C_2
REMARK    2  A    between atoms: C_3  and  C_4
REMARK                            x       y       z     vdW  Elec       q    Type
REMARK                         _______ _______ _______ _____ _____    ______ ____
ROOT
ATOM      1  C   UNL     1       0.159   9.829  18.267  0.00  0.00    +0.000 C 
ATOM      2  C   UNL     1       0.344   9.724  19.753  0.00  0.00    +0.000 A 
ATOM      3  C   UNL     1       1.112   8.779  20.439  0.00  0.00    +0.000 A 
ATOM      4  S   UNL     1       1.043   9.046  22.145  0.00  0.00    +0.000 S 
ATOM      5  C   UNL     1       0.006  10.373  21.991  0.00  0.00    +0.000 A 
ATOM      6  N   UNL     1      -0.438  11.048  23.084  0.00  0.00    +0.000 NA
ATOM      7  C   UNL     1      -1.223  12.037  22.813  0.00  0.00    +0.000 A 
ATOM      8  N   UNL     1      -1.606  12.409  21.548  0.00  0.00    +0.000 N 
ATOM      9  C   UNL     1      -1.181  11.757  20.413  0.00  0.00    +0.000 A 
ATOM     10  O   UNL     1      -1.541  12.114  19.297  0.00  0.00    +0.000 OA
ATOM     11  C   UNL     1      -0.294  10.637  20.674  0.00  0.00    +0.000 A 
ATOM     12  H   UNL     1      -2.225  13.192  21.403  0.00  0.00    +0.000 HD
ENDROOT
BRANCH   3  13
ATOM     13  C   UNL     1       1.929   7.667  19.915  0.00  0.00    +0.000 C 
ATOM     14  O   UNL     1       2.633   7.787  18.918  0.00  0.00    +0.000 OA
ATOM     15  N   UNL     1       1.796   6.496  20.632  0.00  0.00    +0.000 N 
ATOM     16  C   UNL     1       2.418   5.296  20.422  0.00  0.00    +0.000 A 
ATOM     17  N   UNL     1       2.087   4.218  21.099  0.00  0.00    +0.000 NA
ATOM     18  N   UNL     1       2.837   3.119  20.732  0.00  0.00    +0.000 NA
ATOM     19  C   UNL     1       3.727   3.428  19.815  0.00  0.00    +0.000 A 
ATOM     20  S   UNL     1       3.703   5.071  19.327  0.00  0.00    +0.000 S 
ATOM     21  H   UNL     1       1.118   6.474  21.382  0.00  0.00    +0.000 HD
ENDBRANCH   3  13
TORSDOF 1
ENDMDL
MODEL 7
REMARK VINA RESULT:      -6.7      2.265      2.809
REMARK  Name = 
REMARK  2 active torsions:
REMARK  status: ('A' for Active; 'I' for Inactive)
REMARK    1  A    between atoms: C_1  and  C_2
REMARK    2  A    between atoms: C_3  and  C_4
REMARK                            x       y       z     vdW  Elec       q    Type
REMARK                         _______ _______ _______ _____ _____    ______ ____
ROOT
ATOM      1  C   UNL     1       2.134   4.805  20.798  0.00  0.00    +0.000 C 
ATOM      2  C   UNL     1       2.693   5.534  19.611  0.00  0.00    +0.000 A 
ATOM      3  C   UNL     1       2.509   6.881  19.289  0.00  0.00    +0.000 A 
ATOM      4  S   UNL     1       3.348   7.292  17.836  0.00  0.00    +0.000 S 
ATOM      5  C   UNL     1       3.933   5.721  17.618  0.00  0.00    +0.000 A 
ATOM      6  N   UNL     1       4.713   5.403  16.551  0.00  0.00    +0.000 NA
ATOM      7  C   UNL     1       5.085   4.166  16.516  0.00  0.00    +0.000 A 
ATOM      8  N   UNL     1       4.744   3.219  17.450  0.00  0.00    +0.000 N 
ATOM      9  C   UNL     1       3.959   3.494  18.545  0.00  0.00    +0.000 A 
ATOM     10  O   UNL     1       3.672   2.626  19.362  0.00  0.00    +0.000 OA
ATOM     11  C   UNL     1       3.519   4.877  18.624  0.00  0.00    +0.000 A 
ATOM     12  H   UNL     1       5.066   2.267  17.364  0.00  0.00    +0.000 HD
ENDROOT
BRANCH   3  13
ATOM     13  C   UNL     1       1.747   7.926  20.002  0.00  0.00    +0.000 C 
ATOM     14  O   UNL     1       1.398   7.797  21.171  0.00  0.00    +0.000 OA
ATOM     15  N   UNL     1       1.448   9.023  19.222  0.00  0.00    +0.000 N 
ATOM     16  C   UNL     1       0.774  10.160  19.577  0.00  0.00    +0.000 A 
ATOM     17  N   UNL     1       0.434  11.068  18.688  0.00  0.00    +0.000 NA
ATOM     18  N   UNL     1      -0.236  12.132  19.257  0.00  0.00    +0.000 NA
ATOM     19  C   UNL     1      -0.342  11.992  20.560  0.00  0.00    +0.000 A 
ATOM     20  S   UNL     1       0.354  10.553  21.180  0.00  0.00    +0.000 S 
ATOM     21  H   UNL     1       1.699   8.991  18.243  0.00  0.00    +0.000 HD
ENDBRANCH   3  13
TORSDOF 1
ENDMDL
MODEL 8
REMARK VINA RESULT:      -6.7      2.093      6.976
REMARK  Name = 
REMARK  2 active torsions:
REMARK  status: ('A' for Active; 'I' for Inactive)
REMARK    1  A    between atoms: C_1  and  C_2
REMARK    2  A    between atoms: C_3  and  C_4
REMARK                            x       y       z     vdW  Elec       q    Type
REMARK                         _______ _______ _______ _____ _____    ______ ____
ROOT
ATOM      1  C   UNL     1       1.701   9.602  17.854  0.00  0.00    +0.000 C 
ATOM      2  C   UNL     1       1.363   9.435  19.307  0.00  0.00    +0.000 A 
ATOM      3  C   UNL     1       1.581   8.302  20.094  0.00  0.00    +0.000 A 
ATOM      4  S   UNL     1       1.045   8.562  21.716  0.00  0.00    +0.000 S 
ATOM      5  C   UNL     1       0.517  10.135  21.390  0.00  0.00    +0.000 A 
ATOM      6  N   UNL     1      -0.051  10.900  22.358  0.00  0.00    +0.000 NA
ATOM      7  C   UNL     1      -0.406  12.078  21.962  0.00  0.00    +0.000 A 
ATOM      8  N   UNL     1      -0.245  12.556  20.686  0.00  0.00    +0.000 N 
ATOM      9  C   UNL     1       0.325  11.819  19.674  0.00  0.00    +0.000 A 
ATOM     10  O   UNL     1       0.454  12.275  18.543  0.00  0.00    +0.000 OA
ATOM     11  C   UNL     1       0.739  10.486  20.078  0.00  0.00    +0.000 A 
ATOM     12  H   UNL     1      -0.546  13.488  20.439  0.00  0.00    +0.000 HD
ENDROOT
BRANCH   3  13
ATOM     13  C   UNL     1       2.185   7.004  19.734  0.00  0.00    +0.000 C 
ATOM     14  O   UNL     1       2.743   6.820  18.657  0.00  0.00    +0.000 OA
ATOM     15  N   UNL     1       2.032   6.033  20.702  0.00  0.00    +0.000 N 
ATOM     16  C   UNL     1       2.482   4.741  20.687  0.00  0.00    +0.000 A 
ATOM     17  N   UNL     1       2.138   3.880  21.621  0.00  0.00    +0.000 NA
ATOM     18  N   UNL     1       2.701   2.636  21.418  0.00  0.00    +0.000 NA
ATOM     19  C   UNL     1       3.475   2.627  20.354  0.00  0.00    +0.000 A 
ATOM     20  S   UNL     1       3.558   4.123  19.522  0.00  0.00    +0.000 S 
ATOM     21  H   UNL     1       1.474   6.258  21.514  0.00  0.00    +0.000 HD
ENDBRANCH   3  13
TORSDOF 1
ENDMDL
MODEL 9
REMARK VINA RESULT:      -6.5      1.775      1.871
REMARK  Name = 
REMARK  2 active torsions:
REMARK  status: ('A' for Active; 'I' for Inactive)
REMARK    1  A    between atoms: C_1  and  C_2
REMARK    2  A    between atoms: C_3  and  C_4
REMARK                            x       y       z     vdW  Elec       q    Type
REMARK                         _______ _______ _______ _____ _____    ______ ____
ROOT
ATOM      1  C   UNL     1       3.525   7.333  17.637  0.00  0.00    +0.000 C 
ATOM      2  C   UNL     1       3.054   6.314  18.634  0.00  0.00    +0.000 A 
ATOM      3  C   UNL     1       2.288   6.550  19.778  0.00  0.00    +0.000 A 
ATOM      4  S   UNL     1       1.971   5.078  20.625  0.00  0.00    +0.000 S 
ATOM      5  C   UNL     1       2.841   4.142  19.518  0.00  0.00    +0.000 A 
ATOM      6  N   UNL     1       2.963   2.798  19.677  0.00  0.00    +0.000 NA
ATOM      7  C   UNL     1       3.657   2.216  18.754  0.00  0.00    +0.000 A 
ATOM      8  N   UNL     1       4.240   2.859  17.691  0.00  0.00    +0.000 N 
ATOM      9  C   UNL     1       4.143   4.216  17.489  0.00  0.00    +0.000 A 
ATOM     10  O   UNL     1       4.676   4.760  16.528  0.00  0.00    +0.000 OA
ATOM     11  C   UNL     1       3.369   4.909  18.505  0.00  0.00    +0.000 A 
ATOM     12  H   UNL     1       4.772   2.346  17.004  0.00  0.00    +0.000 HD
ENDROOT
BRANCH   3  13
ATOM     13  C   UNL     1       1.743   7.816  20.304  0.00  0.00    +0.000 C 
ATOM     14  O   UNL     1       1.678   8.050  21.506  0.00  0.00    +0.000 OA
ATOM     15  N   UNL     1       1.296   8.677  19.323  0.00  0.00    +0.000 N 
ATOM     16  C   UNL     1       0.753   9.925  19.471  0.00  0.00    +0.000 A 
ATOM     17  N   UNL     1       0.235  10.578  18.453  0.00  0.00    +0.000 NA
ATOM     18  N   UNL     1      -0.255  11.815  18.820  0.00  0.00    +0.000 NA
ATOM     19  C   UNL     1      -0.052  12.053  20.097  0.00  0.00    +0.000 A 
ATOM     20  S   UNL     1       0.734  10.784  20.941  0.00  0.00    +0.000 S 
ATOM     21  H   UNL     1       1.307   8.352  18.367  0.00  0.00    +0.000 HD
ENDBRANCH   3  13
TORSDOF 1
ENDMDL
