MODEL 1
REMARK VINA RESULT:      -8.5      0.000      0.000
REMARK  Name = 
REMARK  10 active torsions:
REMARK  status: ('A' for Active; 'I' for Inactive)
REMARK    1  A    between atoms: C_1  and  C_2
REMARK    2  A    between atoms: C_2  and  C_3
REMARK    3  A    between atoms: C_6  and  C_7
REMARK    4  A    between atoms: C_7  and  N_8
REMARK    5  A    between atoms: C_9  and  C_11
REMARK    6  A    between atoms: C_14  and  C_15
REMARK    7  A    between atoms: C_15  and  S_16
REMARK    8  A    between atoms: S_16  and  C_17
REMARK    9  A    between atoms: N_25  and  C_26
REMARK   10  A    between atoms: C_26  and  C_27
REMARK                            x       y       z     vdW  Elec       q    Type
REMARK                         _______ _______ _______ _____ _____    ______ ____
ROOT
ATOM      1  C   UNL     1       2.797   6.065  19.716  0.00  0.00    +0.000 A 
ATOM      2  C   UNL     1       1.900   5.832  20.763  0.00  0.00    +0.000 A 
ATOM      3  C   UNL     1       0.977   6.817  21.138  0.00  0.00    +0.000 A 
ATOM      4  C   UNL     1       0.937   8.058  20.482  0.00  0.00    +0.000 A 
ATOM      5  C   UNL     1       1.845   8.288  19.435  0.00  0.00    +0.000 A 
ATOM      6  C   UNL     1       2.773   7.305  19.064  0.00  0.00    +0.000 A 
ENDROOT
BRANCH   1   8
ATOM      7  N   UNL     1       4.935   5.512  18.664  0.00  0.00    +0.000 N 
ATOM      8  C   UNL     1       3.796   5.038  19.284  0.00  0.00    +0.000 C 
ATOM      9  O   UNL     1       3.591   3.850  19.506  0.00  0.00    +0.000 OA
ATOM     10  H   UNL     1       5.162   6.494  18.738  0.00  0.00    +0.000 HD
BRANCH   7  11
ATOM     11  C   UNL     1       6.002   4.621  18.263  0.00  0.00    +0.000 C 
BRANCH  11  15
ATOM     12  C   UNL     1       6.279   4.243  13.947  0.00  0.00    +0.000 A 
ATOM     13  C   UNL     1       5.093   3.912  14.615  0.00  0.00    +0.000 A 
ATOM     14  C   UNL     1       4.996   4.042  16.005  0.00  0.00    +0.000 A 
ATOM     15  C   UNL     1       6.080   4.517  16.757  0.00  0.00    +0.000 A 
ATOM     16  C   UNL     1       7.261   4.863  16.085  0.00  0.00    +0.000 A 
ATOM     17  C   UNL     1       7.356   4.735  14.694  0.00  0.00    +0.000 A 
BRANCH  12  19
ATOM     18  C   UNL     1       5.323   3.176  11.868  0.00  0.00    +0.000 C 
ATOM     19  C   UNL     1       6.405   4.068  12.455  0.00  0.00    +0.000 C 
ENDBRANCH  12  19
ENDBRANCH  11  15
ENDBRANCH   7  11
ENDBRANCH   1   8
BRANCH   4  20
ATOM     20  C   UNL     1      -0.120   9.080  20.849  0.00  0.00    +0.000 C 
BRANCH  20  21
ATOM     21  S   UNL     1       0.539  10.718  21.325  0.00  0.00    +0.000 S 
BRANCH  21  22
ATOM     22  C   UNL     1      -0.944  11.492  21.802  0.00  0.00    +0.000 A 
ATOM     23  N   UNL     1      -1.406  11.452  23.031  0.00  0.00    +0.000 NA
ATOM     24  C   UNL     1      -2.605  12.109  22.995  0.00  0.00    +0.000 A 
ATOM     25  C   UNL     1      -3.522  12.319  24.023  0.00  0.00    +0.000 A 
ATOM     26  C   UNL     1      -4.670  13.007  23.670  0.00  0.00    +0.000 A 
ATOM     27  N   UNL     1      -4.924  13.503  22.438  0.00  0.00    +0.000 NA
ATOM     28  C   UNL     1      -4.020  13.318  21.448  0.00  0.00    +0.000 A 
ATOM     29  C   UNL     1      -2.866  12.597  21.721  0.00  0.00    +0.000 A 
ATOM     30  N   UNL     1      -1.781  12.192  20.961  0.00  0.00    +0.000 N 
BRANCH  30  31
ATOM     31  C   UNL     1      -1.559  12.568  19.572  0.00  0.00    +0.000 C 
BRANCH  31  32
ATOM     32  C   UNL     1      -2.124  11.584  18.575  0.00  0.00    +0.000 A 
ATOM     33  C   UNL     1      -3.490  11.567  18.253  0.00  0.00    +0.000 A 
ATOM     34  C   UNL     1      -3.985  10.701  17.273  0.00  0.00    +0.000 A 
ATOM     35  C   UNL     1      -3.123   9.841  16.602  0.00  0.00    +0.000 A 
ATOM     36  C   UNL     1      -1.767   9.837  16.918  0.00  0.00    +0.000 A 
ATOM     37  C   UNL     1      -1.271  10.700  17.899  0.00  0.00    +0.000 A 
ENDBRANCH  31  32
ENDBRANCH  30  31
ENDBRANCH  21  22
ENDBRANCH  20  21
ENDBRANCH   4  20
TORSDOF 9
ENDMDL
MODEL 2
REMARK VINA RESULT:      -8.3      3.108     11.899
REMARK  Name = 
REMARK  10 active torsions:
REMARK  status: ('A' for Active; 'I' for Inactive)
REMARK    1  A    between atoms: C_1  and  C_2
REMARK    2  A    between atoms: C_2  and  C_3
REMARK    3  A    between atoms: C_6  and  C_7
REMARK    4  A    between atoms: C_7  and  N_8
REMARK    5  A    between atoms: C_9  and  C_11
REMARK    6  A    between atoms: C_14  and  C_15
REMARK    7  A    between atoms: C_15  and  S_16
REMARK    8  A    between atoms: S_16  and  C_17
REMARK    9  A    between atoms: N_25  and  C_26
REMARK   10  A    between atoms: C_26  and  C_27
REMARK                            x       y       z     vdW  Elec       q    Type
REMARK                         _______ _______ _______ _____ _____    ______ ____
ROOT
ATOM      1  C   UNL     1       0.200  11.874  19.834  0.00  0.00    +0.000 A 
ATOM      2  C   UNL     1      -0.171  10.545  20.059  0.00  0.00    +0.000 A 
ATOM      3  C   UNL     1       0.492   9.503  19.397  0.00  0.00    +0.000 A 
ATOM      4  C   UNL     1       1.531   9.768  18.489  0.00  0.00    +0.000 A 
ATOM      5  C   UNL     1       1.894  11.106  18.264  0.00  0.00    +0.000 A 
ATOM      6  C   UNL     1       1.227  12.148  18.922  0.00  0.00    +0.000 A 
ENDROOT
BRANCH   1   8
ATOM      7  N   UNL     1      -0.520  12.962  21.903  0.00  0.00    +0.000 N 
ATOM      8  C   UNL     1      -0.480  13.014  20.524  0.00  0.00    +0.000 C 
ATOM      9  O   UNL     1      -0.943  13.941  19.869  0.00  0.00    +0.000 OA
ATOM     10  H   UNL     1       0.090  12.318  22.387  0.00  0.00    +0.000 HD
BRANCH   7  11
ATOM     11  C   UNL     1      -1.091  14.038  22.683  0.00  0.00    +0.000 C 
BRANCH  11  15
ATOM     12  C   UNL     1      -5.196  13.097  23.739  0.00  0.00    +0.000 A 
ATOM     13  C   UNL     1      -4.146  12.271  24.160  0.00  0.00    +0.000 A 
ATOM     14  C   UNL     1      -2.820  12.576  23.830  0.00  0.00    +0.000 A 
ATOM     15  C   UNL     1      -2.514  13.721  23.081  0.00  0.00    +0.000 A 
ATOM     16  C   UNL     1      -3.564  14.555  22.674  0.00  0.00    +0.000 A 
ATOM     17  C   UNL     1      -4.890  14.251  23.007  0.00  0.00    +0.000 A 
BRANCH  12  19
ATOM     18  C   UNL     1      -7.527  13.977  24.142  0.00  0.00    +0.000 C 
ATOM     19  C   UNL     1      -6.629  12.754  24.055  0.00  0.00    +0.000 C 
ENDBRANCH  12  19
ENDBRANCH  11  15
ENDBRANCH   7  11
ENDBRANCH   1   8
BRANCH   4  20
ATOM     20  C   UNL     1       2.287   8.624  17.843  0.00  0.00    +0.000 C 
BRANCH  20  21
ATOM     21  S   UNL     1       2.537   7.171  18.924  0.00  0.00    +0.000 S 
BRANCH  21  22
ATOM     22  C   UNL     1       3.711   6.308  17.973  0.00  0.00    +0.000 A 
ATOM     23  N   UNL     1       4.896   6.798  17.687  0.00  0.00    +0.000 NA
ATOM     24  C   UNL     1       5.493   5.869  16.881  0.00  0.00    +0.000 A 
ATOM     25  C   UNL     1       6.743   5.914  16.266  0.00  0.00    +0.000 A 
ATOM     26  C   UNL     1       7.064   4.820  15.482  0.00  0.00    +0.000 A 
ATOM     27  N   UNL     1       6.278   3.732  15.316  0.00  0.00    +0.000 NA
ATOM     28  C   UNL     1       5.075   3.682  15.933  0.00  0.00    +0.000 A 
ATOM     29  C   UNL     1       4.669   4.765  16.700  0.00  0.00    +0.000 A 
ATOM     30  N   UNL     1       3.521   5.064  17.414  0.00  0.00    +0.000 N 
BRANCH  30  31
ATOM     31  C   UNL     1       2.407   4.147  17.608  0.00  0.00    +0.000 C 
BRANCH  31  32
ATOM     32  C   UNL     1       2.341   3.551  18.996  0.00  0.00    +0.000 A 
ATOM     33  C   UNL     1       3.464   2.962  19.597  0.00  0.00    +0.000 A 
ATOM     34  C   UNL     1       3.407   2.484  20.910  0.00  0.00    +0.000 A 
ATOM     35  C   UNL     1       2.228   2.587  21.638  0.00  0.00    +0.000 A 
ATOM     36  C   UNL     1       1.101   3.158  21.053  0.00  0.00    +0.000 A 
ATOM     37  C   UNL     1       1.156   3.634  19.741  0.00  0.00    +0.000 A 
ENDBRANCH  31  32
ENDBRANCH  30  31
ENDBRANCH  21  22
ENDBRANCH  20  21
ENDBRANCH   4  20
TORSDOF 9
ENDMDL
MODEL 3
REMARK VINA RESULT:      -8.1      2.566     11.279
REMARK  Name = 
REMARK  10 active torsions:
REMARK  status: ('A' for Active; 'I' for Inactive)
REMARK    1  A    between atoms: C_1  and  C_2
REMARK    2  A    between atoms: C_2  and  C_3
REMARK    3  A    between atoms: C_6  and  C_7
REMARK    4  A    between atoms: C_7  and  N_8
REMARK    5  A    between atoms: C_9  and  C_11
REMARK    6  A    between atoms: C_14  and  C_15
REMARK    7  A    between atoms: C_15  and  S_16
REMARK    8  A    between atoms: S_16  and  C_17
REMARK    9  A    between atoms: N_25  and  C_26
REMARK   10  A    between atoms: C_26  and  C_27
REMARK                            x       y       z     vdW  Elec       q    Type
REMARK                         _______ _______ _______ _____ _____    ______ ____
ROOT
ATOM      1  C   UNL     1      -0.059  10.485  21.181  0.00  0.00    +0.000 A 
ATOM      2  C   UNL     1      -0.517  10.748  19.886  0.00  0.00    +0.000 A 
ATOM      3  C   UNL     1       0.061  10.103  18.785  0.00  0.00    +0.000 A 
ATOM      4  C   UNL     1       1.115   9.190  18.953  0.00  0.00    +0.000 A 
ATOM      5  C   UNL     1       1.574   8.935  20.256  0.00  0.00    +0.000 A 
ATOM      6  C   UNL     1       1.000   9.584  21.357  0.00  0.00    +0.000 A 
ENDROOT
BRANCH   1   8
ATOM      7  N   UNL     1      -1.023  12.471  22.233  0.00  0.00    +0.000 N 
ATOM      8  C   UNL     1      -0.652  11.150  22.382  0.00  0.00    +0.000 C 
ATOM      9  O   UNL     1      -0.808  10.517  23.421  0.00  0.00    +0.000 OA
ATOM     10  H   UNL     1      -1.106  12.855  21.302  0.00  0.00    +0.000 HD
BRANCH   7  11
ATOM     11  C   UNL     1      -1.668  13.200  23.303  0.00  0.00    +0.000 C 
BRANCH  11  15
ATOM     12  C   UNL     1      -5.979  12.814  22.966  0.00  0.00    +0.000 A 
ATOM     13  C   UNL     1      -5.355  12.749  24.219  0.00  0.00    +0.000 A 
ATOM     14  C   UNL     1      -3.967  12.882  24.332  0.00  0.00    +0.000 A 
ATOM     15  C   UNL     1      -3.172  13.096  23.197  0.00  0.00    +0.000 A 
ATOM     16  C   UNL     1      -3.800  13.178  21.947  0.00  0.00    +0.000 A 
ATOM     17  C   UNL     1      -5.189  13.046  21.834  0.00  0.00    +0.000 A 
BRANCH  12  19
ATOM     18  C   UNL     1      -7.846  11.577  21.802  0.00  0.00    +0.000 C 
ATOM     19  C   UNL     1      -7.470  12.630  22.830  0.00  0.00    +0.000 C 
ENDBRANCH  12  19
ENDBRANCH  11  15
ENDBRANCH   7  11
ENDBRANCH   1   8
BRANCH   4  20
ATOM     20  C   UNL     1       1.674   8.444  17.758  0.00  0.00    +0.000 C 
BRANCH  20  21
ATOM     21  S   UNL     1       3.372   7.806  17.986  0.00  0.00    +0.000 S 
BRANCH  21  22
ATOM     22  C   UNL     1       3.003   6.275  18.727  0.00  0.00    +0.000 A 
ATOM     23  N   UNL     1       1.776   5.888  18.989  0.00  0.00    +0.000 NA
ATOM     24  C   UNL     1       1.899   4.680  19.619  0.00  0.00    +0.000 A 
ATOM     25  C   UNL     1       0.902   3.858  20.142  0.00  0.00    +0.000 A 
ATOM     26  C   UNL     1       1.343   2.695  20.749  0.00  0.00    +0.000 A 
ATOM     27  N   UNL     1       2.637   2.307  20.825  0.00  0.00    +0.000 NA
ATOM     28  C   UNL     1       3.599   3.097  20.295  0.00  0.00    +0.000 A 
ATOM     29  C   UNL     1       3.232   4.300  19.711  0.00  0.00    +0.000 A 
ATOM     30  N   UNL     1       3.934   5.342  19.127  0.00  0.00    +0.000 N 
BRANCH  30  31
ATOM     31  C   UNL     1       5.371   5.341  18.895  0.00  0.00    +0.000 C 
BRANCH  31  32
ATOM     32  C   UNL     1       5.757   5.025  17.468  0.00  0.00    +0.000 A 
ATOM     33  C   UNL     1       6.914   5.565  16.883  0.00  0.00    +0.000 A 
ATOM     34  C   UNL     1       7.298   5.203  15.588  0.00  0.00    +0.000 A 
ATOM     35  C   UNL     1       6.533   4.299  14.861  0.00  0.00    +0.000 A 
ATOM     36  C   UNL     1       5.376   3.764  15.422  0.00  0.00    +0.000 A 
ATOM     37  C   UNL     1       4.990   4.126  16.714  0.00  0.00    +0.000 A 
ENDBRANCH  31  32
ENDBRANCH  30  31
ENDBRANCH  21  22
ENDBRANCH  20  21
ENDBRANCH   4  20
TORSDOF 9
ENDMDL
MODEL 4
REMARK VINA RESULT:      -8.1      1.400      3.676
REMARK  Name = 
REMARK  10 active torsions:
REMARK  status: ('A' for Active; 'I' for Inactive)
REMARK    1  A    between atoms: C_1  and  C_2
REMARK    2  A    between atoms: C_2  and  C_3
REMARK    3  A    between atoms: C_6  and  C_7
REMARK    4  A    between atoms: C_7  and  N_8
REMARK    5  A    between atoms: C_9  and  C_11
REMARK    6  A    between atoms: C_14  and  C_15
REMARK    7  A    between atoms: C_15  and  S_16
REMARK    8  A    between atoms: S_16  and  C_17
REMARK    9  A    between atoms: N_25  and  C_26
REMARK   10  A    between atoms: C_26  and  C_27
REMARK                            x       y       z     vdW  Elec       q    Type
REMARK                         _______ _______ _______ _____ _____    ______ ____
ROOT
ATOM      1  C   UNL     1       2.419   6.687  19.348  0.00  0.00    +0.000 A 
ATOM      2  C   UNL     1       2.370   7.852  18.576  0.00  0.00    +0.000 A 
ATOM      3  C   UNL     1       1.779   9.015  19.087  0.00  0.00    +0.000 A 
ATOM      4  C   UNL     1       1.216   9.037  20.374  0.00  0.00    +0.000 A 
ATOM      5  C   UNL     1       1.264   7.861  21.141  0.00  0.00    +0.000 A 
ATOM      6  C   UNL     1       1.850   6.696  20.629  0.00  0.00    +0.000 A 
ENDROOT
BRANCH   1   8
ATOM      7  N   UNL     1       4.418   5.339  18.941  0.00  0.00    +0.000 N 
ATOM      8  C   UNL     1       3.044   5.426  18.841  0.00  0.00    +0.000 C 
ATOM      9  O   UNL     1       2.341   4.529  18.391  0.00  0.00    +0.000 OA
ATOM     10  H   UNL     1       4.909   5.986  19.542  0.00  0.00    +0.000 HD
BRANCH   7  11
ATOM     11  C   UNL     1       5.130   4.142  18.546  0.00  0.00    +0.000 C 
BRANCH  11  15
ATOM     12  C   UNL     1       6.740   4.648  14.547  0.00  0.00    +0.000 A 
ATOM     13  C   UNL     1       7.552   4.848  15.671  0.00  0.00    +0.000 A 
ATOM     14  C   UNL     1       7.039   4.676  16.962  0.00  0.00    +0.000 A 
ATOM     15  C   UNL     1       5.705   4.290  17.157  0.00  0.00    +0.000 A 
ATOM     16  C   UNL     1       4.899   4.074  16.031  0.00  0.00    +0.000 A 
ATOM     17  C   UNL     1       5.413   4.244  14.740  0.00  0.00    +0.000 A 
BRANCH  12  19
ATOM     18  C   UNL     1       6.748   3.858  12.148  0.00  0.00    +0.000 C 
ATOM     19  C   UNL     1       7.273   4.870  13.154  0.00  0.00    +0.000 C 
ENDBRANCH  12  19
ENDBRANCH  11  15
ENDBRANCH   7  11
ENDBRANCH   1   8
BRANCH   4  20
ATOM     20  C   UNL     1       0.652  10.325  20.937  0.00  0.00    +0.000 C 
BRANCH  20  21
ATOM     21  S   UNL     1       0.594  11.713  19.748  0.00  0.00    +0.000 S 
BRANCH  21  22
ATOM     22  C   UNL     1      -1.036  11.521  19.169  0.00  0.00    +0.000 A 
ATOM     23  N   UNL     1      -1.406  10.523  18.399  0.00  0.00    +0.000 NA
ATOM     24  C   UNL     1      -2.722  10.753  18.107  0.00  0.00    +0.000 A 
ATOM     25  C   UNL     1      -3.582  10.017  17.294  0.00  0.00    +0.000 A 
ATOM     26  C   UNL     1      -4.866  10.519  17.172  0.00  0.00    +0.000 A 
ATOM     27  N   UNL     1      -5.327  11.622  17.805  0.00  0.00    +0.000 NA
ATOM     28  C   UNL     1      -4.495  12.321  18.611  0.00  0.00    +0.000 A 
ATOM     29  C   UNL     1      -3.180  11.899  18.745  0.00  0.00    +0.000 A 
ATOM     30  N   UNL     1      -2.078  12.384  19.429  0.00  0.00    +0.000 N 
BRANCH  30  31
ATOM     31  C   UNL     1      -2.104  13.521  20.337  0.00  0.00    +0.000 C 
BRANCH  31  32
ATOM     32  C   UNL     1      -2.800  13.239  21.649  0.00  0.00    +0.000 A 
ATOM     33  C   UNL     1      -4.037  13.822  21.965  0.00  0.00    +0.000 A 
ATOM     34  C   UNL     1      -4.705  13.492  23.149  0.00  0.00    +0.000 A 
ATOM     35  C   UNL     1      -4.144  12.577  24.032  0.00  0.00    +0.000 A 
ATOM     36  C   UNL     1      -2.912  11.999  23.740  0.00  0.00    +0.000 A 
ATOM     37  C   UNL     1      -2.243  12.329  22.559  0.00  0.00    +0.000 A 
ENDBRANCH  31  32
ENDBRANCH  30  31
ENDBRANCH  21  22
ENDBRANCH  20  21
ENDBRANCH   4  20
TORSDOF 9
ENDMDL
MODEL 5
REMARK VINA RESULT:      -7.9      2.722     11.563
REMARK  Name = 
REMARK  10 active torsions:
REMARK  status: ('A' for Active; 'I' for Inactive)
REMARK    1  A    between atoms: C_1  and  C_2
REMARK    2  A    between atoms: C_2  and  C_3
REMARK    3  A    between atoms: C_6  and  C_7
REMARK    4  A    between atoms: C_7  and  N_8
REMARK    5  A    between atoms: C_9  and  C_11
REMARK    6  A    between atoms: C_14  and  C_15
REMARK    7  A    between atoms: C_15  and  S_16
REMARK    8  A    between atoms: S_16  and  C_17
REMARK    9  A    between atoms: N_25  and  C_26
REMARK   10  A    between atoms: C_26  and  C_27
REMARK                            x       y       z     vdW  Elec       q    Type
REMARK                         _______ _______ _______ _____ _____    ______ ____
ROOT
ATOM      1  C   UNL     1       0.234  10.056  21.385  0.00  0.00    +0.000 A 
ATOM      2  C   UNL     1       0.750   8.828  21.809  0.00  0.00    +0.000 A 
ATOM      3  C   UNL     1       1.446   8.005  20.913  0.00  0.00    +0.000 A 
ATOM      4  C   UNL     1       1.632   8.388  19.574  0.00  0.00    +0.000 A 
ATOM      5  C   UNL     1       1.105   9.620  19.154  0.00  0.00    +0.000 A 
ATOM      6  C   UNL     1       0.405  10.441  20.049  0.00  0.00    +0.000 A 
ENDROOT
BRANCH   1   8
ATOM      7  N   UNL     1      -0.840  12.211  21.817  0.00  0.00    +0.000 N 
ATOM      8  C   UNL     1      -0.511  10.964  22.311  0.00  0.00    +0.000 C 
ATOM      9  O   UNL     1      -0.818  10.580  23.434  0.00  0.00    +0.000 OA
ATOM     10  H   UNL     1      -0.789  12.372  20.821  0.00  0.00    +0.000 HD
BRANCH   7  11
ATOM     11  C   UNL     1      -1.618  13.151  22.594  0.00  0.00    +0.000 C 
BRANCH  11  15
ATOM     12  C   UNL     1      -5.827  12.770  21.603  0.00  0.00    +0.000 A 
ATOM     13  C   UNL     1      -5.428  13.026  22.921  0.00  0.00    +0.000 A 
ATOM     14  C   UNL     1      -4.072  13.159  23.243  0.00  0.00    +0.000 A 
ATOM     15  C   UNL     1      -3.086  13.051  22.251  0.00  0.00    +0.000 A 
ATOM     16  C   UNL     1      -3.489  12.810  20.931  0.00  0.00    +0.000 A 
ATOM     17  C   UNL     1      -4.845  12.680  20.609  0.00  0.00    +0.000 A 
BRANCH  12  19
ATOM     18  C   UNL     1      -7.702  13.364  20.019  0.00  0.00    +0.000 C 
ATOM     19  C   UNL     1      -7.283  12.585  21.254  0.00  0.00    +0.000 C 
ENDBRANCH  12  19
ENDBRANCH  11  15
ENDBRANCH   7  11
ENDBRANCH   1   8
BRANCH   4  20
ATOM     20  C   UNL     1       2.454   7.521  18.642  0.00  0.00    +0.000 C 
BRANCH  20  21
ATOM     21  S   UNL     1       3.391   6.188  19.472  0.00  0.00    +0.000 S 
BRANCH  21  22
ATOM     22  C   UNL     1       4.333   5.622  18.123  0.00  0.00    +0.000 A 
ATOM     23  N   UNL     1       5.471   6.173  17.767  0.00  0.00    +0.000 NA
ATOM     24  C   UNL     1       5.869   5.502  16.643  0.00  0.00    +0.000 A 
ATOM     25  C   UNL     1       6.990   5.716  15.844  0.00  0.00    +0.000 A 
ATOM     26  C   UNL     1       7.112   4.880  14.747  0.00  0.00    +0.000 A 
ATOM     27  N   UNL     1       6.256   3.879  14.442  0.00  0.00    +0.000 NA
ATOM     28  C   UNL     1       5.181   3.660  15.234  0.00  0.00    +0.000 A 
ATOM     29  C   UNL     1       4.972   4.489  16.326  0.00  0.00    +0.000 A 
ATOM     30  N   UNL     1       3.985   4.578  17.293  0.00  0.00    +0.000 N 
BRANCH  30  31
ATOM     31  C   UNL     1       2.880   3.642  17.434  0.00  0.00    +0.000 C 
BRANCH  31  32
ATOM     32  C   UNL     1       2.515   3.340  18.869  0.00  0.00    +0.000 A 
ATOM     33  C   UNL     1       1.232   3.606  19.373  0.00  0.00    +0.000 A 
ATOM     34  C   UNL     1       0.888   3.251  20.681  0.00  0.00    +0.000 A 
ATOM     35  C   UNL     1       1.820   2.627  21.502  0.00  0.00    +0.000 A 
ATOM     36  C   UNL     1       3.100   2.367  21.022  0.00  0.00    +0.000 A 
ATOM     37  C   UNL     1       3.447   2.723  19.717  0.00  0.00    +0.000 A 
ENDBRANCH  31  32
ENDBRANCH  30  31
ENDBRANCH  21  22
ENDBRANCH  20  21
ENDBRANCH   4  20
TORSDOF 9
ENDMDL
MODEL 6
REMARK VINA RESULT:      -7.9      1.997      3.521
REMARK  Name = 
REMARK  10 active torsions:
REMARK  status: ('A' for Active; 'I' for Inactive)
REMARK    1  A    between atoms: C_1  and  C_2
REMARK    2  A    between atoms: C_2  and  C_3
REMARK    3  A    between atoms: C_6  and  C_7
REMARK    4  A    between atoms: C_7  and  N_8
REMARK    5  A    between atoms: C_9  and  C_11
REMARK    6  A    between atoms: C_14  and  C_15
REMARK    7  A    between atoms: C_15  and  S_16
REMARK    8  A    between atoms: S_16  and  C_17
REMARK    9  A    between atoms: N_25  and  C_26
REMARK   10  A    between atoms: C_26  and  C_27
REMARK                            x       y       z     vdW  Elec       q    Type
REMARK                         _______ _______ _______ _____ _____    ______ ____
ROOT
ATOM      1  C   UNL     1       2.398   6.996  19.575  0.00  0.00    +0.000 A 
ATOM      2  C   UNL     1       1.771   7.237  20.801  0.00  0.00    +0.000 A 
ATOM      3  C   UNL     1       1.033   8.411  21.000  0.00  0.00    +0.000 A 
ATOM      4  C   UNL     1       0.915   9.373  19.983  0.00  0.00    +0.000 A 
ATOM      5  C   UNL     1       1.553   9.126  18.756  0.00  0.00    +0.000 A 
ATOM      6  C   UNL     1       2.296   7.954  18.559  0.00  0.00    +0.000 A 
ENDROOT
BRANCH   1   8
ATOM      7  N   UNL     1       4.518   5.930  18.981  0.00  0.00    +0.000 N 
ATOM      8  C   UNL     1       3.192   5.753  19.322  0.00  0.00    +0.000 C 
ATOM      9  O   UNL     1       2.667   4.653  19.445  0.00  0.00    +0.000 OA
ATOM     10  H   UNL     1       4.951   6.828  19.143  0.00  0.00    +0.000 HD
BRANCH   7  11
ATOM     11  C   UNL     1       5.402   4.803  18.778  0.00  0.00    +0.000 C 
BRANCH  11  15
ATOM     12  C   UNL     1       6.295   4.155  14.579  0.00  0.00    +0.000 A 
ATOM     13  C   UNL     1       5.062   3.757  15.114  0.00  0.00    +0.000 A 
ATOM     14  C   UNL     1       4.767   3.973  16.465  0.00  0.00    +0.000 A 
ATOM     15  C   UNL     1       5.693   4.603  17.309  0.00  0.00    +0.000 A 
ATOM     16  C   UNL     1       6.919   5.014  16.768  0.00  0.00    +0.000 A 
ATOM     17  C   UNL     1       7.213   4.799  15.416  0.00  0.00    +0.000 A 
BRANCH  12  19
ATOM     18  C   UNL     1       5.454   3.380  12.328  0.00  0.00    +0.000 C 
ATOM     19  C   UNL     1       6.637   3.889  13.135  0.00  0.00    +0.000 C 
ENDBRANCH  12  19
ENDBRANCH  11  15
ENDBRANCH   7  11
ENDBRANCH   1   8
BRANCH   4  20
ATOM     20  C   UNL     1       0.048  10.598  20.190  0.00  0.00    +0.000 C 
BRANCH  20  21
ATOM     21  S   UNL     1      -0.424  10.910  21.929  0.00  0.00    +0.000 S 
BRANCH  21  22
ATOM     22  C   UNL     1      -0.494  12.648  21.897  0.00  0.00    +0.000 A 
ATOM     23  N   UNL     1       0.551  13.408  22.134  0.00  0.00    +0.000 NA
ATOM     24  C   UNL     1       0.090  14.694  22.082  0.00  0.00    +0.000 A 
ATOM     25  C   UNL     1       0.781  15.884  22.301  0.00  0.00    +0.000 A 
ATOM     26  C   UNL     1       0.029  17.041  22.200  0.00  0.00    +0.000 A 
ATOM     27  N   UNL     1      -1.283  17.082  21.874  0.00  0.00    +0.000 NA
ATOM     28  C   UNL     1      -1.945  15.926  21.639  0.00  0.00    +0.000 A 
ATOM     29  C   UNL     1      -1.263  14.725  21.767  0.00  0.00    +0.000 A 
ATOM     30  N   UNL     1      -1.625  13.393  21.648  0.00  0.00    +0.000 N 
BRANCH  30  31
ATOM     31  C   UNL     1      -2.936  12.929  21.217  0.00  0.00    +0.000 C 
BRANCH  31  32
ATOM     32  C   UNL     1      -3.958  12.868  22.329  0.00  0.00    +0.000 A 
ATOM     33  C   UNL     1      -5.323  13.084  22.086  0.00  0.00    +0.000 A 
ATOM     34  C   UNL     1      -6.265  12.949  23.111  0.00  0.00    +0.000 A 
ATOM     35  C   UNL     1      -5.855  12.597  24.392  0.00  0.00    +0.000 A 
ATOM     36  C   UNL     1      -4.503  12.391  24.653  0.00  0.00    +0.000 A 
ATOM     37  C   UNL     1      -3.561  12.528  23.631  0.00  0.00    +0.000 A 
ENDBRANCH  31  32
ENDBRANCH  30  31
ENDBRANCH  21  22
ENDBRANCH  20  21
ENDBRANCH   4  20
TORSDOF 9
ENDMDL
MODEL 7
REMARK VINA RESULT:      -7.9      1.756      3.704
REMARK  Name = 
REMARK  10 active torsions:
REMARK  status: ('A' for Active; 'I' for Inactive)
REMARK    1  A    between atoms: C_1  and  C_2
REMARK    2  A    between atoms: C_2  and  C_3
REMARK    3  A    between atoms: C_6  and  C_7
REMARK    4  A    between atoms: C_7  and  N_8
REMARK    5  A    between atoms: C_9  and  C_11
REMARK    6  A    between atoms: C_14  and  C_15
REMARK    7  A    between atoms: C_15  and  S_16
REMARK    8  A    between atoms: S_16  and  C_17
REMARK    9  A    between atoms: N_25  and  C_26
REMARK   10  A    between atoms: C_26  and  C_27
REMARK                            x       y       z     vdW  Elec       q    Type
REMARK                         _______ _______ _______ _____ _____    ______ ____
ROOT
ATOM      1  C   UNL     1       2.373   6.619  19.409  0.00  0.00    +0.000 A 
ATOM      2  C   UNL     1       1.855   6.645  20.707  0.00  0.00    +0.000 A 
ATOM      3  C   UNL     1       1.239   7.802  21.201  0.00  0.00    +0.000 A 
ATOM      4  C   UNL     1       1.138   8.961  20.413  0.00  0.00    +0.000 A 
ATOM      5  C   UNL     1       1.666   8.929  19.112  0.00  0.00    +0.000 A 
ATOM      6  C   UNL     1       2.287   7.773  18.620  0.00  0.00    +0.000 A 
ENDROOT
BRANCH   1   8
ATOM      7  N   UNL     1       4.405   5.324  18.987  0.00  0.00    +0.000 N 
ATOM      8  C   UNL     1       3.034   5.402  18.843  0.00  0.00    +0.000 C 
ATOM      9  O   UNL     1       2.360   4.528  18.309  0.00  0.00    +0.000 OA
ATOM     10  H   UNL     1       4.864   5.936  19.648  0.00  0.00    +0.000 HD
BRANCH   7  11
ATOM     11  C   UNL     1       5.147   4.165  18.541  0.00  0.00    +0.000 C 
BRANCH  11  15
ATOM     12  C   UNL     1       6.741   4.681  14.536  0.00  0.00    +0.000 A 
ATOM     13  C   UNL     1       5.413   4.278  14.727  0.00  0.00    +0.000 A 
ATOM     14  C   UNL     1       4.892   4.119  16.016  0.00  0.00    +0.000 A 
ATOM     15  C   UNL     1       5.685   4.373  17.145  0.00  0.00    +0.000 A 
ATOM     16  C   UNL     1       7.009   4.791  16.952  0.00  0.00    +0.000 A 
ATOM     17  C   UNL     1       7.528   4.951  15.662  0.00  0.00    +0.000 A 
BRANCH  12  19
ATOM     18  C   UNL     1       6.741   3.814  12.165  0.00  0.00    +0.000 C 
ATOM     19  C   UNL     1       7.322   4.814  13.152  0.00  0.00    +0.000 C 
ENDBRANCH  12  19
ENDBRANCH  11  15
ENDBRANCH   7  11
ENDBRANCH   1   8
BRANCH   4  20
ATOM     20  C   UNL     1       0.400  10.176  20.937  0.00  0.00    +0.000 C 
BRANCH  20  21
ATOM     21  S   UNL     1       0.539  11.663  19.882  0.00  0.00    +0.000 S 
BRANCH  21  22
ATOM     22  C   UNL     1      -0.955  11.525  18.999  0.00  0.00    +0.000 A 
ATOM     23  N   UNL     1      -1.027  10.999  17.797  0.00  0.00    +0.000 NA
ATOM     24  C   UNL     1      -2.334  11.128  17.418  0.00  0.00    +0.000 A 
ATOM     25  C   UNL     1      -2.938  10.767  16.215  0.00  0.00    +0.000 A 
ATOM     26  C   UNL     1      -4.290  11.047  16.116  0.00  0.00    +0.000 A 
ATOM     27  N   UNL     1      -5.038  11.595  17.100  0.00  0.00    +0.000 NA
ATOM     28  C   UNL     1      -4.452  11.923  18.275  0.00  0.00    +0.000 A 
ATOM     29  C   UNL     1      -3.090  11.710  18.427  0.00  0.00    +0.000 A 
ATOM     30  N   UNL     1      -2.184  11.960  19.444  0.00  0.00    +0.000 N 
BRANCH  30  31
ATOM     31  C   UNL     1      -2.539  12.470  20.760  0.00  0.00    +0.000 C 
BRANCH  31  32
ATOM     32  C   UNL     1      -2.711  13.971  20.807  0.00  0.00    +0.000 A 
ATOM     33  C   UNL     1      -3.887  14.561  21.298  0.00  0.00    +0.000 A 
ATOM     34  C   UNL     1      -4.001  15.951  21.404  0.00  0.00    +0.000 A 
ATOM     35  C   UNL     1      -2.944  16.768  21.022  0.00  0.00    +0.000 A 
ATOM     36  C   UNL     1      -1.776  16.199  20.521  0.00  0.00    +0.000 A 
ATOM     37  C   UNL     1      -1.661  14.812  20.412  0.00  0.00    +0.000 A 
ENDBRANCH  31  32
ENDBRANCH  30  31
ENDBRANCH  21  22
ENDBRANCH  20  21
ENDBRANCH   4  20
TORSDOF 9
ENDMDL
MODEL 8
REMARK VINA RESULT:      -7.9      1.626      3.877
REMARK  Name = 
REMARK  10 active torsions:
REMARK  status: ('A' for Active; 'I' for Inactive)
REMARK    1  A    between atoms: C_1  and  C_2
REMARK    2  A    between atoms: C_2  and  C_3
REMARK    3  A    between atoms: C_6  and  C_7
REMARK    4  A    between atoms: C_7  and  N_8
REMARK    5  A    between atoms: C_9  and  C_11
REMARK    6  A    between atoms: C_14  and  C_15
REMARK    7  A    between atoms: C_15  and  S_16
REMARK    8  A    between atoms: S_16  and  C_17
REMARK    9  A    between atoms: N_25  and  C_26
REMARK   10  A    between atoms: C_26  and  C_27
REMARK                            x       y       z     vdW  Elec       q    Type
REMARK                         _______ _______ _______ _____ _____    ______ ____
ROOT
ATOM      1  C   UNL     1       1.798   7.530  20.034  0.00  0.00    +0.000 A 
ATOM      2  C   UNL     1       1.802   8.439  18.971  0.00  0.00    +0.000 A 
ATOM      3  C   UNL     1       1.177   9.686  19.104  0.00  0.00    +0.000 A 
ATOM      4  C   UNL     1       0.527  10.047  20.296  0.00  0.00    +0.000 A 
ATOM      5  C   UNL     1       0.522   9.126  21.357  0.00  0.00    +0.000 A 
ATOM      6  C   UNL     1       1.142   7.877  21.222  0.00  0.00    +0.000 A 
ENDROOT
BRANCH   1   8
ATOM      7  N   UNL     1       3.631   6.136  19.210  0.00  0.00    +0.000 N 
ATOM      8  C   UNL     1       2.456   6.191  19.934  0.00  0.00    +0.000 C 
ATOM      9  O   UNL     1       1.964   5.220  20.498  0.00  0.00    +0.000 OA
ATOM     10  H   UNL     1       4.112   6.997  18.991  0.00  0.00    +0.000 HD
BRANCH   7  11
ATOM     11  C   UNL     1       4.393   4.911  19.099  0.00  0.00    +0.000 C 
BRANCH  11  15
ATOM     12  C   UNL     1       6.337   4.709  15.223  0.00  0.00    +0.000 A 
ATOM     13  C   UNL     1       6.568   5.795  16.078  0.00  0.00    +0.000 A 
ATOM     14  C   UNL     1       5.950   5.859  17.333  0.00  0.00    +0.000 A 
ATOM     15  C   UNL     1       5.098   4.833  17.765  0.00  0.00    +0.000 A 
ATOM     16  C   UNL     1       4.881   3.740  16.914  0.00  0.00    +0.000 A 
ATOM     17  C   UNL     1       5.500   3.676  15.660  0.00  0.00    +0.000 A 
BRANCH  12  19
ATOM     18  C   UNL     1       6.224   3.731  12.898  0.00  0.00    +0.000 C 
ATOM     19  C   UNL     1       6.965   4.652  13.853  0.00  0.00    +0.000 C 
ENDBRANCH  12  19
ENDBRANCH  11  15
ENDBRANCH   7  11
ENDBRANCH   1   8
BRANCH   4  20
ATOM     20  C   UNL     1      -0.074  11.430  20.447  0.00  0.00    +0.000 C 
BRANCH  20  21
ATOM     21  S   UNL     1      -0.502  12.248  18.869  0.00  0.00    +0.000 S 
BRANCH  21  22
ATOM     22  C   UNL     1      -2.229  12.037  18.900  0.00  0.00    +0.000 A 
ATOM     23  N   UNL     1      -2.846  11.105  18.209  0.00  0.00    +0.000 NA
ATOM     24  C   UNL     1      -4.180  11.299  18.440  0.00  0.00    +0.000 A 
ATOM     25  C   UNL     1      -5.271  10.607  17.916  0.00  0.00    +0.000 A 
ATOM     26  C   UNL     1      -6.516  11.056  18.323  0.00  0.00    +0.000 A 
ATOM     27  N   UNL     1      -6.723  12.066  19.198  0.00  0.00    +0.000 NA
ATOM     28  C   UNL     1      -5.661  12.720  19.722  0.00  0.00    +0.000 A 
ATOM     29  C   UNL     1      -4.384  12.351  19.324  0.00  0.00    +0.000 A 
ATOM     30  N   UNL     1      -3.112  12.817  19.613  0.00  0.00    +0.000 N 
BRANCH  30  31
ATOM     31  C   UNL     1      -2.816  13.855  20.591  0.00  0.00    +0.000 C 
BRANCH  31  32
ATOM     32  C   UNL     1      -3.246  13.509  21.997  0.00  0.00    +0.000 A 
ATOM     33  C   UNL     1      -4.188  14.286  22.690  0.00  0.00    +0.000 A 
ATOM     34  C   UNL     1      -4.633  13.911  23.961  0.00  0.00    +0.000 A 
ATOM     35  C   UNL     1      -4.142  12.755  24.558  0.00  0.00    +0.000 A 
ATOM     36  C   UNL     1      -3.198  11.979  23.890  0.00  0.00    +0.000 A 
ATOM     37  C   UNL     1      -2.751  12.354  22.621  0.00  0.00    +0.000 A 
ENDBRANCH  31  32
ENDBRANCH  30  31
ENDBRANCH  21  22
ENDBRANCH  20  21
ENDBRANCH   4  20
TORSDOF 9
ENDMDL
MODEL 9
REMARK VINA RESULT:      -7.8      3.113     11.561
REMARK  Name = 
REMARK  10 active torsions:
REMARK  status: ('A' for Active; 'I' for Inactive)
REMARK    1  A    between atoms: C_1  and  C_2
REMARK    2  A    between atoms: C_2  and  C_3
REMARK    3  A    between atoms: C_6  and  C_7
REMARK    4  A    between atoms: C_7  and  N_8
REMARK    5  A    between atoms: C_9  and  C_11
REMARK    6  A    between atoms: C_14  and  C_15
REMARK    7  A    between atoms: C_15  and  S_16
REMARK    8  A    between atoms: S_16  and  C_17
REMARK    9  A    between atoms: N_25  and  C_26
REMARK   10  A    between atoms: C_26  and  C_27
REMARK                            x       y       z     vdW  Elec       q    Type
REMARK                         _______ _______ _______ _____ _____    ______ ____
ROOT
ATOM      1  C   UNL     1      -0.002  10.137  21.270  0.00  0.00    +0.000 A 
ATOM      2  C   UNL     1      -0.127  10.781  20.034  0.00  0.00    +0.000 A 
ATOM      3  C   UNL     1       0.554  10.295  18.911  0.00  0.00    +0.000 A 
ATOM      4  C   UNL     1       1.382   9.163  19.000  0.00  0.00    +0.000 A 
ATOM      5  C   UNL     1       1.507   8.526  20.245  0.00  0.00    +0.000 A 
ATOM      6  C   UNL     1       0.830   9.015  21.370  0.00  0.00    +0.000 A 
ENDROOT
BRANCH   1   8
ATOM      7  N   UNL     1      -1.280  11.880  22.415  0.00  0.00    +0.000 N 
ATOM      8  C   UNL     1      -0.716  10.623  22.491  0.00  0.00    +0.000 C 
ATOM      9  O   UNL     1      -0.798   9.905  23.482  0.00  0.00    +0.000 OA
ATOM     10  H   UNL     1      -1.400  12.310  21.508  0.00  0.00    +0.000 HD
BRANCH   7  11
ATOM     11  C   UNL     1      -2.052  12.430  23.508  0.00  0.00    +0.000 C 
BRANCH  11  15
ATOM     12  C   UNL     1      -6.183  13.112  22.361  0.00  0.00    +0.000 A 
ATOM     13  C   UNL     1      -5.195  12.931  21.385  0.00  0.00    +0.000 A 
ATOM     14  C   UNL     1      -3.864  12.702  21.750  0.00  0.00    +0.000 A 
ATOM     15  C   UNL     1      -3.493  12.636  23.101  0.00  0.00    +0.000 A 
ATOM     16  C   UNL     1      -4.486  12.801  24.076  0.00  0.00    +0.000 A 
ATOM     17  C   UNL     1      -5.818  13.029  23.710  0.00  0.00    +0.000 A 
BRANCH  12  19
ATOM     18  C   UNL     1      -7.860  13.281  20.481  0.00  0.00    +0.000 C 
ATOM     19  C   UNL     1      -7.612  13.401  21.976  0.00  0.00    +0.000 C 
ENDBRANCH  12  19
ENDBRANCH  11  15
ENDBRANCH   7  11
ENDBRANCH   1   8
BRANCH   4  20
ATOM     20  C   UNL     1       2.048   8.607  17.757  0.00  0.00    +0.000 C 
BRANCH  20  21
ATOM     21  S   UNL     1       1.848   6.804  17.530  0.00  0.00    +0.000 S 
BRANCH  21  22
ATOM     22  C   UNL     1       3.510   6.312  17.682  0.00  0.00    +0.000 A 
ATOM     23  N   UNL     1       4.497   7.169  17.815  0.00  0.00    +0.000 NA
ATOM     24  C   UNL     1       5.637   6.414  17.838  0.00  0.00    +0.000 A 
ATOM     25  C   UNL     1       6.965   6.831  17.923  0.00  0.00    +0.000 A 
ATOM     26  C   UNL     1       7.912   5.822  17.899  0.00  0.00    +0.000 A 
ATOM     27  N   UNL     1       7.630   4.501  17.839  0.00  0.00    +0.000 NA
ATOM     28  C   UNL     1       6.340   4.099  17.780  0.00  0.00    +0.000 A 
ATOM     29  C   UNL     1       5.339   5.059  17.755  0.00  0.00    +0.000 A 
ATOM     30  N   UNL     1       3.958   5.010  17.657  0.00  0.00    +0.000 N 
BRANCH  30  31
ATOM     31  C   UNL     1       3.174   3.784  17.657  0.00  0.00    +0.000 C 
BRANCH  31  32
ATOM     32  C   UNL     1       2.638   3.403  19.018  0.00  0.00    +0.000 A 
ATOM     33  C   UNL     1       3.458   2.812  19.992  0.00  0.00    +0.000 A 
ATOM     34  C   UNL     1       2.967   2.534  21.271  0.00  0.00    +0.000 A 
ATOM     35  C   UNL     1       1.650   2.842  21.594  0.00  0.00    +0.000 A 
ATOM     36  C   UNL     1       0.820   3.417  20.636  0.00  0.00    +0.000 A 
ATOM     37  C   UNL     1       1.308   3.693  19.356  0.00  0.00    +0.000 A 
ENDBRANCH  31  32
ENDBRANCH  30  31
ENDBRANCH  21  22
ENDBRANCH  20  21
ENDBRANCH   4  20
TORSDOF 9
ENDMDL
