MODEL 1
REMARK VINA RESULT:      -8.9      0.000      0.000
REMARK  Name = 
REMARK  7 active torsions:
REMARK  status: ('A' for Active; 'I' for Inactive)
REMARK    1  A    between atoms: C_2  and  C_3
REMARK    2  A    between atoms: C_3  and  N_4
REMARK    3  A    between atoms: C_9  and  S_10
REMARK    4  A    between atoms: S_10  and  C_11
REMARK    5  A    between atoms: N_22  and  C_23
REMARK    6  A    between atoms: C_23  and  C_24
REMARK    7  A    between atoms: C_27  and  C_28
REMARK                            x       y       z     vdW  Elec       q    Type
REMARK                         _______ _______ _______ _____ _____    ______ ____
ROOT
ATOM      1  N   UNL     1       2.776   5.850  19.484  0.00  0.00    +0.000 N 
ATOM      2  N   UNL     1       3.146   6.576  18.363  0.00  0.00    +0.000 NA
ATOM      3  C   UNL     1       2.501   7.695  18.496  0.00  0.00    +0.000 A 
ATOM      4  C   UNL     1       2.516   8.846  17.587  0.00  0.00    +0.000 A 
ATOM      5  C   UNL     1       1.802   9.926  17.928  0.00  0.00    +0.000 A 
ATOM      6  C   UNL     1       1.050   9.873  19.209  0.00  0.00    +0.000 A 
ATOM      7  N   UNL     1       1.006   8.862  20.016  0.00  0.00    +0.000 NA
ATOM      8  N   UNL     1       1.736   7.784  19.611  0.00  0.00    +0.000 N 
ATOM      9  C   UNL     1       1.889   6.591  20.294  0.00  0.00    +0.000 A 
ATOM     10  O   UNL     1       1.406   6.233  21.357  0.00  0.00    +0.000 OA
ENDROOT
BRANCH   1  11
ATOM     11  C   UNL     1       3.195   4.485  19.717  0.00  0.00    +0.000 C 
BRANCH  11  13
ATOM     12  O   UNL     1       5.256   3.242  19.770  0.00  0.00    +0.000 OA
ATOM     13  C   UNL     1       4.625   4.175  19.273  0.00  0.00    +0.000 C 
ATOM     14  N   UNL     1       5.144   4.987  18.292  0.00  0.00    +0.000 N 
ATOM     15  H   UNL     1       4.535   5.675  17.871  0.00  0.00    +0.000 HD
BRANCH  14  16
ATOM     16  C   UNL     1       6.488   4.847  17.781  0.00  0.00    +0.000 C 
BRANCH  16  17
ATOM     17  C   UNL     1       6.528   4.522  16.305  0.00  0.00    +0.000 A 
ATOM     18  C   UNL     1       5.646   3.598  15.726  0.00  0.00    +0.000 A 
ATOM     19  C   UNL     1       5.668   3.352  14.349  0.00  0.00    +0.000 A 
ATOM     20  C   UNL     1       6.561   4.037  13.515  0.00  0.00    +0.000 A 
ATOM     21  C   UNL     1       7.428   4.980  14.087  0.00  0.00    +0.000 A 
ATOM     22  C   UNL     1       7.408   5.222  15.465  0.00  0.00    +0.000 A 
BRANCH  20  23
ATOM     23  C   UNL     1       6.592   3.783  12.027  0.00  0.00    +0.000 C 
ATOM     24  F   UNL     1       7.181   2.604  11.683  0.00  0.00    +0.000 F 
ATOM     25  F   UNL     1       5.346   3.751  11.477  0.00  0.00    +0.000 F 
ATOM     26  F   UNL     1       7.271   4.751  11.348  0.00  0.00    +0.000 F 
ENDBRANCH  20  23
ENDBRANCH  16  17
ENDBRANCH  14  16
ENDBRANCH  11  13
ENDBRANCH   1  11
BRANCH   6  27
ATOM     27  S   UNL     1       0.242  11.366  19.633  0.00  0.00    +0.000 S 
BRANCH  27  28
ATOM     28  C   UNL     1      -1.374  11.141  18.916  0.00  0.00    +0.000 A 
ATOM     29  C   UNL     1      -1.550  10.151  17.936  0.00  0.00    +0.000 A 
ATOM     30  C   UNL     1      -2.797   9.957  17.333  0.00  0.00    +0.000 A 
ATOM     31  C   UNL     1      -3.874  10.761  17.699  0.00  0.00    +0.000 A 
ATOM     32  C   UNL     1      -3.689  11.757  18.650  0.00  0.00    +0.000 A 
ATOM     33  F   UNL     1      -4.722  12.541  18.985  0.00  0.00    +0.000 F 
ATOM     34  C   UNL     1      -2.452  11.958  19.258  0.00  0.00    +0.000 A 
ENDBRANCH  27  28
ENDBRANCH   6  27
TORSDOF 7
ENDMDL
MODEL 2
REMARK VINA RESULT:      -8.7      3.583     11.742
REMARK  Name = 
REMARK  7 active torsions:
REMARK  status: ('A' for Active; 'I' for Inactive)
REMARK    1  A    between atoms: C_2  and  C_3
REMARK    2  A    between atoms: C_3  and  N_4
REMARK    3  A    between atoms: C_9  and  S_10
REMARK    4  A    between atoms: S_10  and  C_11
REMARK    5  A    between atoms: N_22  and  C_23
REMARK    6  A    between atoms: C_23  and  C_24
REMARK    7  A    between atoms: C_27  and  C_28
REMARK                            x       y       z     vdW  Elec       q    Type
REMARK                         _______ _______ _______ _____ _____    ______ ____
ROOT
ATOM      1  N   UNL     1       1.580   9.012  19.559  0.00  0.00    +0.000 N 
ATOM      2  N   UNL     1       1.460   8.115  20.609  0.00  0.00    +0.000 NA
ATOM      3  C   UNL     1       1.806   6.979  20.083  0.00  0.00    +0.000 A 
ATOM      4  C   UNL     1       1.861   5.671  20.744  0.00  0.00    +0.000 A 
ATOM      5  C   UNL     1       2.281   4.621  20.028  0.00  0.00    +0.000 A 
ATOM      6  C   UNL     1       2.662   4.868  18.612  0.00  0.00    +0.000 A 
ATOM      7  N   UNL     1       2.603   6.008  18.002  0.00  0.00    +0.000 NA
ATOM      8  N   UNL     1       2.152   7.038  18.774  0.00  0.00    +0.000 N 
ATOM      9  C   UNL     1       2.020   8.358  18.387  0.00  0.00    +0.000 A 
ATOM     10  O   UNL     1       2.242   8.881  17.306  0.00  0.00    +0.000 OA
ENDROOT
BRANCH   1  11
ATOM     11  C   UNL     1       1.211  10.406  19.662  0.00  0.00    +0.000 C 
BRANCH  11  13
ATOM     12  O   UNL     1      -0.977   9.833  18.840  0.00  0.00    +0.000 OA
ATOM     13  C   UNL     1      -0.243  10.708  19.297  0.00  0.00    +0.000 C 
ATOM     14  N   UNL     1      -0.668  11.996  19.522  0.00  0.00    +0.000 N 
ATOM     15  H   UNL     1      -0.034  12.635  19.983  0.00  0.00    +0.000 HD
BRANCH  14  16
ATOM     16  C   UNL     1      -2.002  12.453  19.206  0.00  0.00    +0.000 C 
BRANCH  16  17
ATOM     17  C   UNL     1      -2.873  12.623  20.430  0.00  0.00    +0.000 A 
ATOM     18  C   UNL     1      -4.249  12.872  20.330  0.00  0.00    +0.000 A 
ATOM     19  C   UNL     1      -5.043  12.975  21.478  0.00  0.00    +0.000 A 
ATOM     20  C   UNL     1      -4.483  12.814  22.752  0.00  0.00    +0.000 A 
ATOM     21  C   UNL     1      -3.111  12.542  22.854  0.00  0.00    +0.000 A 
ATOM     22  C   UNL     1      -2.317  12.443  21.705  0.00  0.00    +0.000 A 
BRANCH  20  23
ATOM     23  C   UNL     1      -5.330  12.920  23.996  0.00  0.00    +0.000 C 
ATOM     24  F   UNL     1      -5.628  14.201  24.352  0.00  0.00    +0.000 F 
ATOM     25  F   UNL     1      -6.527  12.281  23.870  0.00  0.00    +0.000 F 
ATOM     26  F   UNL     1      -4.727  12.363  25.085  0.00  0.00    +0.000 F 
ENDBRANCH  20  23
ENDBRANCH  16  17
ENDBRANCH  14  16
ENDBRANCH  11  13
ENDBRANCH   1  11
BRANCH   6  27
ATOM     27  S   UNL     1       3.310   3.468  17.786  0.00  0.00    +0.000 S 
BRANCH  27  28
ATOM     28  C   UNL     1       4.934   4.026  17.308  0.00  0.00    +0.000 A 
ATOM     29  C   UNL     1       5.267   4.053  15.945  0.00  0.00    +0.000 A 
ATOM     30  C   UNL     1       6.538   4.464  15.529  0.00  0.00    +0.000 A 
ATOM     31  C   UNL     1       7.488   4.838  16.477  0.00  0.00    +0.000 A 
ATOM     32  C   UNL     1       7.162   4.783  17.827  0.00  0.00    +0.000 A 
ATOM     33  F   UNL     1       8.084   5.125  18.736  0.00  0.00    +0.000 F 
ATOM     34  C   UNL     1       5.899   4.378  18.252  0.00  0.00    +0.000 A 
ENDBRANCH  27  28
ENDBRANCH   6  27
TORSDOF 7
ENDMDL
MODEL 3
REMARK VINA RESULT:      -8.7      5.258      9.919
REMARK  Name = 
REMARK  7 active torsions:
REMARK  status: ('A' for Active; 'I' for Inactive)
REMARK    1  A    between atoms: C_2  and  C_3
REMARK    2  A    between atoms: C_3  and  N_4
REMARK    3  A    between atoms: C_9  and  S_10
REMARK    4  A    between atoms: S_10  and  C_11
REMARK    5  A    between atoms: N_22  and  C_23
REMARK    6  A    between atoms: C_23  and  C_24
REMARK    7  A    between atoms: C_27  and  C_28
REMARK                            x       y       z     vdW  Elec       q    Type
REMARK                         _______ _______ _______ _____ _____    ______ ____
ROOT
ATOM      1  N   UNL     1      -0.279  10.528  21.506  0.00  0.00    +0.000 N 
ATOM      2  N   UNL     1      -0.347  10.807  20.150  0.00  0.00    +0.000 NA
ATOM      3  C   UNL     1       0.455   9.936  19.617  0.00  0.00    +0.000 A 
ATOM      4  C   UNL     1       0.774   9.772  18.195  0.00  0.00    +0.000 A 
ATOM      5  C   UNL     1       1.606   8.782  17.847  0.00  0.00    +0.000 A 
ATOM      6  C   UNL     1       2.139   7.922  18.937  0.00  0.00    +0.000 A 
ATOM      7  N   UNL     1       1.888   8.061  20.199  0.00  0.00    +0.000 NA
ATOM      8  N   UNL     1       1.050   9.095  20.497  0.00  0.00    +0.000 N 
ATOM      9  C   UNL     1       0.593   9.447  21.754  0.00  0.00    +0.000 A 
ATOM     10  O   UNL     1       0.844   8.952  22.842  0.00  0.00    +0.000 OA
ENDROOT
BRANCH   1  11
ATOM     11  C   UNL     1      -0.958  11.316  22.512  0.00  0.00    +0.000 C 
BRANCH  11  13
ATOM     12  O   UNL     1      -0.309  13.547  23.141  0.00  0.00    +0.000 OA
ATOM     13  C   UNL     1      -0.859  12.828  22.307  0.00  0.00    +0.000 C 
ATOM     14  N   UNL     1      -1.406  13.319  21.145  0.00  0.00    +0.000 N 
ATOM     15  H   UNL     1      -1.760  12.657  20.468  0.00  0.00    +0.000 HD
BRANCH  14  16
ATOM     16  C   UNL     1      -1.422  14.725  20.813  0.00  0.00    +0.000 C 
BRANCH  16  17
ATOM     17  C   UNL     1      -0.216  15.155  20.009  0.00  0.00    +0.000 A 
ATOM     18  C   UNL     1       0.969  14.407  19.993  0.00  0.00    +0.000 A 
ATOM     19  C   UNL     1       2.053  14.798  19.201  0.00  0.00    +0.000 A 
ATOM     20  C   UNL     1       1.973  15.938  18.391  0.00  0.00    +0.000 A 
ATOM     21  C   UNL     1       0.780  16.677  18.386  0.00  0.00    +0.000 A 
ATOM     22  C   UNL     1      -0.303  16.286  19.182  0.00  0.00    +0.000 A 
BRANCH  20  23
ATOM     23  C   UNL     1       3.135  16.368  17.530  0.00  0.00    +0.000 C 
ATOM     24  F   UNL     1       3.561  15.408  16.662  0.00  0.00    +0.000 F 
ATOM     25  F   UNL     1       2.844  17.458  16.765  0.00  0.00    +0.000 F 
ATOM     26  F   UNL     1       4.228  16.715  18.266  0.00  0.00    +0.000 F 
ENDBRANCH  20  23
ENDBRANCH  16  17
ENDBRANCH  14  16
ENDBRANCH  11  13
ENDBRANCH   1  11
BRANCH   6  27
ATOM     27  S   UNL     1       3.122   6.584  18.383  0.00  0.00    +0.000 S 
BRANCH  27  28
ATOM     28  C   UNL     1       2.366   5.193  19.203  0.00  0.00    +0.000 A 
ATOM     29  C   UNL     1       2.662   4.959  20.554  0.00  0.00    +0.000 A 
ATOM     30  C   UNL     1       2.107   3.866  21.227  0.00  0.00    +0.000 A 
ATOM     31  C   UNL     1       1.261   2.993  20.548  0.00  0.00    +0.000 A 
ATOM     32  C   UNL     1       0.991   3.214  19.202  0.00  0.00    +0.000 A 
ATOM     33  F   UNL     1       0.192   2.361  18.548  0.00  0.00    +0.000 F 
ATOM     34  C   UNL     1       1.537   4.300  18.523  0.00  0.00    +0.000 A 
ENDBRANCH  27  28
ENDBRANCH   6  27
TORSDOF 7
ENDMDL
MODEL 4
REMARK VINA RESULT:      -8.6      3.556      4.276
REMARK  Name = 
REMARK  7 active torsions:
REMARK  status: ('A' for Active; 'I' for Inactive)
REMARK    1  A    between atoms: C_2  and  C_3
REMARK    2  A    between atoms: C_3  and  N_4
REMARK    3  A    between atoms: C_9  and  S_10
REMARK    4  A    between atoms: S_10  and  C_11
REMARK    5  A    between atoms: N_22  and  C_23
REMARK    6  A    between atoms: C_23  and  C_24
REMARK    7  A    between atoms: C_27  and  C_28
REMARK                            x       y       z     vdW  Elec       q    Type
REMARK                         _______ _______ _______ _____ _____    ______ ____
ROOT
ATOM      1  N   UNL     1       2.503   5.270  19.442  0.00  0.00    +0.000 N 
ATOM      2  N   UNL     1       1.960   5.747  20.624  0.00  0.00    +0.000 NA
ATOM      3  C   UNL     1       1.737   7.002  20.375  0.00  0.00    +0.000 A 
ATOM      4  C   UNL     1       1.166   8.003  21.283  0.00  0.00    +0.000 A 
ATOM      5  C   UNL     1       0.985   9.244  20.816  0.00  0.00    +0.000 A 
ATOM      6  C   UNL     1       1.376   9.509  19.407  0.00  0.00    +0.000 A 
ATOM      7  N   UNL     1       1.900   8.648  18.595  0.00  0.00    +0.000 NA
ATOM      8  N   UNL     1       2.078   7.405  19.128  0.00  0.00    +0.000 N 
ATOM      9  C   UNL     1       2.585   6.296  18.476  0.00  0.00    +0.000 A 
ATOM     10  O   UNL     1       2.996   6.183  17.332  0.00  0.00    +0.000 OA
ENDROOT
BRANCH   1  11
ATOM     11  C   UNL     1       2.989   3.917  19.282  0.00  0.00    +0.000 C 
BRANCH  11  13
ATOM     12  O   UNL     1       5.131   2.996  19.882  0.00  0.00    +0.000 OA
ATOM     13  C   UNL     1       4.510   3.796  19.183  0.00  0.00    +0.000 C 
ATOM     14  N   UNL     1       5.124   4.619  18.269  0.00  0.00    +0.000 N 
ATOM     15  H   UNL     1       4.540   5.185  17.668  0.00  0.00    +0.000 HD
BRANCH  14  16
ATOM     16  C   UNL     1       6.556   4.650  18.071  0.00  0.00    +0.000 C 
BRANCH  16  17
ATOM     17  C   UNL     1       7.118   6.053  18.046  0.00  0.00    +0.000 A 
ATOM     18  C   UNL     1       6.621   7.034  17.176  0.00  0.00    +0.000 A 
ATOM     19  C   UNL     1       7.124   8.339  17.207  0.00  0.00    +0.000 A 
ATOM     20  C   UNL     1       8.124   8.700  18.119  0.00  0.00    +0.000 A 
ATOM     21  C   UNL     1       8.607   7.727  19.007  0.00  0.00    +0.000 A 
ATOM     22  C   UNL     1       8.106   6.420  18.972  0.00  0.00    +0.000 A 
BRANCH  20  23
ATOM     23  C   UNL     1       8.671  10.105  18.164  0.00  0.00    +0.000 C 
ATOM     24  F   UNL     1       8.822  10.597  19.426  0.00  0.00    +0.000 F 
ATOM     25  F   UNL     1       9.895  10.209  17.576  0.00  0.00    +0.000 F 
ATOM     26  F   UNL     1       7.871  10.996  17.512  0.00  0.00    +0.000 F 
ENDBRANCH  20  23
ENDBRANCH  16  17
ENDBRANCH  14  16
ENDBRANCH  11  13
ENDBRANCH   1  11
BRANCH   6  27
ATOM     27  S   UNL     1       0.997  11.122  18.844  0.00  0.00    +0.000 S 
BRANCH  27  28
ATOM     28  C   UNL     1      -0.759  11.020  18.553  0.00  0.00    +0.000 A 
ATOM     29  C   UNL     1      -1.241  10.069  17.641  0.00  0.00    +0.000 A 
ATOM     30  C   UNL     1      -2.609   9.971  17.368  0.00  0.00    +0.000 A 
ATOM     31  C   UNL     1      -3.503  10.834  17.998  0.00  0.00    +0.000 A 
ATOM     32  C   UNL     1      -3.019  11.792  18.881  0.00  0.00    +0.000 A 
ATOM     33  F   UNL     1      -3.879  12.633  19.469  0.00  0.00    +0.000 F 
ATOM     34  C   UNL     1      -1.658  11.897  19.161  0.00  0.00    +0.000 A 
ENDBRANCH  27  28
ENDBRANCH   6  27
TORSDOF 7
ENDMDL
MODEL 5
REMARK VINA RESULT:      -8.6      3.709     11.807
REMARK  Name = 
REMARK  7 active torsions:
REMARK  status: ('A' for Active; 'I' for Inactive)
REMARK    1  A    between atoms: C_2  and  C_3
REMARK    2  A    between atoms: C_3  and  N_4
REMARK    3  A    between atoms: C_9  and  S_10
REMARK    4  A    between atoms: S_10  and  C_11
REMARK    5  A    between atoms: N_22  and  C_23
REMARK    6  A    between atoms: C_23  and  C_24
REMARK    7  A    between atoms: C_27  and  C_28
REMARK                            x       y       z     vdW  Elec       q    Type
REMARK                         _______ _______ _______ _____ _____    ______ ____
ROOT
ATOM      1  N   UNL     1       1.422   9.463  19.389  0.00  0.00    +0.000 N 
ATOM      2  N   UNL     1       1.262   8.683  20.523  0.00  0.00    +0.000 NA
ATOM      3  C   UNL     1       1.636   7.501  20.137  0.00  0.00    +0.000 A 
ATOM      4  C   UNL     1       1.669   6.272  20.938  0.00  0.00    +0.000 A 
ATOM      5  C   UNL     1       2.125   5.155  20.356  0.00  0.00    +0.000 A 
ATOM      6  C   UNL     1       2.566   5.253  18.940  0.00  0.00    +0.000 A 
ATOM      7  N   UNL     1       2.527   6.321  18.210  0.00  0.00    +0.000 NA
ATOM      8  N   UNL     1       2.038   7.423  18.846  0.00  0.00    +0.000 N 
ATOM      9  C   UNL     1       1.917   8.693  18.314  0.00  0.00    +0.000 A 
ATOM     10  O   UNL     1       2.183   9.099  17.194  0.00  0.00    +0.000 OA
ENDROOT
BRANCH   1  11
ATOM     11  C   UNL     1       1.043  10.858  19.326  0.00  0.00    +0.000 C 
BRANCH  11  13
ATOM     12  O   UNL     1       1.639  12.192  21.240  0.00  0.00    +0.000 OA
ATOM     13  C   UNL     1       0.780  11.506  20.686  0.00  0.00    +0.000 C 
ATOM     14  N   UNL     1      -0.462  11.284  21.232  0.00  0.00    +0.000 N 
ATOM     15  H   UNL     1      -1.145  10.785  20.678  0.00  0.00    +0.000 HD
BRANCH  14  16
ATOM     16  C   UNL     1      -0.861  11.800  22.522  0.00  0.00    +0.000 C 
BRANCH  16  17
ATOM     17  C   UNL     1      -2.300  12.263  22.553  0.00  0.00    +0.000 A 
ATOM     18  C   UNL     1      -2.986  12.629  21.386  0.00  0.00    +0.000 A 
ATOM     19  C   UNL     1      -4.332  13.005  21.434  0.00  0.00    +0.000 A 
ATOM     20  C   UNL     1      -5.031  13.008  22.648  0.00  0.00    +0.000 A 
ATOM     21  C   UNL     1      -4.355  12.620  23.814  0.00  0.00    +0.000 A 
ATOM     22  C   UNL     1      -3.007  12.248  23.765  0.00  0.00    +0.000 A 
BRANCH  20  23
ATOM     23  C   UNL     1      -6.485  13.409  22.712  0.00  0.00    +0.000 C 
ATOM     24  F   UNL     1      -6.776  14.261  23.734  0.00  0.00    +0.000 F 
ATOM     25  F   UNL     1      -6.905  14.033  21.576  0.00  0.00    +0.000 F 
ATOM     26  F   UNL     1      -7.312  12.338  22.873  0.00  0.00    +0.000 F 
ENDBRANCH  20  23
ENDBRANCH  16  17
ENDBRANCH  14  16
ENDBRANCH  11  13
ENDBRANCH   1  11
BRANCH   6  27
ATOM     27  S   UNL     1       3.256   3.779  18.298  0.00  0.00    +0.000 S 
BRANCH  27  28
ATOM     28  C   UNL     1       4.808   4.345  17.629  0.00  0.00    +0.000 A 
ATOM     29  C   UNL     1       4.995   4.327  16.239  0.00  0.00    +0.000 A 
ATOM     30  C   UNL     1       6.206   4.742  15.676  0.00  0.00    +0.000 A 
ATOM     31  C   UNL     1       7.243   5.168  16.503  0.00  0.00    +0.000 A 
ATOM     32  C   UNL     1       7.063   5.159  17.881  0.00  0.00    +0.000 A 
ATOM     33  F   UNL     1       8.069   5.550  18.674  0.00  0.00    +0.000 F 
ATOM     34  C   UNL     1       5.861   4.749  18.452  0.00  0.00    +0.000 A 
ENDBRANCH  27  28
ENDBRANCH   6  27
TORSDOF 7
ENDMDL
MODEL 6
REMARK VINA RESULT:      -8.5      5.352      9.555
REMARK  Name = 
REMARK  7 active torsions:
REMARK  status: ('A' for Active; 'I' for Inactive)
REMARK    1  A    between atoms: C_2  and  C_3
REMARK    2  A    between atoms: C_3  and  N_4
REMARK    3  A    between atoms: C_9  and  S_10
REMARK    4  A    between atoms: S_10  and  C_11
REMARK    5  A    between atoms: N_22  and  C_23
REMARK    6  A    between atoms: C_23  and  C_24
REMARK    7  A    between atoms: C_27  and  C_28
REMARK                            x       y       z     vdW  Elec       q    Type
REMARK                         _______ _______ _______ _____ _____    ______ ____
ROOT
ATOM      1  N   UNL     1      -0.044  10.373  20.768  0.00  0.00    +0.000 N 
ATOM      2  N   UNL     1       0.208  10.592  19.422  0.00  0.00    +0.000 NA
ATOM      3  C   UNL     1       1.012   9.625  19.100  0.00  0.00    +0.000 A 
ATOM      4  C   UNL     1       1.609   9.364  17.785  0.00  0.00    +0.000 A 
ATOM      5  C   UNL     1       2.391   8.286  17.653  0.00  0.00    +0.000 A 
ATOM      6  C   UNL     1       2.590   7.433  18.854  0.00  0.00    +0.000 A 
ATOM      7  N   UNL     1       2.091   7.655  20.028  0.00  0.00    +0.000 NA
ATOM      8  N   UNL     1       1.318   8.776  20.110  0.00  0.00    +0.000 N 
ATOM      9  C   UNL     1       0.642   9.228  21.227  0.00  0.00    +0.000 A 
ATOM     10  O   UNL     1       0.603   8.765  22.357  0.00  0.00    +0.000 OA
ENDROOT
BRANCH   1  11
ATOM     11  C   UNL     1      -0.838  11.268  21.581  0.00  0.00    +0.000 C 
BRANCH  11  13
ATOM     12  O   UNL     1      -0.047  13.395  22.384  0.00  0.00    +0.000 OA
ATOM     13  C   UNL     1      -0.480  12.747  21.432  0.00  0.00    +0.000 C 
ATOM     14  N   UNL     1      -0.662  13.291  20.182  0.00  0.00    +0.000 N 
ATOM     15  H   UNL     1      -0.937  12.674  19.429  0.00  0.00    +0.000 HD
BRANCH  14  16
ATOM     16  C   UNL     1      -0.400  14.679  19.879  0.00  0.00    +0.000 C 
BRANCH  16  17
ATOM     17  C   UNL     1       1.041  14.939  19.503  0.00  0.00    +0.000 A 
ATOM     18  C   UNL     1       1.711  16.105  19.899  0.00  0.00    +0.000 A 
ATOM     19  C   UNL     1       3.059  16.300  19.582  0.00  0.00    +0.000 A 
ATOM     20  C   UNL     1       3.776  15.324  18.876  0.00  0.00    +0.000 A 
ATOM     21  C   UNL     1       3.115  14.146  18.498  0.00  0.00    +0.000 A 
ATOM     22  C   UNL     1       1.765  13.955  18.813  0.00  0.00    +0.000 A 
BRANCH  20  23
ATOM     23  C   UNL     1       5.232  15.521  18.531  0.00  0.00    +0.000 C 
ATOM     24  F   UNL     1       5.595  14.965  17.342  0.00  0.00    +0.000 F 
ATOM     25  F   UNL     1       5.576  16.837  18.446  0.00  0.00    +0.000 F 
ATOM     26  F   UNL     1       6.065  14.981  19.464  0.00  0.00    +0.000 F 
ENDBRANCH  20  23
ENDBRANCH  16  17
ENDBRANCH  14  16
ENDBRANCH  11  13
ENDBRANCH   1  11
BRANCH   6  27
ATOM     27  S   UNL     1       3.527   5.985  18.563  0.00  0.00    +0.000 S 
BRANCH  27  28
ATOM     28  C   UNL     1       2.550   4.731  19.369  0.00  0.00    +0.000 A 
ATOM     29  C   UNL     1       2.716   4.523  20.747  0.00  0.00    +0.000 A 
ATOM     30  C   UNL     1       1.984   3.535  21.413  0.00  0.00    +0.000 A 
ATOM     31  C   UNL     1       1.090   2.739  20.701  0.00  0.00    +0.000 A 
ATOM     32  C   UNL     1       0.948   2.930  19.332  0.00  0.00    +0.000 A 
ATOM     33  F   UNL     1       0.101   2.151  18.648  0.00  0.00    +0.000 F 
ATOM     34  C   UNL     1       1.670   3.913  18.659  0.00  0.00    +0.000 A 
ENDBRANCH  27  28
ENDBRANCH   6  27
TORSDOF 7
ENDMDL
MODEL 7
REMARK VINA RESULT:      -8.4      6.080      9.120
REMARK  Name = 
REMARK  7 active torsions:
REMARK  status: ('A' for Active; 'I' for Inactive)
REMARK    1  A    between atoms: C_2  and  C_3
REMARK    2  A    between atoms: C_3  and  N_4
REMARK    3  A    between atoms: C_9  and  S_10
REMARK    4  A    between atoms: S_10  and  C_11
REMARK    5  A    between atoms: N_22  and  C_23
REMARK    6  A    between atoms: C_23  and  C_24
REMARK    7  A    between atoms: C_27  and  C_28
REMARK                            x       y       z     vdW  Elec       q    Type
REMARK                         _______ _______ _______ _____ _____    ______ ____
ROOT
ATOM      1  N   UNL     1       2.158  14.115  20.871  0.00  0.00    +0.000 N 
ATOM      2  N   UNL     1       2.257  14.081  19.489  0.00  0.00    +0.000 NA
ATOM      3  C   UNL     1       3.489  14.424  19.262  0.00  0.00    +0.000 A 
ATOM      4  C   UNL     1       4.150  14.558  17.960  0.00  0.00    +0.000 A 
ATOM      5  C   UNL     1       5.447  14.891  17.944  0.00  0.00    +0.000 A 
ATOM      6  C   UNL     1       6.116  15.097  19.256  0.00  0.00    +0.000 A 
ATOM      7  N   UNL     1       5.548  15.004  20.415  0.00  0.00    +0.000 NA
ATOM      8  N   UNL     1       4.224  14.680  20.371  0.00  0.00    +0.000 N 
ATOM      9  C   UNL     1       3.388  14.487  21.455  0.00  0.00    +0.000 A 
ATOM     10  O   UNL     1       3.624  14.583  22.649  0.00  0.00    +0.000 OA
ENDROOT
BRANCH   1  11
ATOM     11  C   UNL     1       0.920  13.881  21.582  0.00  0.00    +0.000 C 
BRANCH  11  13
ATOM     12  O   UNL     1      -1.118  12.932  20.722  0.00  0.00    +0.000 OA
ATOM     13  C   UNL     1       0.064  12.750  21.011  0.00  0.00    +0.000 C 
ATOM     14  N   UNL     1       0.696  11.541  20.835  0.00  0.00    +0.000 N 
ATOM     15  H   UNL     1       1.691  11.493  21.011  0.00  0.00    +0.000 HD
BRANCH  14  16
ATOM     16  C   UNL     1       0.024  10.365  20.333  0.00  0.00    +0.000 C 
BRANCH  16  17
ATOM     17  C   UNL     1       0.973   9.358  19.723  0.00  0.00    +0.000 A 
ATOM     18  C   UNL     1       1.415   8.233  20.432  0.00  0.00    +0.000 A 
ATOM     19  C   UNL     1       2.253   7.289  19.829  0.00  0.00    +0.000 A 
ATOM     20  C   UNL     1       2.655   7.439  18.495  0.00  0.00    +0.000 A 
ATOM     21  C   UNL     1       2.196   8.552  17.775  0.00  0.00    +0.000 A 
ATOM     22  C   UNL     1       1.361   9.497  18.381  0.00  0.00    +0.000 A 
BRANCH  20  23
ATOM     23  C   UNL     1       3.556   6.425  17.832  0.00  0.00    +0.000 C 
ATOM     24  F   UNL     1       2.910   5.294  17.434  0.00  0.00    +0.000 F 
ATOM     25  F   UNL     1       4.165   6.918  16.718  0.00  0.00    +0.000 F 
ATOM     26  F   UNL     1       4.562   6.010  18.652  0.00  0.00    +0.000 F 
ENDBRANCH  20  23
ENDBRANCH  16  17
ENDBRANCH  14  16
ENDBRANCH  11  13
ENDBRANCH   1  11
BRANCH   6  27
ATOM     27  S   UNL     1       7.833  15.413  19.147  0.00  0.00    +0.000 S 
BRANCH  27  28
ATOM     28  C   UNL     1       8.523  13.770  19.141  0.00  0.00    +0.000 A 
ATOM     29  C   UNL     1       8.555  13.052  17.935  0.00  0.00    +0.000 A 
ATOM     30  C   UNL     1       9.068  11.752  17.893  0.00  0.00    +0.000 A 
ATOM     31  C   UNL     1       9.541  11.156  19.059  0.00  0.00    +0.000 A 
ATOM     32  C   UNL     1       9.483  11.861  20.256  0.00  0.00    +0.000 A 
ATOM     33  F   UNL     1       9.921  11.278  21.379  0.00  0.00    +0.000 F 
ATOM     34  C   UNL     1       8.976  13.157  20.310  0.00  0.00    +0.000 A 
ENDBRANCH  27  28
ENDBRANCH   6  27
TORSDOF 7
ENDMDL
MODEL 8
REMARK VINA RESULT:      -8.4      3.892      6.456
REMARK  Name = 
REMARK  7 active torsions:
REMARK  status: ('A' for Active; 'I' for Inactive)
REMARK    1  A    between atoms: C_2  and  C_3
REMARK    2  A    between atoms: C_3  and  N_4
REMARK    3  A    between atoms: C_9  and  S_10
REMARK    4  A    between atoms: S_10  and  C_11
REMARK    5  A    between atoms: N_22  and  C_23
REMARK    6  A    between atoms: C_23  and  C_24
REMARK    7  A    between atoms: C_27  and  C_28
REMARK                            x       y       z     vdW  Elec       q    Type
REMARK                         _______ _______ _______ _____ _____    ______ ____
ROOT
ATOM      1  N   UNL     1      -0.682  11.642  19.376  0.00  0.00    +0.000 N 
ATOM      2  N   UNL     1      -0.922  11.111  18.119  0.00  0.00    +0.000 NA
ATOM      3  C   UNL     1      -2.201  11.262  17.961  0.00  0.00    +0.000 A 
ATOM      4  C   UNL     1      -3.009  10.869  16.801  0.00  0.00    +0.000 A 
ATOM      5  C   UNL     1      -4.318  11.148  16.823  0.00  0.00    +0.000 A 
ATOM      6  C   UNL     1      -4.851  11.839  18.026  0.00  0.00    +0.000 A 
ATOM      7  N   UNL     1      -4.162  12.176  19.069  0.00  0.00    +0.000 NA
ATOM      8  N   UNL     1      -2.838  11.852  19.001  0.00  0.00    +0.000 N 
ATOM      9  C   UNL     1      -1.876  12.123  19.955  0.00  0.00    +0.000 A 
ATOM     10  O   UNL     1      -1.987  12.666  21.044  0.00  0.00    +0.000 OA
ENDROOT
BRANCH   1  11
ATOM     11  C   UNL     1       0.616  11.613  20.014  0.00  0.00    +0.000 C 
BRANCH  11  13
ATOM     12  O   UNL     1       0.884  10.476  22.120  0.00  0.00    +0.000 OA
ATOM     13  C   UNL     1       0.865  10.385  20.893  0.00  0.00    +0.000 C 
ATOM     14  N   UNL     1       1.050   9.195  20.230  0.00  0.00    +0.000 N 
ATOM     15  H   UNL     1       0.932   9.184  19.226  0.00  0.00    +0.000 HD
BRANCH  14  16
ATOM     16  C   UNL     1       1.324   7.949  20.909  0.00  0.00    +0.000 C 
BRANCH  16  17
ATOM     17  C   UNL     1       1.973   6.919  20.012  0.00  0.00    +0.000 A 
ATOM     18  C   UNL     1       2.262   7.185  18.667  0.00  0.00    +0.000 A 
ATOM     19  C   UNL     1       2.909   6.234  17.871  0.00  0.00    +0.000 A 
ATOM     20  C   UNL     1       3.298   4.999  18.406  0.00  0.00    +0.000 A 
ATOM     21  C   UNL     1       3.031   4.738  19.758  0.00  0.00    +0.000 A 
ATOM     22  C   UNL     1       2.380   5.689  20.552  0.00  0.00    +0.000 A 
BRANCH  20  23
ATOM     23  C   UNL     1       3.999   3.966  17.559  0.00  0.00    +0.000 C 
ATOM     24  F   UNL     1       4.583   4.478  16.439  0.00  0.00    +0.000 F 
ATOM     25  F   UNL     1       4.992   3.322  18.234  0.00  0.00    +0.000 F 
ATOM     26  F   UNL     1       3.154   2.989  17.124  0.00  0.00    +0.000 F 
ENDBRANCH  20  23
ENDBRANCH  16  17
ENDBRANCH  14  16
ENDBRANCH  11  13
ENDBRANCH   1  11
BRANCH   6  27
ATOM     27  S   UNL     1      -6.543  12.269  17.921  0.00  0.00    +0.000 S 
BRANCH  27  28
ATOM     28  C   UNL     1      -7.054  12.223  19.628  0.00  0.00    +0.000 A 
ATOM     29  C   UNL     1      -7.303  10.979  20.228  0.00  0.00    +0.000 A 
ATOM     30  C   UNL     1      -7.727  10.901  21.559  0.00  0.00    +0.000 A 
ATOM     31  C   UNL     1      -7.917  12.069  22.293  0.00  0.00    +0.000 A 
ATOM     32  C   UNL     1      -7.695  13.300  21.686  0.00  0.00    +0.000 A 
ATOM     33  F   UNL     1      -7.898  14.421  22.390  0.00  0.00    +0.000 F 
ATOM     34  C   UNL     1      -7.272  13.389  20.363  0.00  0.00    +0.000 A 
ENDBRANCH  27  28
ENDBRANCH   6  27
TORSDOF 7
ENDMDL
MODEL 9
REMARK VINA RESULT:      -8.4      5.303      9.522
REMARK  Name = 
REMARK  7 active torsions:
REMARK  status: ('A' for Active; 'I' for Inactive)
REMARK    1  A    between atoms: C_2  and  C_3
REMARK    2  A    between atoms: C_3  and  N_4
REMARK    3  A    between atoms: C_9  and  S_10
REMARK    4  A    between atoms: S_10  and  C_11
REMARK    5  A    between atoms: N_22  and  C_23
REMARK    6  A    between atoms: C_23  and  C_24
REMARK    7  A    between atoms: C_27  and  C_28
REMARK                            x       y       z     vdW  Elec       q    Type
REMARK                         _______ _______ _______ _____ _____    ______ ____
ROOT
ATOM      1  N   UNL     1      -0.090  10.357  20.407  0.00  0.00    +0.000 N 
ATOM      2  N   UNL     1       0.287  10.510  19.082  0.00  0.00    +0.000 NA
ATOM      3  C   UNL     1       1.123   9.536  18.887  0.00  0.00    +0.000 A 
ATOM      4  C   UNL     1       1.843   9.214  17.650  0.00  0.00    +0.000 A 
ATOM      5  C   UNL     1       2.640   8.137  17.648  0.00  0.00    +0.000 A 
ATOM      6  C   UNL     1       2.728   7.349  18.906  0.00  0.00    +0.000 A 
ATOM      7  N   UNL     1       2.119   7.626  20.014  0.00  0.00    +0.000 NA
ATOM      8  N   UNL     1       1.336   8.742  19.964  0.00  0.00    +0.000 N 
ATOM      9  C   UNL     1       0.555   9.244  20.988  0.00  0.00    +0.000 A 
ATOM     10  O   UNL     1       0.412   8.839  22.131  0.00  0.00    +0.000 OA
ENDROOT
BRANCH   1  11
ATOM     11  C   UNL     1      -0.961  11.284  21.094  0.00  0.00    +0.000 C 
BRANCH  11  13
ATOM     12  O   UNL     1       0.027  13.162  22.231  0.00  0.00    +0.000 OA
ATOM     13  C   UNL     1      -0.427  12.715  21.179  0.00  0.00    +0.000 C 
ATOM     14  N   UNL     1      -0.478  13.450  20.018  0.00  0.00    +0.000 N 
ATOM     15  H   UNL     1      -0.782  12.986  19.172  0.00  0.00    +0.000 HD
BRANCH  14  16
ATOM     16  C   UNL     1      -0.041  14.824  19.934  0.00  0.00    +0.000 C 
BRANCH  16  17
ATOM     17  C   UNL     1       1.426  14.957  19.592  0.00  0.00    +0.000 A 
ATOM     18  C   UNL     1       1.986  14.325  18.473  0.00  0.00    +0.000 A 
ATOM     19  C   UNL     1       3.335  14.504  18.150  0.00  0.00    +0.000 A 
ATOM     20  C   UNL     1       4.153  15.334  18.928  0.00  0.00    +0.000 A 
ATOM     21  C   UNL     1       3.591  15.986  20.035  0.00  0.00    +0.000 A 
ATOM     22  C   UNL     1       2.242  15.803  20.360  0.00  0.00    +0.000 A 
BRANCH  20  23
ATOM     23  C   UNL     1       5.609  15.537  18.587  0.00  0.00    +0.000 C 
ATOM     24  F   UNL     1       5.966  16.846  18.461  0.00  0.00    +0.000 F 
ATOM     25  F   UNL     1       6.445  15.012  19.526  0.00  0.00    +0.000 F 
ATOM     26  F   UNL     1       5.956  14.943  17.410  0.00  0.00    +0.000 F 
ENDBRANCH  20  23
ENDBRANCH  16  17
ENDBRANCH  14  16
ENDBRANCH  11  13
ENDBRANCH   1  11
BRANCH   6  27
ATOM     27  S   UNL     1       3.696   5.897  18.780  0.00  0.00    +0.000 S 
BRANCH  27  28
ATOM     28  C   UNL     1       2.629   4.666  19.503  0.00  0.00    +0.000 A 
ATOM     29  C   UNL     1       2.692   4.443  20.887  0.00  0.00    +0.000 A 
ATOM     30  C   UNL     1       1.888   3.471  21.491  0.00  0.00    +0.000 A 
ATOM     31  C   UNL     1       1.024   2.706  20.710  0.00  0.00    +0.000 A 
ATOM     32  C   UNL     1       0.984   2.912  19.336  0.00  0.00    +0.000 A 
ATOM     33  F   UNL     1       0.167   2.161  18.587  0.00  0.00    +0.000 F 
ATOM     34  C   UNL     1       1.779   3.878  18.725  0.00  0.00    +0.000 A 
ENDBRANCH  27  28
ENDBRANCH   6  27
TORSDOF 7
ENDMDL
