MODEL 1
REMARK VINA RESULT:      -7.1      0.000      0.000
REMARK  Name = 
REMARK  11 active torsions:
REMARK  status: ('A' for Active; 'I' for Inactive)
REMARK    1  A    between atoms: P_2  and  O_3
REMARK    2  A    between atoms: P_2  and  O_4
REMARK    3  A    between atoms: P_2  and  O_5
REMARK    4  A    between atoms: O_5  and  C_6
REMARK    5  A    between atoms: C_6  and  N_7
REMARK    6  A    between atoms: N_7  and  C_8
REMARK    7  A    between atoms: C_8  and  C_9
REMARK    8  A    between atoms: C_10  and  C_11
REMARK    9  A    between atoms: N_19  and  C_20
REMARK   10  A    between atoms: C_20  and  C_21
REMARK   11  A    between atoms: C_20  and  C_27
REMARK                            x       y       z     vdW  Elec       q    Type
REMARK                         _______ _______ _______ _____ _____    ______ ____
ROOT
ATOM      1  N   UNL     1       0.720  10.361  19.227  0.00  0.00    +0.000 N 
ATOM      2  C   UNL     1      -0.803  10.267  18.988  0.00  0.00    +0.000 C 
ATOM      3  C   UNL     1      -1.371  11.485  18.243  0.00  0.00    +0.000 C 
ATOM      4  N   UNL     1      -1.089  12.776  18.896  0.00  0.00    +0.000 NA
ATOM      5  C   UNL     1       0.388  12.922  18.947  0.00  0.00    +0.000 C 
ATOM      6  C   UNL     1       1.138  11.790  19.684  0.00  0.00    +0.000 C 
ENDROOT
BRANCH   1   7
ATOM      7  C   UNL     1       1.104   9.415  20.358  0.00  0.00    +0.000 C 
BRANCH   7   8
ATOM      8  O   UNL     1      -0.001   9.024  21.119  0.00  0.00    +0.000 OA
BRANCH   8  10
ATOM      9  O   UNL     1       0.481   9.510  24.324  0.00  0.00    +0.000 OA
ATOM     10  P   UNL     1       0.253   9.280  22.811  0.00  0.00    +0.000 P 
BRANCH  10  11
ATOM     11  O   UNL     1      -0.043  10.852  22.514  0.00  0.00    +0.000 OA
ATOM     12  H   UNL     1      -0.996  10.967  22.326  0.00  0.00    +0.000 HD
ENDBRANCH  10  11
BRANCH  10  13
ATOM     13  O   UNL     1       1.849   9.289  22.480  0.00  0.00    +0.000 OA
ATOM     14  H   UNL     1       2.324   9.539  23.301  0.00  0.00    +0.000 HD
ENDBRANCH  10  13
ENDBRANCH   8  10
ENDBRANCH   7   8
ENDBRANCH   1   7
BRANCH   1  15
ATOM     15  C   UNL     1       1.539   9.950  17.978  0.00  0.00    +0.000 C 
BRANCH  15  16
ATOM     16  C   UNL     1       1.837   8.481  17.888  0.00  0.00    +0.000 C 
ATOM     17  C   UNL     1       3.052   7.918  17.769  0.00  0.00    +0.000 C 
BRANCH  17  18
ATOM     18  C   UNL     1       3.168   6.454  17.739  0.00  0.00    +0.000 A 
ATOM     19  C   UNL     1       4.319   5.853  17.214  0.00  0.00    +0.000 A 
ATOM     20  C   UNL     1       4.393   4.463  17.100  0.00  0.00    +0.000 A 
ATOM     21  C   UNL     1       3.322   3.667  17.506  0.00  0.00    +0.000 A 
ATOM     22  C   UNL     1       2.179   4.260  18.037  0.00  0.00    +0.000 A 
ATOM     23  C   UNL     1       2.102   5.652  18.153  0.00  0.00    +0.000 A 
ENDBRANCH  17  18
ENDBRANCH  15  16
ENDBRANCH   1  15
BRANCH   4  24
ATOM     24  C   UNL     1      -1.732  12.936  20.247  0.00  0.00    +0.000 C 
BRANCH  24  25
ATOM     25  C   UNL     1      -1.308  14.261  20.891  0.00  0.00    +0.000 A 
ATOM     26  C   UNL     1      -1.524  15.488  20.243  0.00  0.00    +0.000 A 
ATOM     27  C   UNL     1      -0.958  16.665  20.735  0.00  0.00    +0.000 A 
ATOM     28  C   UNL     1      -0.166  16.632  21.878  0.00  0.00    +0.000 A 
ATOM     29  C   UNL     1       0.031  15.431  22.555  0.00  0.00    +0.000 A 
ATOM     30  C   UNL     1      -0.549  14.255  22.075  0.00  0.00    +0.000 A 
ENDBRANCH  24  25
BRANCH  24  31
ATOM     31  C   UNL     1      -3.247  12.694  20.284  0.00  0.00    +0.000 A 
ATOM     32  C   UNL     1      -3.922  12.310  19.103  0.00  0.00    +0.000 A 
ATOM     33  C   UNL     1      -5.304  12.081  19.097  0.00  0.00    +0.000 A 
ATOM     34  C   UNL     1      -6.038  12.228  20.269  0.00  0.00    +0.000 A 
ATOM     35  C   UNL     1      -5.393  12.606  21.444  0.00  0.00    +0.000 A 
ATOM     36  C   UNL     1      -4.012  12.856  21.450  0.00  0.00    +0.000 A 
ENDBRANCH  24  31
ENDBRANCH   4  24
TORSDOF 11
ENDMDL
MODEL 2
REMARK VINA RESULT:      -7.1      0.423      1.069
REMARK  Name = 
REMARK  11 active torsions:
REMARK  status: ('A' for Active; 'I' for Inactive)
REMARK    1  A    between atoms: P_2  and  O_3
REMARK    2  A    between atoms: P_2  and  O_4
REMARK    3  A    between atoms: P_2  and  O_5
REMARK    4  A    between atoms: O_5  and  C_6
REMARK    5  A    between atoms: C_6  and  N_7
REMARK    6  A    between atoms: N_7  and  C_8
REMARK    7  A    between atoms: C_8  and  C_9
REMARK    8  A    between atoms: C_10  and  C_11
REMARK    9  A    between atoms: N_19  and  C_20
REMARK   10  A    between atoms: C_20  and  C_21
REMARK   11  A    between atoms: C_20  and  C_27
REMARK                            x       y       z     vdW  Elec       q    Type
REMARK                         _______ _______ _______ _____ _____    ______ ____
ROOT
ATOM      1  N   UNL     1       0.750  10.314  19.102  0.00  0.00    +0.000 N 
ATOM      2  C   UNL     1      -0.780  10.261  18.907  0.00  0.00    +0.000 C 
ATOM      3  C   UNL     1      -1.338  11.494  18.180  0.00  0.00    +0.000 C 
ATOM      4  N   UNL     1      -1.004  12.776  18.825  0.00  0.00    +0.000 NA
ATOM      5  C   UNL     1       0.478  12.884  18.834  0.00  0.00    +0.000 C 
ATOM      6  C   UNL     1       1.220  11.731  19.547  0.00  0.00    +0.000 C 
ENDROOT
BRANCH   1   7
ATOM      7  C   UNL     1       1.144   9.357  20.220  0.00  0.00    +0.000 C 
BRANCH   7   8
ATOM      8  O   UNL     1       0.047   8.976  20.999  0.00  0.00    +0.000 OA
BRANCH   8  10
ATOM      9  O   UNL     1       0.518   9.606  24.180  0.00  0.00    +0.000 OA
ATOM     10  P   UNL     1       0.297   9.309  22.678  0.00  0.00    +0.000 P 
BRANCH  10  11
ATOM     11  O   UNL     1      -1.017   8.387  22.951  0.00  0.00    +0.000 OA
ATOM     12  H   UNL     1      -1.694   8.926  23.407  0.00  0.00    +0.000 HD
ENDBRANCH  10  11
BRANCH  10  13
ATOM     13  O   UNL     1      -0.474  10.722  22.421  0.00  0.00    +0.000 OA
ATOM     14  H   UNL     1      -0.283  11.309  23.182  0.00  0.00    +0.000 HD
ENDBRANCH  10  13
ENDBRANCH   8  10
ENDBRANCH   7   8
ENDBRANCH   1   7
BRANCH   1  15
ATOM     15  C   UNL     1       1.521   9.884  17.828  0.00  0.00    +0.000 C 
BRANCH  15  16
ATOM     16  C   UNL     1       1.872   8.424  17.780  0.00  0.00    +0.000 C 
ATOM     17  C   UNL     1       3.108   7.902  17.684  0.00  0.00    +0.000 C 
BRANCH  17  18
ATOM     18  C   UNL     1       3.275   6.443  17.693  0.00  0.00    +0.000 A 
ATOM     19  C   UNL     1       4.472   5.872  17.242  0.00  0.00    +0.000 A 
ATOM     20  C   UNL     1       4.600   4.484  17.164  0.00  0.00    +0.000 A 
ATOM     21  C   UNL     1       3.538   3.659  17.534  0.00  0.00    +0.000 A 
ATOM     22  C   UNL     1       2.348   4.222  17.991  0.00  0.00    +0.000 A 
ATOM     23  C   UNL     1       2.217   5.612  18.071  0.00  0.00    +0.000 A 
ENDBRANCH  17  18
ENDBRANCH  15  16
ENDBRANCH   1  15
BRANCH   4  24
ATOM     24  C   UNL     1      -1.602  12.950  20.195  0.00  0.00    +0.000 C 
BRANCH  24  25
ATOM     25  C   UNL     1      -1.149  14.278  20.815  0.00  0.00    +0.000 A 
ATOM     26  C   UNL     1      -1.418  15.505  20.187  0.00  0.00    +0.000 A 
ATOM     27  C   UNL     1      -0.832  16.685  20.646  0.00  0.00    +0.000 A 
ATOM     28  C   UNL     1       0.035  16.656  21.733  0.00  0.00    +0.000 A 
ATOM     29  C   UNL     1       0.286  15.454  22.391  0.00  0.00    +0.000 A 
ATOM     30  C   UNL     1      -0.314  14.274  21.946  0.00  0.00    +0.000 A 
ENDBRANCH  24  25
BRANCH  24  31
ATOM     31  C   UNL     1      -3.117  12.720  20.282  0.00  0.00    +0.000 A 
ATOM     32  C   UNL     1      -3.781  12.899  21.517  0.00  0.00    +0.000 A 
ATOM     33  C   UNL     1      -5.161  12.699  21.637  0.00  0.00    +0.000 A 
ATOM     34  C   UNL     1      -5.907  12.319  20.526  0.00  0.00    +0.000 A 
ATOM     35  C   UNL     1      -5.273  12.137  19.299  0.00  0.00    +0.000 A 
ATOM     36  C   UNL     1      -3.887  12.317  19.180  0.00  0.00    +0.000 A 
ENDBRANCH  24  31
ENDBRANCH   4  24
TORSDOF 11
ENDMDL
MODEL 3
REMARK VINA RESULT:      -7.0      0.420      1.323
REMARK  Name = 
REMARK  11 active torsions:
REMARK  status: ('A' for Active; 'I' for Inactive)
REMARK    1  A    between atoms: P_2  and  O_3
REMARK    2  A    between atoms: P_2  and  O_4
REMARK    3  A    between atoms: P_2  and  O_5
REMARK    4  A    between atoms: O_5  and  C_6
REMARK    5  A    between atoms: C_6  and  N_7
REMARK    6  A    between atoms: N_7  and  C_8
REMARK    7  A    between atoms: C_8  and  C_9
REMARK    8  A    between atoms: C_10  and  C_11
REMARK    9  A    between atoms: N_19  and  C_20
REMARK   10  A    between atoms: C_20  and  C_21
REMARK   11  A    between atoms: C_20  and  C_27
REMARK                            x       y       z     vdW  Elec       q    Type
REMARK                         _______ _______ _______ _____ _____    ______ ____
ROOT
ATOM      1  N   UNL     1       0.854  10.390  19.150  0.00  0.00    +0.000 N 
ATOM      2  C   UNL     1      -0.671  10.200  19.003  0.00  0.00    +0.000 C 
ATOM      3  C   UNL     1      -1.350  11.349  18.240  0.00  0.00    +0.000 C 
ATOM      4  N   UNL     1      -1.109  12.682  18.820  0.00  0.00    +0.000 NA
ATOM      5  C   UNL     1       0.358  12.913  18.780  0.00  0.00    +0.000 C 
ATOM      6  C   UNL     1       1.213  11.860  19.520  0.00  0.00    +0.000 C 
ENDROOT
BRANCH   1   7
ATOM      7  C   UNL     1       1.355   9.521  20.296  0.00  0.00    +0.000 C 
BRANCH   7   8
ATOM      8  O   UNL     1       0.307   8.971  21.040  0.00  0.00    +0.000 OA
BRANCH   8  10
ATOM      9  O   UNL     1       0.660   9.512  24.253  0.00  0.00    +0.000 OA
ATOM     10  P   UNL     1       0.494   9.256  22.736  0.00  0.00    +0.000 P 
BRANCH  10  11
ATOM     11  O   UNL     1      -0.998   8.628  22.902  0.00  0.00    +0.000 OA
ATOM     12  H   UNL     1      -0.969   7.675  22.684  0.00  0.00    +0.000 HD
ENDBRANCH  10  11
BRANCH  10  13
ATOM     13  O   UNL     1       0.053  10.797  22.435  0.00  0.00    +0.000 OA
ATOM     14  H   UNL     1      -0.561  11.076  23.146  0.00  0.00    +0.000 HD
ENDBRANCH  10  13
ENDBRANCH   8  10
ENDBRANCH   7   8
ENDBRANCH   1   7
BRANCH   1  15
ATOM     15  C   UNL     1       1.625   9.968  17.874  0.00  0.00    +0.000 C 
BRANCH  15  16
ATOM     16  C   UNL     1       1.906   8.496  17.778  0.00  0.00    +0.000 C 
ATOM     17  C   UNL     1       3.117   7.911  17.788  0.00  0.00    +0.000 C 
BRANCH  17  18
ATOM     18  C   UNL     1       3.209   6.447  17.729  0.00  0.00    +0.000 A 
ATOM     19  C   UNL     1       2.162   5.658  18.222  0.00  0.00    +0.000 A 
ATOM     20  C   UNL     1       2.286   4.267  18.250  0.00  0.00    +0.000 A 
ATOM     21  C   UNL     1       3.452   3.656  17.791  0.00  0.00    +0.000 A 
ATOM     22  C   UNL     1       4.494   4.436  17.293  0.00  0.00    +0.000 A 
ATOM     23  C   UNL     1       4.373   5.829  17.262  0.00  0.00    +0.000 A 
ENDBRANCH  17  18
ENDBRANCH  15  16
ENDBRANCH   1  15
BRANCH   4  24
ATOM     24  C   UNL     1      -1.684  12.868  20.197  0.00  0.00    +0.000 C 
BRANCH  24  25
ATOM     25  C   UNL     1      -1.195  14.185  20.812  0.00  0.00    +0.000 A 
ATOM     26  C   UNL     1      -0.475  14.203  22.018  0.00  0.00    +0.000 A 
ATOM     27  C   UNL     1      -0.212  15.407  22.673  0.00  0.00    +0.000 A 
ATOM     28  C   UNL     1      -0.667  16.607  22.137  0.00  0.00    +0.000 A 
ATOM     29  C   UNL     1      -1.351  16.612  20.924  0.00  0.00    +0.000 A 
ATOM     30  C   UNL     1      -1.601  15.411  20.256  0.00  0.00    +0.000 A 
ENDBRANCH  24  25
BRANCH  24  31
ATOM     31  C   UNL     1      -3.203  12.670  20.305  0.00  0.00    +0.000 A 
ATOM     32  C   UNL     1      -3.945  12.321  19.154  0.00  0.00    +0.000 A 
ATOM     33  C   UNL     1      -5.331  12.131  19.211  0.00  0.00    +0.000 A 
ATOM     34  C   UNL     1      -6.003  12.285  20.419  0.00  0.00    +0.000 A 
ATOM     35  C   UNL     1      -5.292  12.629  21.566  0.00  0.00    +0.000 A 
ATOM     36  C   UNL     1      -3.905  12.839  21.508  0.00  0.00    +0.000 A 
ENDBRANCH  24  31
ENDBRANCH   4  24
TORSDOF 11
ENDMDL
MODEL 4
REMARK VINA RESULT:      -7.0      2.725      4.408
REMARK  Name = 
REMARK  11 active torsions:
REMARK  status: ('A' for Active; 'I' for Inactive)
REMARK    1  A    between atoms: P_2  and  O_3
REMARK    2  A    between atoms: P_2  and  O_4
REMARK    3  A    between atoms: P_2  and  O_5
REMARK    4  A    between atoms: O_5  and  C_6
REMARK    5  A    between atoms: C_6  and  N_7
REMARK    6  A    between atoms: N_7  and  C_8
REMARK    7  A    between atoms: C_8  and  C_9
REMARK    8  A    between atoms: C_10  and  C_11
REMARK    9  A    between atoms: N_19  and  C_20
REMARK   10  A    between atoms: C_20  and  C_21
REMARK   11  A    between atoms: C_20  and  C_27
REMARK                            x       y       z     vdW  Elec       q    Type
REMARK                         _______ _______ _______ _____ _____    ______ ____
ROOT
ATOM      1  N   UNL     1       0.900  10.571  18.757  0.00  0.00    +0.000 N 
ATOM      2  C   UNL     1       1.295  12.039  18.487  0.00  0.00    +0.000 C 
ATOM      3  C   UNL     1       1.812  12.763  19.739  0.00  0.00    +0.000 C 
ATOM      4  N   UNL     1       0.874  12.744  20.876  0.00  0.00    +0.000 NA
ATOM      5  C   UNL     1       0.655  11.319  21.233  0.00  0.00    +0.000 C 
ATOM      6  C   UNL     1       0.111  10.429  20.093  0.00  0.00    +0.000 C 
ENDROOT
BRANCH   1   7
ATOM      7  C   UNL     1      -0.033  10.095  17.651  0.00  0.00    +0.000 C 
BRANCH   7   8
ATOM      8  O   UNL     1      -1.365  10.042  18.070  0.00  0.00    +0.000 OA
BRANCH   8  10
ATOM      9  O   UNL     1      -3.440  10.905  15.684  0.00  0.00    +0.000 OA
ATOM     10  P   UNL     1      -2.460  10.497  16.810  0.00  0.00    +0.000 P 
BRANCH  10  11
ATOM     11  O   UNL     1      -1.745  11.958  16.855  0.00  0.00    +0.000 OA
ATOM     12  H   UNL     1      -2.137  12.526  16.162  0.00  0.00    +0.000 HD
ENDBRANCH  10  11
BRANCH  10  13
ATOM     13  O   UNL     1      -3.563  10.755  17.983  0.00  0.00    +0.000 OA
ATOM     14  H   UNL     1      -4.447  10.550  17.612  0.00  0.00    +0.000 HD
ENDBRANCH  10  13
ENDBRANCH   8  10
ENDBRANCH   7   8
ENDBRANCH   1   7
BRANCH   1  15
ATOM     15  C   UNL     1       2.127   9.624  18.772  0.00  0.00    +0.000 C 
BRANCH  15  16
ATOM     16  C   UNL     1       1.787   8.172  18.949  0.00  0.00    +0.000 C 
ATOM     17  C   UNL     1       2.641   7.136  18.876  0.00  0.00    +0.000 C 
BRANCH  17  18
ATOM     18  C   UNL     1       2.146   5.776  19.121  0.00  0.00    +0.000 A 
ATOM     19  C   UNL     1       2.003   4.880  18.054  0.00  0.00    +0.000 A 
ATOM     20  C   UNL     1       1.447   3.617  18.270  0.00  0.00    +0.000 A 
ATOM     21  C   UNL     1       1.030   3.242  19.547  0.00  0.00    +0.000 A 
ATOM     22  C   UNL     1       1.177   4.127  20.613  0.00  0.00    +0.000 A 
ATOM     23  C   UNL     1       1.735   5.392  20.400  0.00  0.00    +0.000 A 
ENDBRANCH  17  18
ENDBRANCH  15  16
ENDBRANCH   1  15
BRANCH   4  24
ATOM     24  C   UNL     1      -0.413  13.480  20.624  0.00  0.00    +0.000 C 
BRANCH  24  25
ATOM     25  C   UNL     1      -1.368  13.316  21.813  0.00  0.00    +0.000 A 
ATOM     26  C   UNL     1      -2.659  12.789  21.644  0.00  0.00    +0.000 A 
ATOM     27  C   UNL     1      -3.589  12.831  22.683  0.00  0.00    +0.000 A 
ATOM     28  C   UNL     1      -3.246  13.403  23.903  0.00  0.00    +0.000 A 
ATOM     29  C   UNL     1      -1.959  13.898  24.102  0.00  0.00    +0.000 A 
ATOM     30  C   UNL     1      -1.020  13.841  23.070  0.00  0.00    +0.000 A 
ENDBRANCH  24  25
BRANCH  24  31
ATOM     31  C   UNL     1      -0.256  14.936  20.163  0.00  0.00    +0.000 A 
ATOM     32  C   UNL     1       0.193  15.914  21.079  0.00  0.00    +0.000 A 
ATOM     33  C   UNL     1       0.349  17.252  20.696  0.00  0.00    +0.000 A 
ATOM     34  C   UNL     1       0.061  17.640  19.392  0.00  0.00    +0.000 A 
ATOM     35  C   UNL     1      -0.383  16.692  18.473  0.00  0.00    +0.000 A 
ATOM     36  C   UNL     1      -0.560  15.354  18.858  0.00  0.00    +0.000 A 
ENDBRANCH  24  31
ENDBRANCH   4  24
TORSDOF 11
ENDMDL
MODEL 5
REMARK VINA RESULT:      -6.9      3.571      7.115
REMARK  Name = 
REMARK  11 active torsions:
REMARK  status: ('A' for Active; 'I' for Inactive)
REMARK    1  A    between atoms: P_2  and  O_3
REMARK    2  A    between atoms: P_2  and  O_4
REMARK    3  A    between atoms: P_2  and  O_5
REMARK    4  A    between atoms: O_5  and  C_6
REMARK    5  A    between atoms: C_6  and  N_7
REMARK    6  A    between atoms: N_7  and  C_8
REMARK    7  A    between atoms: C_8  and  C_9
REMARK    8  A    between atoms: C_10  and  C_11
REMARK    9  A    between atoms: N_19  and  C_20
REMARK   10  A    between atoms: C_20  and  C_21
REMARK   11  A    between atoms: C_20  and  C_27
REMARK                            x       y       z     vdW  Elec       q    Type
REMARK                         _______ _______ _______ _____ _____    ______ ____
ROOT
ATOM      1  N   UNL     1       0.850  14.531  20.210  0.00  0.00    +0.000 N 
ATOM      2  C   UNL     1       1.773  13.294  20.232  0.00  0.00    +0.000 C 
ATOM      3  C   UNL     1       1.889  12.605  18.863  0.00  0.00    +0.000 C 
ATOM      4  N   UNL     1       0.596  12.202  18.281  0.00  0.00    +0.000 NA
ATOM      5  C   UNL     1      -0.204  13.441  18.100  0.00  0.00    +0.000 C 
ATOM      6  C   UNL     1      -0.444  14.263  19.386  0.00  0.00    +0.000 C 
ENDROOT
BRANCH   1   7
ATOM      7  C   UNL     1       0.401  14.843  21.632  0.00  0.00    +0.000 C 
BRANCH   7   8
ATOM      8  O   UNL     1       0.380  13.703  22.440  0.00  0.00    +0.000 OA
BRANCH   8  10
ATOM      9  O   UNL     1      -2.675  12.701  23.076  0.00  0.00    +0.000 OA
ATOM     10  P   UNL     1      -1.233  13.174  22.775  0.00  0.00    +0.000 P 
BRANCH  10  11
ATOM     11  O   UNL     1      -1.069  13.916  24.214  0.00  0.00    +0.000 OA
ATOM     12  H   UNL     1      -0.168  13.750  24.557  0.00  0.00    +0.000 HD
ENDBRANCH  10  11
BRANCH  10  13
ATOM     13  O   UNL     1      -0.581  11.739  23.190  0.00  0.00    +0.000 OA
ATOM     14  H   UNL     1      -1.270  11.222  23.660  0.00  0.00    +0.000 HD
ENDBRANCH  10  13
ENDBRANCH   8  10
ENDBRANCH   7   8
ENDBRANCH   1   7
BRANCH   1  15
ATOM     15  C   UNL     1       1.567  15.791  19.661  0.00  0.00    +0.000 C 
BRANCH  15  16
ATOM     16  C   UNL     1       3.032  15.600  19.386  0.00  0.00    +0.000 C 
ATOM     17  C   UNL     1       3.766  16.260  18.474  0.00  0.00    +0.000 C 
BRANCH  17  18
ATOM     18  C   UNL     1       5.203  15.978  18.366  0.00  0.00    +0.000 A 
ATOM     19  C   UNL     1       5.640  14.757  17.837  0.00  0.00    +0.000 A 
ATOM     20  C   UNL     1       7.003  14.450  17.817  0.00  0.00    +0.000 A 
ATOM     21  C   UNL     1       7.934  15.355  18.325  0.00  0.00    +0.000 A 
ATOM     22  C   UNL     1       7.505  16.573  18.846  0.00  0.00    +0.000 A 
ATOM     23  C   UNL     1       6.141  16.885  18.866  0.00  0.00    +0.000 A 
ENDBRANCH  17  18
ENDBRANCH  15  16
ENDBRANCH   1  15
BRANCH   4  24
ATOM     24  C   UNL     1      -0.136  11.153  19.073  0.00  0.00    +0.000 C 
BRANCH  24  25
ATOM     25  C   UNL     1      -1.524  10.896  18.473  0.00  0.00    +0.000 A 
ATOM     26  C   UNL     1      -1.682  10.135  17.303  0.00  0.00    +0.000 A 
ATOM     27  C   UNL     1      -2.915  10.075  16.652  0.00  0.00    +0.000 A 
ATOM     28  C   UNL     1      -4.004  10.778  17.157  0.00  0.00    +0.000 A 
ATOM     29  C   UNL     1      -3.876  11.509  18.335  0.00  0.00    +0.000 A 
ATOM     30  C   UNL     1      -2.648  11.556  18.999  0.00  0.00    +0.000 A 
ENDBRANCH  24  25
BRANCH  24  31
ATOM     31  C   UNL     1       0.658   9.869  19.350  0.00  0.00    +0.000 A 
ATOM     32  C   UNL     1       0.623   9.291  20.640  0.00  0.00    +0.000 A 
ATOM     33  C   UNL     1       1.333   8.120  20.932  0.00  0.00    +0.000 A 
ATOM     34  C   UNL     1       2.090   7.502  19.943  0.00  0.00    +0.000 A 
ATOM     35  C   UNL     1       2.139   8.054  18.665  0.00  0.00    +0.000 A 
ATOM     36  C   UNL     1       1.445   9.239  18.374  0.00  0.00    +0.000 A 
ENDBRANCH  24  31
ENDBRANCH   4  24
TORSDOF 11
ENDMDL
MODEL 6
REMARK VINA RESULT:      -6.9      2.742      4.674
REMARK  Name = 
REMARK  11 active torsions:
REMARK  status: ('A' for Active; 'I' for Inactive)
REMARK    1  A    between atoms: P_2  and  O_3
REMARK    2  A    between atoms: P_2  and  O_4
REMARK    3  A    between atoms: P_2  and  O_5
REMARK    4  A    between atoms: O_5  and  C_6
REMARK    5  A    between atoms: C_6  and  N_7
REMARK    6  A    between atoms: N_7  and  C_8
REMARK    7  A    between atoms: C_8  and  C_9
REMARK    8  A    between atoms: C_10  and  C_11
REMARK    9  A    between atoms: N_19  and  C_20
REMARK   10  A    between atoms: C_20  and  C_21
REMARK   11  A    between atoms: C_20  and  C_27
REMARK                            x       y       z     vdW  Elec       q    Type
REMARK                         _______ _______ _______ _____ _____    ______ ____
ROOT
ATOM      1  N   UNL     1      -0.066  11.311  20.593  0.00  0.00    +0.000 N 
ATOM      2  C   UNL     1       0.774  12.497  20.076  0.00  0.00    +0.000 C 
ATOM      3  C   UNL     1       1.061  13.549  21.159  0.00  0.00    +0.000 C 
ATOM      4  N   UNL     1      -0.147  14.092  21.805  0.00  0.00    +0.000 NA
ATOM      5  C   UNL     1      -0.842  12.950  22.453  0.00  0.00    +0.000 C 
ATOM      6  C   UNL     1      -1.232  11.793  21.506  0.00  0.00    +0.000 C 
ENDROOT
BRANCH   1   7
ATOM      7  C   UNL     1      -0.710  10.602  19.408  0.00  0.00    +0.000 C 
BRANCH   7   8
ATOM      8  O   UNL     1      -1.962  11.135  19.090  0.00  0.00    +0.000 OA
BRANCH   8  10
ATOM      9  O   UNL     1      -2.536  11.086  15.864  0.00  0.00    +0.000 OA
ATOM     10  P   UNL     1      -2.266  11.110  17.387  0.00  0.00    +0.000 P 
BRANCH  10  11
ATOM     11  O   UNL     1      -1.007  10.083  17.282  0.00  0.00    +0.000 OA
ATOM     12  H   UNL     1      -0.572  10.201  16.413  0.00  0.00    +0.000 HD
ENDBRANCH  10  11
BRANCH  10  13
ATOM     13  O   UNL     1      -1.423  12.502  17.306  0.00  0.00    +0.000 OA
ATOM     14  H   UNL     1      -1.135  12.624  16.376  0.00  0.00    +0.000 HD
ENDBRANCH  10  13
ENDBRANCH   8  10
ENDBRANCH   7   8
ENDBRANCH   1   7
BRANCH   1  15
ATOM     15  C   UNL     1       0.792  10.266  21.350  0.00  0.00    +0.000 C 
BRANCH  15  16
ATOM     16  C   UNL     1       1.089   9.021  20.563  0.00  0.00    +0.000 C 
ATOM     17  C   UNL     1       1.770   7.945  20.996  0.00  0.00    +0.000 C 
BRANCH  17  18
ATOM     18  C   UNL     1       1.932   6.789  20.105  0.00  0.00    +0.000 A 
ATOM     19  C   UNL     1       1.622   5.503  20.563  0.00  0.00    +0.000 A 
ATOM     20  C   UNL     1       1.861   4.393  19.749  0.00  0.00    +0.000 A 
ATOM     21  C   UNL     1       2.410   4.559  18.478  0.00  0.00    +0.000 A 
ATOM     22  C   UNL     1       2.712   5.838  18.015  0.00  0.00    +0.000 A 
ATOM     23  C   UNL     1       2.473   6.951  18.827  0.00  0.00    +0.000 A 
ENDBRANCH  17  18
ENDBRANCH  15  16
ENDBRANCH   1  15
BRANCH   4  24
ATOM     24  C   UNL     1      -1.046  14.865  20.879  0.00  0.00    +0.000 C 
BRANCH  24  25
ATOM     25  C   UNL     1      -2.343  15.263  21.596  0.00  0.00    +0.000 A 
ATOM     26  C   UNL     1      -2.317  15.923  22.835  0.00  0.00    +0.000 A 
ATOM     27  C   UNL     1      -3.488  16.099  23.574  0.00  0.00    +0.000 A 
ATOM     28  C   UNL     1      -4.698  15.615  23.089  0.00  0.00    +0.000 A 
ATOM     29  C   UNL     1      -4.749  14.989  21.846  0.00  0.00    +0.000 A 
ATOM     30  C   UNL     1      -3.582  14.827  21.095  0.00  0.00    +0.000 A 
ENDBRANCH  24  25
BRANCH  24  31
ATOM     31  C   UNL     1      -0.377  16.029  20.135  0.00  0.00    +0.000 A 
ATOM     32  C   UNL     1      -0.470  16.104  18.727  0.00  0.00    +0.000 A 
ATOM     33  C   UNL     1       0.126  17.150  18.013  0.00  0.00    +0.000 A 
ATOM     34  C   UNL     1       0.827  18.143  18.690  0.00  0.00    +0.000 A 
ATOM     35  C   UNL     1       0.932  18.088  20.078  0.00  0.00    +0.000 A 
ATOM     36  C   UNL     1       0.352  17.031  20.795  0.00  0.00    +0.000 A 
ENDBRANCH  24  31
ENDBRANCH   4  24
TORSDOF 11
ENDMDL
MODEL 7
REMARK VINA RESULT:      -6.9      1.172      1.382
REMARK  Name = 
REMARK  11 active torsions:
REMARK  status: ('A' for Active; 'I' for Inactive)
REMARK    1  A    between atoms: P_2  and  O_3
REMARK    2  A    between atoms: P_2  and  O_4
REMARK    3  A    between atoms: P_2  and  O_5
REMARK    4  A    between atoms: O_5  and  C_6
REMARK    5  A    between atoms: C_6  and  N_7
REMARK    6  A    between atoms: N_7  and  C_8
REMARK    7  A    between atoms: C_8  and  C_9
REMARK    8  A    between atoms: C_10  and  C_11
REMARK    9  A    between atoms: N_19  and  C_20
REMARK   10  A    between atoms: C_20  and  C_21
REMARK   11  A    between atoms: C_20  and  C_27
REMARK                            x       y       z     vdW  Elec       q    Type
REMARK                         _______ _______ _______ _____ _____    ______ ____
ROOT
ATOM      1  N   UNL     1       0.413  10.587  19.295  0.00  0.00    +0.000 N 
ATOM      2  C   UNL     1      -1.095  10.893  19.426  0.00  0.00    +0.000 C 
ATOM      3  C   UNL     1      -1.503  12.207  18.742  0.00  0.00    +0.000 C 
ATOM      4  N   UNL     1      -0.754  13.387  19.209  0.00  0.00    +0.000 NA
ATOM      5  C   UNL     1       0.679  13.141  18.902  0.00  0.00    +0.000 C 
ATOM      6  C   UNL     1       1.277  11.861  19.528  0.00  0.00    +0.000 C 
ENDROOT
BRANCH   1   7
ATOM      7  C   UNL     1       0.813   9.589  20.374  0.00  0.00    +0.000 C 
BRANCH   7   8
ATOM      8  O   UNL     1      -0.257   9.256  21.209  0.00  0.00    +0.000 OA
BRANCH   8  10
ATOM      9  O   UNL     1       0.545   9.468  24.380  0.00  0.00    +0.000 OA
ATOM     10  P   UNL     1       0.166   9.367  22.883  0.00  0.00    +0.000 P 
BRANCH  10  11
ATOM     11  O   UNL     1      -0.014  10.976  22.717  0.00  0.00    +0.000 OA
ATOM     12  H   UNL     1      -0.240  11.362  23.586  0.00  0.00    +0.000 HD
ENDBRANCH  10  11
BRANCH  10  13
ATOM     13  O   UNL     1       1.721   9.268  22.405  0.00  0.00    +0.000 OA
ATOM     14  H   UNL     1       2.256   8.994  23.180  0.00  0.00    +0.000 HD
ENDBRANCH  10  13
ENDBRANCH   8  10
ENDBRANCH   7   8
ENDBRANCH   1   7
BRANCH   1  15
ATOM     15  C   UNL     1       0.769   9.957  17.924  0.00  0.00    +0.000 C 
BRANCH  15  16
ATOM     16  C   UNL     1       1.456   8.625  18.014  0.00  0.00    +0.000 C 
ATOM     17  C   UNL     1       2.704   8.340  17.604  0.00  0.00    +0.000 C 
BRANCH  17  18
ATOM     18  C   UNL     1       3.238   6.987  17.808  0.00  0.00    +0.000 A 
ATOM     19  C   UNL     1       4.560   6.695  17.452  0.00  0.00    +0.000 A 
ATOM     20  C   UNL     1       5.043   5.388  17.560  0.00  0.00    +0.000 A 
ATOM     21  C   UNL     1       4.210   4.368  18.022  0.00  0.00    +0.000 A 
ATOM     22  C   UNL     1       2.896   4.656  18.385  0.00  0.00    +0.000 A 
ATOM     23  C   UNL     1       2.411   5.964  18.279  0.00  0.00    +0.000 A 
ENDBRANCH  17  18
ENDBRANCH  15  16
ENDBRANCH   1  15
BRANCH   4  24
ATOM     24  C   UNL     1      -0.983  13.729  20.655  0.00  0.00    +0.000 C 
BRANCH  24  25
ATOM     25  C   UNL     1      -0.208  14.997  21.038  0.00  0.00    +0.000 A 
ATOM     26  C   UNL     1      -0.247  16.146  20.231  0.00  0.00    +0.000 A 
ATOM     27  C   UNL     1       0.614  17.217  20.474  0.00  0.00    +0.000 A 
ATOM     28  C   UNL     1       1.528  17.154  21.521  0.00  0.00    +0.000 A 
ATOM     29  C   UNL     1       1.556  16.038  22.354  0.00  0.00    +0.000 A 
ATOM     30  C   UNL     1       0.683  14.972  22.125  0.00  0.00    +0.000 A 
ENDBRANCH  24  25
BRANCH  24  31
ATOM     31  C   UNL     1      -2.453  13.754  21.098  0.00  0.00    +0.000 A 
ATOM     32  C   UNL     1      -2.932  12.761  21.981  0.00  0.00    +0.000 A 
ATOM     33  C   UNL     1      -4.266  12.749  22.409  0.00  0.00    +0.000 A 
ATOM     34  C   UNL     1      -5.146  13.730  21.964  0.00  0.00    +0.000 A 
ATOM     35  C   UNL     1      -4.694  14.719  21.093  0.00  0.00    +0.000 A 
ATOM     36  C   UNL     1      -3.363  14.722  20.647  0.00  0.00    +0.000 A 
ENDBRANCH  24  31
ENDBRANCH   4  24
TORSDOF 11
ENDMDL
MODEL 8
REMARK VINA RESULT:      -6.9      0.937      1.644
REMARK  Name = 
REMARK  11 active torsions:
REMARK  status: ('A' for Active; 'I' for Inactive)
REMARK    1  A    between atoms: P_2  and  O_3
REMARK    2  A    between atoms: P_2  and  O_4
REMARK    3  A    between atoms: P_2  and  O_5
REMARK    4  A    between atoms: O_5  and  C_6
REMARK    5  A    between atoms: C_6  and  N_7
REMARK    6  A    between atoms: N_7  and  C_8
REMARK    7  A    between atoms: C_8  and  C_9
REMARK    8  A    between atoms: C_10  and  C_11
REMARK    9  A    between atoms: N_19  and  C_20
REMARK   10  A    between atoms: C_20  and  C_21
REMARK   11  A    between atoms: C_20  and  C_27
REMARK                            x       y       z     vdW  Elec       q    Type
REMARK                         _______ _______ _______ _____ _____    ______ ____
ROOT
ATOM      1  N   UNL     1       0.741  10.082  19.106  0.00  0.00    +0.000 N 
ATOM      2  C   UNL     1      -0.800  10.023  19.038  0.00  0.00    +0.000 C 
ATOM      3  C   UNL     1      -1.415  11.208  18.277  0.00  0.00    +0.000 C 
ATOM      4  N   UNL     1      -1.031  12.528  18.808  0.00  0.00    +0.000 NA
ATOM      5  C   UNL     1       0.447  12.629  18.691  0.00  0.00    +0.000 C 
ATOM      6  C   UNL     1       1.243  11.523  19.418  0.00  0.00    +0.000 C 
ENDROOT
BRANCH   1   7
ATOM      7  C   UNL     1       1.222   9.199  20.250  0.00  0.00    +0.000 C 
BRANCH   7   8
ATOM      8  O   UNL     1       0.169   8.755  21.054  0.00  0.00    +0.000 OA
BRANCH   8  10
ATOM      9  O   UNL     1      -0.461  10.826  23.514  0.00  0.00    +0.000 OA
ATOM     10  P   UNL     1      -0.164   9.848  22.352  0.00  0.00    +0.000 P 
BRANCH  10  11
ATOM     11  O   UNL     1       1.344   9.530  22.872  0.00  0.00    +0.000 OA
ATOM     12  H   UNL     1       1.918  10.298  22.676  0.00  0.00    +0.000 HD
ENDBRANCH  10  11
BRANCH  10  13
ATOM     13  O   UNL     1      -0.919   8.605  23.088  0.00  0.00    +0.000 OA
ATOM     14  H   UNL     1      -1.842   8.881  23.269  0.00  0.00    +0.000 HD
ENDBRANCH  10  13
ENDBRANCH   8  10
ENDBRANCH   7   8
ENDBRANCH   1   7
BRANCH   1  15
ATOM     15  C   UNL     1       1.408   9.565  17.807  0.00  0.00    +0.000 C 
BRANCH  15  16
ATOM     16  C   UNL     1       2.507   8.565  18.029  0.00  0.00    +0.000 C 
ATOM     17  C   UNL     1       2.561   7.315  17.538  0.00  0.00    +0.000 C 
BRANCH  17  18
ATOM     18  C   UNL     1       3.737   6.481  17.820  0.00  0.00    +0.000 A 
ATOM     19  C   UNL     1       4.718   6.298  16.837  0.00  0.00    +0.000 A 
ATOM     20  C   UNL     1       5.790   5.434  17.070  0.00  0.00    +0.000 A 
ATOM     21  C   UNL     1       5.889   4.748  18.281  0.00  0.00    +0.000 A 
ATOM     22  C   UNL     1       4.919   4.933  19.264  0.00  0.00    +0.000 A 
ATOM     23  C   UNL     1       3.845   5.798  19.034  0.00  0.00    +0.000 A 
ENDBRANCH  17  18
ENDBRANCH  15  16
ENDBRANCH   1  15
BRANCH   4  24
ATOM     24  C   UNL     1      -1.519  12.795  20.206  0.00  0.00    +0.000 C 
BRANCH  24  25
ATOM     25  C   UNL     1      -0.932  14.108  20.739  0.00  0.00    +0.000 A 
ATOM     26  C   UNL     1      -0.117  14.131  21.883  0.00  0.00    +0.000 A 
ATOM     27  C   UNL     1       0.243  15.341  22.478  0.00  0.00    +0.000 A 
ATOM     28  C   UNL     1      -0.207  16.543  21.942  0.00  0.00    +0.000 A 
ATOM     29  C   UNL     1      -0.986  16.542  20.787  0.00  0.00    +0.000 A 
ATOM     30  C   UNL     1      -1.334  15.334  20.179  0.00  0.00    +0.000 A 
ENDBRANCH  24  25
BRANCH  24  31
ATOM     31  C   UNL     1      -3.036  12.679  20.403  0.00  0.00    +0.000 A 
ATOM     32  C   UNL     1      -3.586  12.839  21.695  0.00  0.00    +0.000 A 
ATOM     33  C   UNL     1      -4.966  12.740  21.917  0.00  0.00    +0.000 A 
ATOM     34  C   UNL     1      -5.823  12.483  20.852  0.00  0.00    +0.000 A 
ATOM     35  C   UNL     1      -5.302  12.322  19.570  0.00  0.00    +0.000 A 
ATOM     36  C   UNL     1      -3.919  12.401  19.348  0.00  0.00    +0.000 A 
ENDBRANCH  24  31
ENDBRANCH   4  24
TORSDOF 11
ENDMDL
MODEL 9
REMARK VINA RESULT:      -6.9      1.030      1.716
REMARK  Name = 
REMARK  11 active torsions:
REMARK  status: ('A' for Active; 'I' for Inactive)
REMARK    1  A    between atoms: P_2  and  O_3
REMARK    2  A    between atoms: P_2  and  O_4
REMARK    3  A    between atoms: P_2  and  O_5
REMARK    4  A    between atoms: O_5  and  C_6
REMARK    5  A    between atoms: C_6  and  N_7
REMARK    6  A    between atoms: N_7  and  C_8
REMARK    7  A    between atoms: C_8  and  C_9
REMARK    8  A    between atoms: C_10  and  C_11
REMARK    9  A    between atoms: N_19  and  C_20
REMARK   10  A    between atoms: C_20  and  C_21
REMARK   11  A    between atoms: C_20  and  C_27
REMARK                            x       y       z     vdW  Elec       q    Type
REMARK                         _______ _______ _______ _____ _____    ______ ____
ROOT
ATOM      1  N   UNL     1       0.687  10.059  19.152  0.00  0.00    +0.000 N 
ATOM      2  C   UNL     1      -0.853  10.046  19.257  0.00  0.00    +0.000 C 
ATOM      3  C   UNL     1      -1.517  11.211  18.506  0.00  0.00    +0.000 C 
ATOM      4  N   UNL     1      -1.042  12.543  18.920  0.00  0.00    +0.000 NA
ATOM      5  C   UNL     1       0.416  12.590  18.636  0.00  0.00    +0.000 C 
ATOM      6  C   UNL     1       1.259  11.496  19.329  0.00  0.00    +0.000 C 
ENDROOT
BRANCH   1   7
ATOM      7  C   UNL     1       1.269   9.219  20.282  0.00  0.00    +0.000 C 
BRANCH   7   8
ATOM      8  O   UNL     1       0.280   8.725  21.137  0.00  0.00    +0.000 OA
BRANCH   8  10
ATOM      9  O   UNL     1      -0.509  10.878  23.479  0.00  0.00    +0.000 OA
ATOM     10  P   UNL     1      -0.137   9.862  22.373  0.00  0.00    +0.000 P 
BRANCH  10  11
ATOM     11  O   UNL     1       1.320   9.536  23.021  0.00  0.00    +0.000 OA
ATOM     12  H   UNL     1       1.445   8.566  23.051  0.00  0.00    +0.000 HD
ENDBRANCH  10  11
BRANCH  10  13
ATOM     13  O   UNL     1      -0.969   8.652  23.081  0.00  0.00    +0.000 OA
ATOM     14  H   UNL     1      -0.322   7.986  23.394  0.00  0.00    +0.000 HD
ENDBRANCH  10  13
ENDBRANCH   8  10
ENDBRANCH   7   8
ENDBRANCH   1   7
BRANCH   1  15
ATOM     15  C   UNL     1       1.191   9.456  17.817  0.00  0.00    +0.000 C 
BRANCH  15  16
ATOM     16  C   UNL     1       2.403   8.579  17.951  0.00  0.00    +0.000 C 
ATOM     17  C   UNL     1       2.449   7.246  17.781  0.00  0.00    +0.000 C 
BRANCH  17  18
ATOM     18  C   UNL     1       3.734   6.547  17.908  0.00  0.00    +0.000 A 
ATOM     19  C   UNL     1       3.971   5.711  19.006  0.00  0.00    +0.000 A 
ATOM     20  C   UNL     1       5.224   5.117  19.177  0.00  0.00    +0.000 A 
ATOM     21  C   UNL     1       6.245   5.355  18.257  0.00  0.00    +0.000 A 
ATOM     22  C   UNL     1       6.012   6.181  17.160  0.00  0.00    +0.000 A 
ATOM     23  C   UNL     1       4.758   6.776  16.985  0.00  0.00    +0.000 A 
ENDBRANCH  17  18
ENDBRANCH  15  16
ENDBRANCH   1  15
BRANCH   4  24
ATOM     24  C   UNL     1      -1.363  12.895  20.346  0.00  0.00    +0.000 C 
BRANCH  24  25
ATOM     25  C   UNL     1      -0.718  14.233  20.728  0.00  0.00    +0.000 A 
ATOM     26  C   UNL     1       0.157  14.335  21.822  0.00  0.00    +0.000 A 
ATOM     27  C   UNL     1       0.578  15.582  22.287  0.00  0.00    +0.000 A 
ATOM     28  C   UNL     1       0.127  16.744  21.670  0.00  0.00    +0.000 A 
ATOM     29  C   UNL     1      -0.713  16.662  20.561  0.00  0.00    +0.000 A 
ATOM     30  C   UNL     1      -1.121  15.416  20.083  0.00  0.00    +0.000 A 
ENDBRANCH  24  25
BRANCH  24  31
ATOM     31  C   UNL     1      -2.847  12.802  20.726  0.00  0.00    +0.000 A 
ATOM     32  C   UNL     1      -3.824  12.706  19.709  0.00  0.00    +0.000 A 
ATOM     33  C   UNL     1      -5.187  12.619  20.014  0.00  0.00    +0.000 A 
ATOM     34  C   UNL     1      -5.603  12.623  21.341  0.00  0.00    +0.000 A 
ATOM     35  C   UNL     1      -4.658  12.717  22.360  0.00  0.00    +0.000 A 
ATOM     36  C   UNL     1      -3.292  12.825  22.057  0.00  0.00    +0.000 A 
ENDBRANCH  24  31
ENDBRANCH   4  24
TORSDOF 11
ENDMDL
