MODEL 1
REMARK VINA RESULT:      -5.1      0.000      0.000
REMARK  Name = 
REMARK  16 active torsions:
REMARK  status: ('A' for Active; 'I' for Inactive)
REMARK    1  A    between atoms: N_1  and  C_2
REMARK    2  A    between atoms: C_2  and  C_3
REMARK    3  A    between atoms: C_3  and  C_4
REMARK    4  A    between atoms: C_4  and  N_5
REMARK    5  A    between atoms: N_5  and  C_6
REMARK    6  A    between atoms: C_6  and  C_7
REMARK    7  A    between atoms: C_7  and  C_8
REMARK    8  A    between atoms: C_8  and  C_9
REMARK    9  A    between atoms: C_9  and  N_10
REMARK   10  A    between atoms: N_10  and  C_11
REMARK   11  A    between atoms: C_11  and  C_12
REMARK   12  A    between atoms: C_12  and  C_13
REMARK   13  A    between atoms: C_13  and  N_14
REMARK   14  A    between atoms: C_15  and  C_17
REMARK   15  A    between atoms: C_17  and  C_18
REMARK   16  A    between atoms: C_18  and  N_19
REMARK                            x       y       z     vdW  Elec       q    Type
REMARK                         _______ _______ _______ _____ _____    ______ ____
ROOT
ATOM      1  N   UNL     1       3.134   5.562  20.156  0.00  0.00    +0.000 NA
ATOM      2  H   UNL     1       3.433   5.003  19.359  0.00  0.00    +0.000 HD
ENDROOT
BRANCH   1   3
ATOM      3  C   UNL     1       2.435   4.689  21.095  0.00  0.00    +0.000 C 
BRANCH   3   4
ATOM      4  C   UNL     1       1.020   4.424  20.579  0.00  0.00    +0.000 C 
BRANCH   4   5
ATOM      5  C   UNL     1       0.911   3.107  19.797  0.00  0.00    +0.000 C 
BRANCH   5   6
ATOM      6  C   UNL     1       1.154   3.271  18.297  0.00  0.00    +0.000 C 
BRANCH   6   7
ATOM      7  N   UNL     1       1.800   2.085  17.738  0.00  0.00    +0.000 NA
ATOM      8  H   UNL     1       1.587   1.270  18.313  0.00  0.00    +0.000 HD
BRANCH   7   9
ATOM      9  C   UNL     1       3.249   2.247  17.675  0.00  0.00    +0.000 C 
BRANCH   9  10
ATOM     10  C   UNL     1       3.909   1.220  18.595  0.00  0.00    +0.000 C 
BRANCH  10  11
ATOM     11  C   UNL     1       4.406   1.895  19.870  0.00  0.00    +0.000 C 
BRANCH  11  12
ATOM     12  N   UNL     1       5.179   3.087  19.548  0.00  0.00    +0.000 NA
ATOM     13  H   UNL     1       4.552   3.887  19.477  0.00  0.00    +0.000 HD
ATOM     14  H   UNL     1       5.607   2.979  18.628  0.00  0.00    +0.000 HD
ENDBRANCH  11  12
ENDBRANCH  10  11
ENDBRANCH   9  10
ENDBRANCH   7   9
ENDBRANCH   6   7
ENDBRANCH   5   6
ENDBRANCH   4   5
ENDBRANCH   3   4
ENDBRANCH   1   3
BRANCH   1  15
ATOM     15  C   UNL     1       2.307   6.681  19.720  0.00  0.00    +0.000 C 
BRANCH  15  16
ATOM     16  C   UNL     1       2.765   7.198  18.351  0.00  0.00    +0.000 C 
BRANCH  16  17
ATOM     17  C   UNL     1       3.654   6.199  17.614  0.00  0.00    +0.000 C 
BRANCH  17  18
ATOM     18  N   UNL     1       5.047   6.584  17.641  0.00  0.00    +0.000 N 
ATOM     19  C   UNL     1       6.057   5.675  17.416  0.00  0.00    +0.000 C 
ATOM     20  O   UNL     1       5.854   4.502  17.119  0.00  0.00    +0.000 OA
ATOM     21  H   UNL     1       5.275   7.551  17.842  0.00  0.00    +0.000 HD
BRANCH  19  22
ATOM     22  C   UNL     1       7.445   6.254  17.530  0.00  0.00    +0.000 C 
BRANCH  22  23
ATOM     23  C   UNL     1       7.935   6.131  18.967  0.00  0.00    +0.000 C 
BRANCH  23  24
ATOM     24  N   UNL     1       6.975   5.389  19.781  0.00  0.00    +0.000 NA
ATOM     25  H   UNL     1       6.028   5.718  19.599  0.00  0.00    +0.000 HD
ATOM     26  H   UNL     1       7.158   5.568  20.768  0.00  0.00    +0.000 HD
ENDBRANCH  23  24
ENDBRANCH  22  23
ENDBRANCH  19  22
ENDBRANCH  17  18
ENDBRANCH  16  17
ENDBRANCH  15  16
ENDBRANCH   1  15
TORSDOF 16
ENDMDL
MODEL 2
REMARK VINA RESULT:      -4.9      2.213      3.739
REMARK  Name = 
REMARK  16 active torsions:
REMARK  status: ('A' for Active; 'I' for Inactive)
REMARK    1  A    between atoms: N_1  and  C_2
REMARK    2  A    between atoms: C_2  and  C_3
REMARK    3  A    between atoms: C_3  and  C_4
REMARK    4  A    between atoms: C_4  and  N_5
REMARK    5  A    between atoms: N_5  and  C_6
REMARK    6  A    between atoms: C_6  and  C_7
REMARK    7  A    between atoms: C_7  and  C_8
REMARK    8  A    between atoms: C_8  and  C_9
REMARK    9  A    between atoms: C_9  and  N_10
REMARK   10  A    between atoms: N_10  and  C_11
REMARK   11  A    between atoms: C_11  and  C_12
REMARK   12  A    between atoms: C_12  and  C_13
REMARK   13  A    between atoms: C_13  and  N_14
REMARK   14  A    between atoms: C_15  and  C_17
REMARK   15  A    between atoms: C_17  and  C_18
REMARK   16  A    between atoms: C_18  and  N_19
REMARK                            x       y       z     vdW  Elec       q    Type
REMARK                         _______ _______ _______ _____ _____    ______ ____
ROOT
ATOM      1  N   UNL     1       6.415   4.310  18.692  0.00  0.00    +0.000 NA
ATOM      2  H   UNL     1       6.386   4.538  17.700  0.00  0.00    +0.000 HD
ENDROOT
BRANCH   1   3
ATOM      3  C   UNL     1       5.063   3.975  19.128  0.00  0.00    +0.000 C 
BRANCH   3   4
ATOM      4  C   UNL     1       4.177   3.757  17.900  0.00  0.00    +0.000 C 
BRANCH   4   5
ATOM      5  C   UNL     1       3.094   4.835  17.751  0.00  0.00    +0.000 C 
BRANCH   5   6
ATOM      6  C   UNL     1       1.680   4.263  17.652  0.00  0.00    +0.000 C 
BRANCH   6   7
ATOM      7  N   UNL     1       1.585   2.979  18.346  0.00  0.00    +0.000 NA
ATOM      8  H   UNL     1       1.056   2.317  17.781  0.00  0.00    +0.000 HD
BRANCH   7   9
ATOM      9  C   UNL     1       0.927   3.121  19.641  0.00  0.00    +0.000 C 
BRANCH   9  10
ATOM     10  C   UNL     1       1.819   2.519  20.726  0.00  0.00    +0.000 C 
BRANCH  10  11
ATOM     11  C   UNL     1       2.181   3.580  21.761  0.00  0.00    +0.000 C 
BRANCH  11  12
ATOM     12  N   UNL     1       2.150   4.908  21.163  0.00  0.00    +0.000 NA
ATOM     13  H   UNL     1       1.252   5.347  21.363  0.00  0.00    +0.000 HD
ATOM     14  H   UNL     1       2.207   4.827  20.148  0.00  0.00    +0.000 HD
ENDBRANCH  11  12
ENDBRANCH  10  11
ENDBRANCH   9  10
ENDBRANCH   7   9
ENDBRANCH   6   7
ENDBRANCH   5   6
ENDBRANCH   4   5
ENDBRANCH   3   4
ENDBRANCH   1   3
BRANCH   1  15
ATOM     15  C   UNL     1       6.988   5.411  19.457  0.00  0.00    +0.000 C 
BRANCH  15  16
ATOM     16  C   UNL     1       7.757   6.370  18.543  0.00  0.00    +0.000 C 
BRANCH  16  17
ATOM     17  C   UNL     1       6.894   6.921  17.410  0.00  0.00    +0.000 C 
BRANCH  17  18
ATOM     18  N   UNL     1       6.727   5.965  16.338  0.00  0.00    +0.000 N 
ATOM     19  C   UNL     1       5.681   6.050  15.446  0.00  0.00    +0.000 C 
ATOM     20  O   UNL     1       4.860   6.962  15.454  0.00  0.00    +0.000 OA
ATOM     21  H   UNL     1       7.398   5.210  16.257  0.00  0.00    +0.000 HD
BRANCH  19  22
ATOM     22  C   UNL     1       5.647   4.938  14.427  0.00  0.00    +0.000 C 
BRANCH  22  23
ATOM     23  C   UNL     1       7.058   4.412  14.197  0.00  0.00    +0.000 C 
BRANCH  23  24
ATOM     24  N   UNL     1       7.878   5.409  13.512  0.00  0.00    +0.000 NA
ATOM     25  H   UNL     1       8.625   5.732  14.124  0.00  0.00    +0.000 HD
ATOM     26  H   UNL     1       7.308   6.226  13.296  0.00  0.00    +0.000 HD
ENDBRANCH  23  24
ENDBRANCH  22  23
ENDBRANCH  19  22
ENDBRANCH  17  18
ENDBRANCH  16  17
ENDBRANCH  15  16
ENDBRANCH   1  15
TORSDOF 16
ENDMDL
MODEL 3
REMARK VINA RESULT:      -4.6      2.801      3.814
REMARK  Name = 
REMARK  16 active torsions:
REMARK  status: ('A' for Active; 'I' for Inactive)
REMARK    1  A    between atoms: N_1  and  C_2
REMARK    2  A    between atoms: C_2  and  C_3
REMARK    3  A    between atoms: C_3  and  C_4
REMARK    4  A    between atoms: C_4  and  N_5
REMARK    5  A    between atoms: N_5  and  C_6
REMARK    6  A    between atoms: C_6  and  C_7
REMARK    7  A    between atoms: C_7  and  C_8
REMARK    8  A    between atoms: C_8  and  C_9
REMARK    9  A    between atoms: C_9  and  N_10
REMARK   10  A    between atoms: N_10  and  C_11
REMARK   11  A    between atoms: C_11  and  C_12
REMARK   12  A    between atoms: C_12  and  C_13
REMARK   13  A    between atoms: C_13  and  N_14
REMARK   14  A    between atoms: C_15  and  C_17
REMARK   15  A    between atoms: C_17  and  C_18
REMARK   16  A    between atoms: C_18  and  N_19
REMARK                            x       y       z     vdW  Elec       q    Type
REMARK                         _______ _______ _______ _____ _____    ______ ____
ROOT
ATOM      1  N   UNL     1       3.801   5.487  17.568  0.00  0.00    +0.000 NA
ATOM      2  H   UNL     1       4.237   6.143  16.922  0.00  0.00    +0.000 HD
ENDROOT
BRANCH   1   3
ATOM      3  C   UNL     1       2.759   6.191  18.308  0.00  0.00    +0.000 C 
BRANCH   3   4
ATOM      4  C   UNL     1       2.950   5.944  19.805  0.00  0.00    +0.000 C 
BRANCH   4   5
ATOM      5  C   UNL     1       1.644   5.551  20.513  0.00  0.00    +0.000 C 
BRANCH   5   6
ATOM      6  C   UNL     1       1.576   4.068  20.877  0.00  0.00    +0.000 C 
BRANCH   6   7
ATOM      7  N   UNL     1       0.436   3.421  20.228  0.00  0.00    +0.000 NA
ATOM      8  H   UNL     1       0.023   2.734  20.858  0.00  0.00    +0.000 HD
BRANCH   7   9
ATOM      9  C   UNL     1       0.836   2.748  18.997  0.00  0.00    +0.000 C 
BRANCH   9  10
ATOM     10  C   UNL     1       2.042   1.853  19.284  0.00  0.00    +0.000 C 
BRANCH  10  11
ATOM     11  C   UNL     1       2.953   1.787  18.062  0.00  0.00    +0.000 C 
BRANCH  11  12
ATOM     12  N   UNL     1       4.079   0.897  18.311  0.00  0.00    +0.000 NA
ATOM     13  H   UNL     1       4.865   1.174  17.725  0.00  0.00    +0.000 HD
ATOM     14  H   UNL     1       3.834  -0.052  18.028  0.00  0.00    +0.000 HD
ENDBRANCH  11  12
ENDBRANCH  10  11
ENDBRANCH   9  10
ENDBRANCH   7   9
ENDBRANCH   6   7
ENDBRANCH   5   6
ENDBRANCH   4   5
ENDBRANCH   3   4
ENDBRANCH   1   3
BRANCH   1  15
ATOM     15  C   UNL     1       4.799   4.889  18.447  0.00  0.00    +0.000 C 
BRANCH  15  16
ATOM     16  C   UNL     1       6.183   5.496  18.195  0.00  0.00    +0.000 C 
BRANCH  16  17
ATOM     17  C   UNL     1       7.013   4.675  17.210  0.00  0.00    +0.000 C 
BRANCH  17  18
ATOM     18  N   UNL     1       6.242   4.258  16.061  0.00  0.00    +0.000 N 
ATOM     19  C   UNL     1       6.579   4.640  14.782  0.00  0.00    +0.000 C 
ATOM     20  O   UNL     1       7.579   5.300  14.517  0.00  0.00    +0.000 OA
ATOM     21  H   UNL     1       5.426   3.677  16.215  0.00  0.00    +0.000 HD
BRANCH  19  22
ATOM     22  C   UNL     1       5.630   4.144  13.719  0.00  0.00    +0.000 C 
BRANCH  22  23
ATOM     23  C   UNL     1       6.415   3.443  12.618  0.00  0.00    +0.000 C 
BRANCH  23  24
ATOM     24  N   UNL     1       7.239   4.399  11.880  0.00  0.00    +0.000 NA
ATOM     25  H   UNL     1       7.981   4.760  12.476  0.00  0.00    +0.000 HD
ATOM     26  H   UNL     1       6.669   5.200  11.610  0.00  0.00    +0.000 HD
ENDBRANCH  23  24
ENDBRANCH  22  23
ENDBRANCH  19  22
ENDBRANCH  17  18
ENDBRANCH  16  17
ENDBRANCH  15  16
ENDBRANCH   1  15
TORSDOF 16
ENDMDL
MODEL 4
REMARK VINA RESULT:      -4.6      2.720      4.224
REMARK  Name = 
REMARK  16 active torsions:
REMARK  status: ('A' for Active; 'I' for Inactive)
REMARK    1  A    between atoms: N_1  and  C_2
REMARK    2  A    between atoms: C_2  and  C_3
REMARK    3  A    between atoms: C_3  and  C_4
REMARK    4  A    between atoms: C_4  and  N_5
REMARK    5  A    between atoms: N_5  and  C_6
REMARK    6  A    between atoms: C_6  and  C_7
REMARK    7  A    between atoms: C_7  and  C_8
REMARK    8  A    between atoms: C_8  and  C_9
REMARK    9  A    between atoms: C_9  and  N_10
REMARK   10  A    between atoms: N_10  and  C_11
REMARK   11  A    between atoms: C_11  and  C_12
REMARK   12  A    between atoms: C_12  and  C_13
REMARK   13  A    between atoms: C_13  and  N_14
REMARK   14  A    between atoms: C_15  and  C_17
REMARK   15  A    between atoms: C_17  and  C_18
REMARK   16  A    between atoms: C_18  and  N_19
REMARK                            x       y       z     vdW  Elec       q    Type
REMARK                         _______ _______ _______ _____ _____    ______ ____
ROOT
ATOM      1  N   UNL     1       6.624   4.876  19.586  0.00  0.00    +0.000 NA
ATOM      2  H   UNL     1       6.816   3.976  20.023  0.00  0.00    +0.000 HD
ENDROOT
BRANCH   1   3
ATOM      3  C   UNL     1       5.201   4.940  19.269  0.00  0.00    +0.000 C 
BRANCH   3   4
ATOM      4  C   UNL     1       4.701   3.541  18.906  0.00  0.00    +0.000 C 
BRANCH   4   5
ATOM      5  C   UNL     1       4.067   3.482  17.509  0.00  0.00    +0.000 C 
BRANCH   5   6
ATOM      6  C   UNL     1       2.614   3.955  17.484  0.00  0.00    +0.000 C 
BRANCH   6   7
ATOM      7  N   UNL     1       1.749   3.031  18.216  0.00  0.00    +0.000 NA
ATOM      8  H   UNL     1       1.020   2.676  17.600  0.00  0.00    +0.000 HD
BRANCH   7   9
ATOM      9  C   UNL     1       1.120   3.683  19.360  0.00  0.00    +0.000 C 
BRANCH   9  10
ATOM     10  C   UNL     1       1.323   2.819  20.605  0.00  0.00    +0.000 C 
BRANCH  10  11
ATOM     11  C   UNL     1       2.191   3.554  21.622  0.00  0.00    +0.000 C 
BRANCH  11  12
ATOM     12  N   UNL     1       2.303   4.964  21.274  0.00  0.00    +0.000 NA
ATOM     13  H   UNL     1       1.616   5.190  20.556  0.00  0.00    +0.000 HD
ATOM     14  H   UNL     1       3.217   5.142  20.858  0.00  0.00    +0.000 HD
ENDBRANCH  11  12
ENDBRANCH  10  11
ENDBRANCH   9  10
ENDBRANCH   7   9
ENDBRANCH   6   7
ENDBRANCH   5   6
ENDBRANCH   4   5
ENDBRANCH   3   4
ENDBRANCH   1   3
BRANCH   1  15
ATOM     15  C   UNL     1       7.464   5.067  18.409  0.00  0.00    +0.000 C 
BRANCH  15  16
ATOM     16  C   UNL     1       7.506   6.543  18.002  0.00  0.00    +0.000 C 
BRANCH  16  17
ATOM     17  C   UNL     1       7.222   6.752  16.516  0.00  0.00    +0.000 C 
BRANCH  17  18
ATOM     18  N   UNL     1       6.606   5.592  15.910  0.00  0.00    +0.000 N 
ATOM     19  C   UNL     1       7.019   5.105  14.690  0.00  0.00    +0.000 C 
ATOM     20  O   UNL     1       7.966   5.570  14.064  0.00  0.00    +0.000 OA
ATOM     21  H   UNL     1       5.844   5.140  16.402  0.00  0.00    +0.000 HD
BRANCH  19  22
ATOM     22  C   UNL     1       6.228   3.917  14.201  0.00  0.00    +0.000 C 
BRANCH  22  23
ATOM     23  C   UNL     1       6.440   3.744  12.703  0.00  0.00    +0.000 C 
BRANCH  23  24
ATOM     24  N   UNL     1       5.903   2.462  12.247  0.00  0.00    +0.000 NA
ATOM     25  H   UNL     1       6.655   1.785  12.134  0.00  0.00    +0.000 HD
ATOM     26  H   UNL     1       5.480   2.581  11.327  0.00  0.00    +0.000 HD
ENDBRANCH  23  24
ENDBRANCH  22  23
ENDBRANCH  19  22
ENDBRANCH  17  18
ENDBRANCH  16  17
ENDBRANCH  15  16
ENDBRANCH   1  15
TORSDOF 16
ENDMDL
MODEL 5
REMARK VINA RESULT:      -4.6      2.135      5.432
REMARK  Name = 
REMARK  16 active torsions:
REMARK  status: ('A' for Active; 'I' for Inactive)
REMARK    1  A    between atoms: N_1  and  C_2
REMARK    2  A    between atoms: C_2  and  C_3
REMARK    3  A    between atoms: C_3  and  C_4
REMARK    4  A    between atoms: C_4  and  N_5
REMARK    5  A    between atoms: N_5  and  C_6
REMARK    6  A    between atoms: C_6  and  C_7
REMARK    7  A    between atoms: C_7  and  C_8
REMARK    8  A    between atoms: C_8  and  C_9
REMARK    9  A    between atoms: C_9  and  N_10
REMARK   10  A    between atoms: N_10  and  C_11
REMARK   11  A    between atoms: C_11  and  C_12
REMARK   12  A    between atoms: C_12  and  C_13
REMARK   13  A    between atoms: C_13  and  N_14
REMARK   14  A    between atoms: C_15  and  C_17
REMARK   15  A    between atoms: C_17  and  C_18
REMARK   16  A    between atoms: C_18  and  N_19
REMARK                            x       y       z     vdW  Elec       q    Type
REMARK                         _______ _______ _______ _____ _____    ______ ____
ROOT
ATOM      1  N   UNL     1       4.358   3.107  18.174  0.00  0.00    +0.000 NA
ATOM      2  H   UNL     1       4.543   3.688  18.989  0.00  0.00    +0.000 HD
ENDROOT
BRANCH   1   3
ATOM      3  C   UNL     1       3.722   3.933  17.153  0.00  0.00    +0.000 C 
BRANCH   3   4
ATOM      4  C   UNL     1       4.451   3.738  15.822  0.00  0.00    +0.000 C 
BRANCH   4   5
ATOM      5  C   UNL     1       5.388   4.907  15.482  0.00  0.00    +0.000 C 
BRANCH   5   6
ATOM      6  C   UNL     1       6.849   4.486  15.332  0.00  0.00    +0.000 C 
BRANCH   6   7
ATOM      7  N   UNL     1       7.690   5.149  16.327  0.00  0.00    +0.000 NA
ATOM      8  H   UNL     1       7.956   4.485  17.054  0.00  0.00    +0.000 HD
BRANCH   7   9
ATOM      9  C   UNL     1       6.996   6.271  16.950  0.00  0.00    +0.000 C 
BRANCH   9  10
ATOM     10  C   UNL     1       7.599   6.529  18.331  0.00  0.00    +0.000 C 
BRANCH  10  11
ATOM     11  C   UNL     1       7.118   5.474  19.323  0.00  0.00    +0.000 C 
BRANCH  11  12
ATOM     12  N   UNL     1       8.052   5.354  20.434  0.00  0.00    +0.000 NA
ATOM     13  H   UNL     1       8.529   4.455  20.378  0.00  0.00    +0.000 HD
ATOM     14  H   UNL     1       7.537   5.349  21.314  0.00  0.00    +0.000 HD
ENDBRANCH  11  12
ENDBRANCH  10  11
ENDBRANCH   9  10
ENDBRANCH   7   9
ENDBRANCH   6   7
ENDBRANCH   5   6
ENDBRANCH   4   5
ENDBRANCH   3   4
ENDBRANCH   1   3
BRANCH   1  15
ATOM     15  C   UNL     1       3.546   1.952  18.537  0.00  0.00    +0.000 C 
BRANCH  15  16
ATOM     16  C   UNL     1       2.135   2.069  17.951  0.00  0.00    +0.000 C 
BRANCH  16  17
ATOM     17  C   UNL     1       1.087   2.415  19.007  0.00  0.00    +0.000 C 
BRANCH  17  18
ATOM     18  N   UNL     1       1.135   3.809  19.388  0.00  0.00    +0.000 N 
ATOM     19  C   UNL     1       1.545   4.206  20.641  0.00  0.00    +0.000 C 
ATOM     20  O   UNL     1       1.955   3.426  21.495  0.00  0.00    +0.000 OA
ATOM     21  H   UNL     1       0.846   4.503  18.709  0.00  0.00    +0.000 HD
BRANCH  19  22
ATOM     22  C   UNL     1       1.484   5.696  20.867  0.00  0.00    +0.000 C 
BRANCH  22  23
ATOM     23  C   UNL     1       2.411   6.401  19.886  0.00  0.00    +0.000 C 
BRANCH  23  24
ATOM     24  N   UNL     1       3.736   5.784  19.887  0.00  0.00    +0.000 NA
ATOM     25  H   UNL     1       3.975   5.458  18.952  0.00  0.00    +0.000 HD
ATOM     26  H   UNL     1       3.724   4.958  20.486  0.00  0.00    +0.000 HD
ENDBRANCH  23  24
ENDBRANCH  22  23
ENDBRANCH  19  22
ENDBRANCH  17  18
ENDBRANCH  16  17
ENDBRANCH  15  16
ENDBRANCH   1  15
TORSDOF 16
ENDMDL
MODEL 6
REMARK VINA RESULT:      -4.6      2.585      4.294
REMARK  Name = 
REMARK  16 active torsions:
REMARK  status: ('A' for Active; 'I' for Inactive)
REMARK    1  A    between atoms: N_1  and  C_2
REMARK    2  A    between atoms: C_2  and  C_3
REMARK    3  A    between atoms: C_3  and  C_4
REMARK    4  A    between atoms: C_4  and  N_5
REMARK    5  A    between atoms: N_5  and  C_6
REMARK    6  A    between atoms: C_6  and  C_7
REMARK    7  A    between atoms: C_7  and  C_8
REMARK    8  A    between atoms: C_8  and  C_9
REMARK    9  A    between atoms: C_9  and  N_10
REMARK   10  A    between atoms: N_10  and  C_11
REMARK   11  A    between atoms: C_11  and  C_12
REMARK   12  A    between atoms: C_12  and  C_13
REMARK   13  A    between atoms: C_13  and  N_14
REMARK   14  A    between atoms: C_15  and  C_17
REMARK   15  A    between atoms: C_17  and  C_18
REMARK   16  A    between atoms: C_18  and  N_19
REMARK                            x       y       z     vdW  Elec       q    Type
REMARK                         _______ _______ _______ _____ _____    ______ ____
ROOT
ATOM      1  N   UNL     1       5.114   5.265  18.938  0.00  0.00    +0.000 NA
ATOM      2  H   UNL     1       5.082   4.342  18.508  0.00  0.00    +0.000 HD
ENDROOT
BRANCH   1   3
ATOM      3  C   UNL     1       4.485   6.218  18.030  0.00  0.00    +0.000 C 
BRANCH   3   4
ATOM      4  C   UNL     1       2.977   6.235  18.282  0.00  0.00    +0.000 C 
BRANCH   4   5
ATOM      5  C   UNL     1       2.623   6.573  19.738  0.00  0.00    +0.000 C 
BRANCH   5   6
ATOM      6  C   UNL     1       1.771   5.502  20.418  0.00  0.00    +0.000 C 
BRANCH   6   7
ATOM      7  N   UNL     1       2.545   4.776  21.424  0.00  0.00    +0.000 NA
ATOM      8  H   UNL     1       3.522   4.726  21.139  0.00  0.00    +0.000 HD
BRANCH   7   9
ATOM      9  C   UNL     1       2.040   3.420  21.608  0.00  0.00    +0.000 C 
BRANCH   9  10
ATOM     10  C   UNL     1       1.181   3.036  20.403  0.00  0.00    +0.000 C 
BRANCH  10  11
ATOM     11  C   UNL     1       1.903   1.998  19.549  0.00  0.00    +0.000 C 
BRANCH  11  12
ATOM     12  N   UNL     1       1.334   1.955  18.209  0.00  0.00    +0.000 NA
ATOM     13  H   UNL     1       0.864   1.061  18.071  0.00  0.00    +0.000 HD
ATOM     14  H   UNL     1       2.084   1.991  17.518  0.00  0.00    +0.000 HD
ENDBRANCH  11  12
ENDBRANCH  10  11
ENDBRANCH   9  10
ENDBRANCH   7   9
ENDBRANCH   6   7
ENDBRANCH   5   6
ENDBRANCH   4   5
ENDBRANCH   3   4
ENDBRANCH   1   3
BRANCH   1  15
ATOM     15  C   UNL     1       6.486   5.633  19.266  0.00  0.00    +0.000 C 
BRANCH  15  16
ATOM     16  C   UNL     1       7.326   5.799  17.995  0.00  0.00    +0.000 C 
BRANCH  16  17
ATOM     17  C   UNL     1       7.662   4.464  17.334  0.00  0.00    +0.000 C 
BRANCH  17  18
ATOM     18  N   UNL     1       6.721   4.119  16.292  0.00  0.00    +0.000 N 
ATOM     19  C   UNL     1       6.790   4.679  15.036  0.00  0.00    +0.000 C 
ATOM     20  O   UNL     1       7.677   5.454  14.691  0.00  0.00    +0.000 OA
ATOM     21  H   UNL     1       5.989   3.452  16.507  0.00  0.00    +0.000 HD
BRANCH  19  22
ATOM     22  C   UNL     1       5.697   4.230  14.099  0.00  0.00    +0.000 C 
BRANCH  22  23
ATOM     23  C   UNL     1       6.307   3.481  12.921  0.00  0.00    +0.000 C 
BRANCH  23  24
ATOM     24  N   UNL     1       7.137   4.372  12.113  0.00  0.00    +0.000 NA
ATOM     25  H   UNL     1       7.333   5.232  12.623  0.00  0.00    +0.000 HD
ATOM     26  H   UNL     1       6.623   4.645  11.275  0.00  0.00    +0.000 HD
ENDBRANCH  23  24
ENDBRANCH  22  23
ENDBRANCH  19  22
ENDBRANCH  17  18
ENDBRANCH  16  17
ENDBRANCH  15  16
ENDBRANCH   1  15
TORSDOF 16
ENDMDL
MODEL 7
REMARK VINA RESULT:      -4.5      2.536      3.683
REMARK  Name = 
REMARK  16 active torsions:
REMARK  status: ('A' for Active; 'I' for Inactive)
REMARK    1  A    between atoms: N_1  and  C_2
REMARK    2  A    between atoms: C_2  and  C_3
REMARK    3  A    between atoms: C_3  and  C_4
REMARK    4  A    between atoms: C_4  and  N_5
REMARK    5  A    between atoms: N_5  and  C_6
REMARK    6  A    between atoms: C_6  and  C_7
REMARK    7  A    between atoms: C_7  and  C_8
REMARK    8  A    between atoms: C_8  and  C_9
REMARK    9  A    between atoms: C_9  and  N_10
REMARK   10  A    between atoms: N_10  and  C_11
REMARK   11  A    between atoms: C_11  and  C_12
REMARK   12  A    between atoms: C_12  and  C_13
REMARK   13  A    between atoms: C_13  and  N_14
REMARK   14  A    between atoms: C_15  and  C_17
REMARK   15  A    between atoms: C_17  and  C_18
REMARK   16  A    between atoms: C_18  and  N_19
REMARK                            x       y       z     vdW  Elec       q    Type
REMARK                         _______ _______ _______ _____ _____    ______ ____
ROOT
ATOM      1  N   UNL     1       5.530   5.048  18.723  0.00  0.00    +0.000 NA
ATOM      2  H   UNL     1       5.524   5.418  17.774  0.00  0.00    +0.000 HD
ENDROOT
BRANCH   1   3
ATOM      3  C   UNL     1       4.292   5.451  19.383  0.00  0.00    +0.000 C 
BRANCH   3   4
ATOM      4  C   UNL     1       3.471   6.318  18.427  0.00  0.00    +0.000 C 
BRANCH   4   5
ATOM      5  C   UNL     1       2.080   5.733  18.142  0.00  0.00    +0.000 C 
BRANCH   5   6
ATOM      6  C   UNL     1       2.128   4.341  17.513  0.00  0.00    +0.000 C 
BRANCH   6   7
ATOM      7  N   UNL     1       1.165   3.444  18.151  0.00  0.00    +0.000 NA
ATOM      8  H   UNL     1       0.746   3.903  18.958  0.00  0.00    +0.000 HD
BRANCH   7   9
ATOM      9  C   UNL     1       1.801   2.207  18.593  0.00  0.00    +0.000 C 
BRANCH   9  10
ATOM     10  C   UNL     1       2.454   2.439  19.956  0.00  0.00    +0.000 C 
BRANCH  10  11
ATOM     11  C   UNL     1       1.501   3.195  20.876  0.00  0.00    +0.000 C 
BRANCH  11  12
ATOM     12  N   UNL     1       1.447   2.563  22.188  0.00  0.00    +0.000 NA
ATOM     13  H   UNL     1       2.210   1.892  22.270  0.00  0.00    +0.000 HD
ATOM     14  H   UNL     1       0.585   2.024  22.272  0.00  0.00    +0.000 HD
ENDBRANCH  11  12
ENDBRANCH  10  11
ENDBRANCH   9  10
ENDBRANCH   7   9
ENDBRANCH   6   7
ENDBRANCH   5   6
ENDBRANCH   4   5
ENDBRANCH   3   4
ENDBRANCH   1   3
BRANCH   1  15
ATOM     15  C   UNL     1       6.715   5.499  19.444  0.00  0.00    +0.000 C 
BRANCH  15  16
ATOM     16  C   UNL     1       7.768   6.049  18.475  0.00  0.00    +0.000 C 
BRANCH  16  17
ATOM     17  C   UNL     1       7.152   6.612  17.196  0.00  0.00    +0.000 C 
BRANCH  17  18
ATOM     18  N   UNL     1       7.412   5.772  16.049  0.00  0.00    +0.000 N 
ATOM     19  C   UNL     1       6.395   5.147  15.362  0.00  0.00    +0.000 C 
ATOM     20  O   UNL     1       5.207   5.302  15.627  0.00  0.00    +0.000 OA
ATOM     21  H   UNL     1       8.373   5.638  15.758  0.00  0.00    +0.000 HD
BRANCH  19  22
ATOM     22  C   UNL     1       6.865   4.276  14.223  0.00  0.00    +0.000 C 
BRANCH  22  23
ATOM     23  C   UNL     1       7.321   5.152  13.063  0.00  0.00    +0.000 C 
BRANCH  23  24
ATOM     24  N   UNL     1       8.586   5.813  13.379  0.00  0.00    +0.000 NA
ATOM     25  H   UNL     1       8.609   6.081  14.361  0.00  0.00    +0.000 HD
ATOM     26  H   UNL     1       8.659   6.677  12.842  0.00  0.00    +0.000 HD
ENDBRANCH  23  24
ENDBRANCH  22  23
ENDBRANCH  19  22
ENDBRANCH  17  18
ENDBRANCH  16  17
ENDBRANCH  15  16
ENDBRANCH   1  15
TORSDOF 16
ENDMDL
MODEL 8
REMARK VINA RESULT:      -4.5      2.851      5.913
REMARK  Name = 
REMARK  16 active torsions:
REMARK  status: ('A' for Active; 'I' for Inactive)
REMARK    1  A    between atoms: N_1  and  C_2
REMARK    2  A    between atoms: C_2  and  C_3
REMARK    3  A    between atoms: C_3  and  C_4
REMARK    4  A    between atoms: C_4  and  N_5
REMARK    5  A    between atoms: N_5  and  C_6
REMARK    6  A    between atoms: C_6  and  C_7
REMARK    7  A    between atoms: C_7  and  C_8
REMARK    8  A    between atoms: C_8  and  C_9
REMARK    9  A    between atoms: C_9  and  N_10
REMARK   10  A    between atoms: N_10  and  C_11
REMARK   11  A    between atoms: C_11  and  C_12
REMARK   12  A    between atoms: C_12  and  C_13
REMARK   13  A    between atoms: C_13  and  N_14
REMARK   14  A    between atoms: C_15  and  C_17
REMARK   15  A    between atoms: C_17  and  C_18
REMARK   16  A    between atoms: C_18  and  N_19
REMARK                            x       y       z     vdW  Elec       q    Type
REMARK                         _______ _______ _______ _____ _____    ______ ____
ROOT
ATOM      1  N   UNL     1       3.938   5.142  18.734  0.00  0.00    +0.000 NA
ATOM      2  H   UNL     1       3.445   6.017  18.900  0.00  0.00    +0.000 HD
ENDROOT
BRANCH   1   3
ATOM      3  C   UNL     1       5.373   5.399  18.817  0.00  0.00    +0.000 C 
BRANCH   3   4
ATOM      4  C   UNL     1       5.747   6.492  17.815  0.00  0.00    +0.000 C 
BRANCH   4   5
ATOM      5  C   UNL     1       7.127   6.266  17.180  0.00  0.00    +0.000 C 
BRANCH   5   6
ATOM      6  C   UNL     1       7.488   4.789  17.026  0.00  0.00    +0.000 C 
BRANCH   6   7
ATOM      7  N   UNL     1       7.620   4.425  15.616  0.00  0.00    +0.000 NA
ATOM      8  H   UNL     1       8.466   4.842  15.229  0.00  0.00    +0.000 HD
BRANCH   7   9
ATOM      9  C   UNL     1       6.473   4.882  14.839  0.00  0.00    +0.000 C 
BRANCH   9  10
ATOM     10  C   UNL     1       6.314   3.989  13.608  0.00  0.00    +0.000 C 
BRANCH  10  11
ATOM     11  C   UNL     1       7.310   4.399  12.526  0.00  0.00    +0.000 C 
BRANCH  11  12
ATOM     12  N   UNL     1       7.973   5.644  12.888  0.00  0.00    +0.000 NA
ATOM     13  H   UNL     1       7.271   6.356  13.082  0.00  0.00    +0.000 HD
ATOM     14  H   UNL     1       8.513   5.987  12.093  0.00  0.00    +0.000 HD
ENDBRANCH  11  12
ENDBRANCH  10  11
ENDBRANCH   9  10
ENDBRANCH   7   9
ENDBRANCH   6   7
ENDBRANCH   5   6
ENDBRANCH   4   5
ENDBRANCH   3   4
ENDBRANCH   1   3
BRANCH   1  15
ATOM     15  C   UNL     1       3.551   4.567  17.451  0.00  0.00    +0.000 C 
BRANCH  15  16
ATOM     16  C   UNL     1       4.206   3.197  17.246  0.00  0.00    +0.000 C 
BRANCH  16  17
ATOM     17  C   UNL     1       3.415   2.064  17.896  0.00  0.00    +0.000 C 
BRANCH  17  18
ATOM     18  N   UNL     1       2.796   2.473  19.138  0.00  0.00    +0.000 N 
ATOM     19  C   UNL     1       1.428   2.507  19.290  0.00  0.00    +0.000 C 
ATOM     20  O   UNL     1       0.643   2.140  18.422  0.00  0.00    +0.000 OA
ATOM     21  H   UNL     1       3.396   2.750  19.906  0.00  0.00    +0.000 HD
BRANCH  19  22
ATOM     22  C   UNL     1       0.970   3.003  20.640  0.00  0.00    +0.000 C 
BRANCH  22  23
ATOM     23  C   UNL     1       1.126   4.516  20.709  0.00  0.00    +0.000 C 
BRANCH  23  24
ATOM     24  N   UNL     1       2.441   4.879  21.233  0.00  0.00    +0.000 NA
ATOM     25  H   UNL     1       2.385   5.754  21.752  0.00  0.00    +0.000 HD
ATOM     26  H   UNL     1       3.080   5.045  20.457  0.00  0.00    +0.000 HD
ENDBRANCH  23  24
ENDBRANCH  22  23
ENDBRANCH  19  22
ENDBRANCH  17  18
ENDBRANCH  16  17
ENDBRANCH  15  16
ENDBRANCH   1  15
TORSDOF 16
ENDMDL
MODEL 9
REMARK VINA RESULT:      -4.5      2.901      5.823
REMARK  Name = 
REMARK  16 active torsions:
REMARK  status: ('A' for Active; 'I' for Inactive)
REMARK    1  A    between atoms: N_1  and  C_2
REMARK    2  A    between atoms: C_2  and  C_3
REMARK    3  A    between atoms: C_3  and  C_4
REMARK    4  A    between atoms: C_4  and  N_5
REMARK    5  A    between atoms: N_5  and  C_6
REMARK    6  A    between atoms: C_6  and  C_7
REMARK    7  A    between atoms: C_7  and  C_8
REMARK    8  A    between atoms: C_8  and  C_9
REMARK    9  A    between atoms: C_9  and  N_10
REMARK   10  A    between atoms: N_10  and  C_11
REMARK   11  A    between atoms: C_11  and  C_12
REMARK   12  A    between atoms: C_12  and  C_13
REMARK   13  A    between atoms: C_13  and  N_14
REMARK   14  A    between atoms: C_15  and  C_17
REMARK   15  A    between atoms: C_17  and  C_18
REMARK   16  A    between atoms: C_18  and  N_19
REMARK                            x       y       z     vdW  Elec       q    Type
REMARK                         _______ _______ _______ _____ _____    ______ ____
ROOT
ATOM      1  N   UNL     1       4.298   5.469  17.561  0.00  0.00    +0.000 NA
ATOM      2  H   UNL     1       4.882   5.519  16.729  0.00  0.00    +0.000 HD
ENDROOT
BRANCH   1   3
ATOM      3  C   UNL     1       5.165   5.299  18.723  0.00  0.00    +0.000 C 
BRANCH   3   4
ATOM      4  C   UNL     1       6.457   6.089  18.508  0.00  0.00    +0.000 C 
BRANCH   4   5
ATOM      5  C   UNL     1       7.641   5.194  18.115  0.00  0.00    +0.000 C 
BRANCH   5   6
ATOM      6  C   UNL     1       7.434   4.463  16.789  0.00  0.00    +0.000 C 
BRANCH   6   7
ATOM      7  N   UNL     1       7.164   5.409  15.706  0.00  0.00    +0.000 NA
ATOM      8  H   UNL     1       6.304   5.921  15.900  0.00  0.00    +0.000 HD
BRANCH   7   9
ATOM      9  C   UNL     1       7.024   4.726  14.425  0.00  0.00    +0.000 C 
BRANCH   9  10
ATOM     10  C   UNL     1       5.563   4.323  14.228  0.00  0.00    +0.000 C 
BRANCH  10  11
ATOM     11  C   UNL     1       5.353   3.765  12.823  0.00  0.00    +0.000 C 
BRANCH  11  12
ATOM     12  N   UNL     1       6.444   2.869  12.462  0.00  0.00    +0.000 NA
ATOM     13  H   UNL     1       6.581   2.187  13.207  0.00  0.00    +0.000 HD
ATOM     14  H   UNL     1       7.313   3.398  12.397  0.00  0.00    +0.000 HD
ENDBRANCH  11  12
ENDBRANCH  10  11
ENDBRANCH   9  10
ENDBRANCH   7   9
ENDBRANCH   6   7
ENDBRANCH   5   6
ENDBRANCH   4   5
ENDBRANCH   3   4
ENDBRANCH   1   3
BRANCH   1  15
ATOM     15  C   UNL     1       3.317   4.397  17.439  0.00  0.00    +0.000 C 
BRANCH  15  16
ATOM     16  C   UNL     1       4.008   3.043  17.244  0.00  0.00    +0.000 C 
BRANCH  16  17
ATOM     17  C   UNL     1       3.362   1.930  18.065  0.00  0.00    +0.000 C 
BRANCH  17  18
ATOM     18  N   UNL     1       2.732   2.432  19.266  0.00  0.00    +0.000 N 
ATOM     19  C   UNL     1       1.364   2.543  19.376  0.00  0.00    +0.000 C 
ATOM     20  O   UNL     1       0.585   2.173  18.503  0.00  0.00    +0.000 OA
ATOM     21  H   UNL     1       3.325   2.717  20.037  0.00  0.00    +0.000 HD
BRANCH  19  22
ATOM     22  C   UNL     1       0.896   3.130  20.685  0.00  0.00    +0.000 C 
BRANCH  22  23
ATOM     23  C   UNL     1       2.096   3.624  21.482  0.00  0.00    +0.000 C 
BRANCH  23  24
ATOM     24  N   UNL     1       2.396   5.018  21.158  0.00  0.00    +0.000 NA
ATOM     25  H   UNL     1       1.836   5.643  21.735  0.00  0.00    +0.000 HD
ATOM     26  H   UNL     1       2.133   5.204  20.191  0.00  0.00    +0.000 HD
ENDBRANCH  23  24
ENDBRANCH  22  23
ENDBRANCH  19  22
ENDBRANCH  17  18
ENDBRANCH  16  17
ENDBRANCH  15  16
ENDBRANCH   1  15
TORSDOF 16
ENDMDL
