MODEL 1
REMARK VINA RESULT:      -5.6      0.000      0.000
REMARK  Name = 
REMARK  5 active torsions:
REMARK  status: ('A' for Active; 'I' for Inactive)
REMARK    1  A    between atoms: C_1  and  C_2
REMARK    2  A    between atoms: C_2  and  C_3
REMARK    3  A    between atoms: C_3  and  C_4
REMARK    4  A    between atoms: C_4  and  C_5
REMARK    5  A    between atoms: C_8  and  C_9
REMARK                            x       y       z     vdW  Elec       q    Type
REMARK                         _______ _______ _______ _____ _____    ______ ____
ROOT
ATOM      1  C   UNL     1       2.857   4.632  17.610  0.00  0.00    +0.000 A 
ATOM      2  C   UNL     1       3.202   5.957  17.915  0.00  0.00    +0.000 A 
ATOM      3  C   UNL     1       4.498   6.426  17.693  0.00  0.00    +0.000 A 
ATOM      4  C   UNL     1       5.464   5.561  17.175  0.00  0.00    +0.000 A 
ATOM      5  C   UNL     1       5.137   4.240  16.863  0.00  0.00    +0.000 A 
ATOM      6  C   UNL     1       3.836   3.779  17.081  0.00  0.00    +0.000 A 
ENDROOT
BRANCH   4   7
ATOM      7  C   UNL     1       6.844   6.038  16.965  0.00  0.00    +0.000 C 
ATOM      8  O   UNL     1       7.426   5.909  15.896  0.00  0.00    +0.000 OA
ENDBRANCH   4   7
BRANCH   1   9
ATOM      9  C   UNL     1       1.458   4.124  17.875  0.00  0.00    +0.000 C 
BRANCH   9  10
ATOM     10  C   UNL     1       1.410   3.139  19.046  0.00  0.00    +0.000 C 
BRANCH  10  12
ATOM     11  C   UNL     1       2.128   3.846  21.344  0.00  0.00    +0.000 C 
ATOM     12  C   UNL     1       0.984   3.823  20.343  0.00  0.00    +0.000 C 
ENDBRANCH  10  12
ENDBRANCH   9  10
ENDBRANCH   1   9
TORSDOF 4
ENDMDL
MODEL 2
REMARK VINA RESULT:      -5.6      1.166      1.880
REMARK  Name = 
REMARK  5 active torsions:
REMARK  status: ('A' for Active; 'I' for Inactive)
REMARK    1  A    between atoms: C_1  and  C_2
REMARK    2  A    between atoms: C_2  and  C_3
REMARK    3  A    between atoms: C_3  and  C_4
REMARK    4  A    between atoms: C_4  and  C_5
REMARK    5  A    between atoms: C_8  and  C_9
REMARK                            x       y       z     vdW  Elec       q    Type
REMARK                         _______ _______ _______ _____ _____    ______ ____
ROOT
ATOM      1  C   UNL     1       3.559   5.288  17.606  0.00  0.00    +0.000 A 
ATOM      2  C   UNL     1       3.912   3.991  17.202  0.00  0.00    +0.000 A 
ATOM      3  C   UNL     1       4.983   3.783  16.332  0.00  0.00    +0.000 A 
ATOM      4  C   UNL     1       5.700   4.878  15.847  0.00  0.00    +0.000 A 
ATOM      5  C   UNL     1       5.365   6.175  16.241  0.00  0.00    +0.000 A 
ATOM      6  C   UNL     1       4.296   6.377  17.119  0.00  0.00    +0.000 A 
ENDROOT
BRANCH   4   7
ATOM      7  C   UNL     1       6.815   4.670  14.903  0.00  0.00    +0.000 C 
ATOM      8  O   UNL     1       7.680   5.514  14.715  0.00  0.00    +0.000 OA
ENDBRANCH   4   7
BRANCH   1   9
ATOM      9  C   UNL     1       2.383   5.510  18.530  0.00  0.00    +0.000 C 
BRANCH   9  10
ATOM     10  C   UNL     1       1.670   4.203  18.887  0.00  0.00    +0.000 C 
BRANCH  10  12
ATOM     11  C   UNL     1       1.312   2.879  20.989  0.00  0.00    +0.000 C 
ATOM     12  C   UNL     1       1.125   4.228  20.313  0.00  0.00    +0.000 C 
ENDBRANCH  10  12
ENDBRANCH   9  10
ENDBRANCH   1   9
TORSDOF 4
ENDMDL
MODEL 3
REMARK VINA RESULT:      -5.6      0.774      1.571
REMARK  Name = 
REMARK  5 active torsions:
REMARK  status: ('A' for Active; 'I' for Inactive)
REMARK    1  A    between atoms: C_1  and  C_2
REMARK    2  A    between atoms: C_2  and  C_3
REMARK    3  A    between atoms: C_3  and  C_4
REMARK    4  A    between atoms: C_4  and  C_5
REMARK    5  A    between atoms: C_8  and  C_9
REMARK                            x       y       z     vdW  Elec       q    Type
REMARK                         _______ _______ _______ _____ _____    ______ ____
ROOT
ATOM      1  C   UNL     1       2.947   4.510  17.707  0.00  0.00    +0.000 A 
ATOM      2  C   UNL     1       3.662   3.577  16.942  0.00  0.00    +0.000 A 
ATOM      3  C   UNL     1       5.013   3.776  16.653  0.00  0.00    +0.000 A 
ATOM      4  C   UNL     1       5.654   4.925  17.118  0.00  0.00    +0.000 A 
ATOM      5  C   UNL     1       4.960   5.864  17.884  0.00  0.00    +0.000 A 
ATOM      6  C   UNL     1       3.609   5.655  18.176  0.00  0.00    +0.000 A 
ENDROOT
BRANCH   4   7
ATOM      7  C   UNL     1       7.074   5.160  16.793  0.00  0.00    +0.000 C 
ATOM      8  O   UNL     1       7.963   4.400  17.152  0.00  0.00    +0.000 OA
ENDBRANCH   4   7
BRANCH   1   9
ATOM      9  C   UNL     1       1.478   4.301  17.997  0.00  0.00    +0.000 C 
BRANCH   9  10
ATOM     10  C   UNL     1       1.246   3.286  19.119  0.00  0.00    +0.000 C 
BRANCH  10  12
ATOM     11  C   UNL     1       2.116   3.316  21.472  0.00  0.00    +0.000 C 
ATOM     12  C   UNL     1       1.159   3.962  20.484  0.00  0.00    +0.000 C 
ENDBRANCH  10  12
ENDBRANCH   9  10
ENDBRANCH   1   9
TORSDOF 4
ENDMDL
MODEL 4
REMARK VINA RESULT:      -5.6      4.014      5.428
REMARK  Name = 
REMARK  5 active torsions:
REMARK  status: ('A' for Active; 'I' for Inactive)
REMARK    1  A    between atoms: C_1  and  C_2
REMARK    2  A    between atoms: C_2  and  C_3
REMARK    3  A    between atoms: C_3  and  C_4
REMARK    4  A    between atoms: C_4  and  C_5
REMARK    5  A    between atoms: C_8  and  C_9
REMARK                            x       y       z     vdW  Elec       q    Type
REMARK                         _______ _______ _______ _____ _____    ______ ____
ROOT
ATOM      1  C   UNL     1       5.971   4.829  15.411  0.00  0.00    +0.000 A 
ATOM      2  C   UNL     1       5.502   6.000  16.025  0.00  0.00    +0.000 A 
ATOM      3  C   UNL     1       6.057   6.446  17.227  0.00  0.00    +0.000 A 
ATOM      4  C   UNL     1       7.078   5.710  17.829  0.00  0.00    +0.000 A 
ATOM      5  C   UNL     1       7.559   4.544  17.231  0.00  0.00    +0.000 A 
ATOM      6  C   UNL     1       7.005   4.106  16.024  0.00  0.00    +0.000 A 
ENDROOT
BRANCH   4   7
ATOM      7  C   UNL     1       7.649   6.157  19.114  0.00  0.00    +0.000 C 
ATOM      8  O   UNL     1       7.633   5.456  20.118  0.00  0.00    +0.000 OA
ENDBRANCH   4   7
BRANCH   1   9
ATOM      9  C   UNL     1       5.351   4.338  14.123  0.00  0.00    +0.000 C 
BRANCH   9  10
ATOM     10  C   UNL     1       6.404   3.961  13.078  0.00  0.00    +0.000 C 
BRANCH  10  12
ATOM     11  C   UNL     1       4.446   3.358  11.629  0.00  0.00    +0.000 C 
ATOM     12  C   UNL     1       5.854   2.973  12.053  0.00  0.00    +0.000 C 
ENDBRANCH  10  12
ENDBRANCH   9  10
ENDBRANCH   1   9
TORSDOF 4
ENDMDL
MODEL 5
REMARK VINA RESULT:      -5.5      1.131      1.388
REMARK  Name = 
REMARK  5 active torsions:
REMARK  status: ('A' for Active; 'I' for Inactive)
REMARK    1  A    between atoms: C_1  and  C_2
REMARK    2  A    between atoms: C_2  and  C_3
REMARK    3  A    between atoms: C_3  and  C_4
REMARK    4  A    between atoms: C_4  and  C_5
REMARK    5  A    between atoms: C_8  and  C_9
REMARK                            x       y       z     vdW  Elec       q    Type
REMARK                         _______ _______ _______ _____ _____    ______ ____
ROOT
ATOM      1  C   UNL     1       3.457   5.420  17.682  0.00  0.00    +0.000 A 
ATOM      2  C   UNL     1       4.310   6.463  17.294  0.00  0.00    +0.000 A 
ATOM      3  C   UNL     1       5.446   6.206  16.523  0.00  0.00    +0.000 A 
ATOM      4  C   UNL     1       5.741   4.894  16.148  0.00  0.00    +0.000 A 
ATOM      5  C   UNL     1       4.901   3.844  16.524  0.00  0.00    +0.000 A 
ATOM      6  C   UNL     1       3.762   4.109  17.289  0.00  0.00    +0.000 A 
ENDROOT
BRANCH   4   7
ATOM      7  C   UNL     1       6.954   4.608  15.359  0.00  0.00    +0.000 C 
ATOM      8  O   UNL     1       7.573   5.484  14.767  0.00  0.00    +0.000 OA
ENDBRANCH   4   7
BRANCH   1   9
ATOM      9  C   UNL     1       2.242   5.701  18.537  0.00  0.00    +0.000 C 
BRANCH   9  10
ATOM     10  C   UNL     1       2.299   4.976  19.884  0.00  0.00    +0.000 C 
BRANCH  10  12
ATOM     11  C   UNL     1       1.415   3.014  21.175  0.00  0.00    +0.000 C 
ATOM     12  C   UNL     1       1.140   3.996  20.048  0.00  0.00    +0.000 C 
ENDBRANCH  10  12
ENDBRANCH   9  10
ENDBRANCH   1   9
TORSDOF 4
ENDMDL
MODEL 6
REMARK VINA RESULT:      -5.5      1.417      1.504
REMARK  Name = 
REMARK  5 active torsions:
REMARK  status: ('A' for Active; 'I' for Inactive)
REMARK    1  A    between atoms: C_1  and  C_2
REMARK    2  A    between atoms: C_2  and  C_3
REMARK    3  A    between atoms: C_3  and  C_4
REMARK    4  A    between atoms: C_4  and  C_5
REMARK    5  A    between atoms: C_8  and  C_9
REMARK                            x       y       z     vdW  Elec       q    Type
REMARK                         _______ _______ _______ _____ _____    ______ ____
ROOT
ATOM      1  C   UNL     1       3.314   4.783  18.709  0.00  0.00    +0.000 A 
ATOM      2  C   UNL     1       4.492   5.176  19.362  0.00  0.00    +0.000 A 
ATOM      3  C   UNL     1       5.725   5.104  18.712  0.00  0.00    +0.000 A 
ATOM      4  C   UNL     1       5.787   4.622  17.403  0.00  0.00    +0.000 A 
ATOM      5  C   UNL     1       4.625   4.229  16.737  0.00  0.00    +0.000 A 
ATOM      6  C   UNL     1       3.392   4.311  17.390  0.00  0.00    +0.000 A 
ENDROOT
BRANCH   4   7
ATOM      7  C   UNL     1       7.090   4.513  16.718  0.00  0.00    +0.000 C 
ATOM      8  O   UNL     1       8.120   4.223  17.312  0.00  0.00    +0.000 OA
ENDBRANCH   4   7
BRANCH   1   9
ATOM      9  C   UNL     1       1.985   4.841  19.425  0.00  0.00    +0.000 C 
BRANCH   9  10
ATOM     10  C   UNL     1       1.184   3.546  19.269  0.00  0.00    +0.000 C 
BRANCH  10  12
ATOM     11  C   UNL     1       1.672   2.803  21.616  0.00  0.00    +0.000 C 
ATOM     12  C   UNL     1       1.742   2.427  20.144  0.00  0.00    +0.000 C 
ENDBRANCH  10  12
ENDBRANCH   9  10
ENDBRANCH   1   9
TORSDOF 4
ENDMDL
MODEL 7
REMARK VINA RESULT:      -5.5      0.835      1.673
REMARK  Name = 
REMARK  5 active torsions:
REMARK  status: ('A' for Active; 'I' for Inactive)
REMARK    1  A    between atoms: C_1  and  C_2
REMARK    2  A    between atoms: C_2  and  C_3
REMARK    3  A    between atoms: C_3  and  C_4
REMARK    4  A    between atoms: C_4  and  C_5
REMARK    5  A    between atoms: C_8  and  C_9
REMARK                            x       y       z     vdW  Elec       q    Type
REMARK                         _______ _______ _______ _____ _____    ______ ____
ROOT
ATOM      1  C   UNL     1       2.595   4.428  18.018  0.00  0.00    +0.000 A 
ATOM      2  C   UNL     1       3.488   3.611  17.310  0.00  0.00    +0.000 A 
ATOM      3  C   UNL     1       4.686   4.128  16.813  0.00  0.00    +0.000 A 
ATOM      4  C   UNL     1       4.990   5.476  17.011  0.00  0.00    +0.000 A 
ATOM      5  C   UNL     1       4.114   6.303  17.716  0.00  0.00    +0.000 A 
ATOM      6  C   UNL     1       2.919   5.778  18.218  0.00  0.00    +0.000 A 
ENDROOT
BRANCH   4   7
ATOM      7  C   UNL     1       6.239   6.038  16.463  0.00  0.00    +0.000 C 
ATOM      8  O   UNL     1       6.584   7.194  16.673  0.00  0.00    +0.000 OA
ENDBRANCH   4   7
BRANCH   1   9
ATOM      9  C   UNL     1       1.288   3.870  18.534  0.00  0.00    +0.000 C 
BRANCH   9  10
ATOM     10  C   UNL     1       1.105   4.109  20.035  0.00  0.00    +0.000 C 
BRANCH  10  12
ATOM     11  C   UNL     1       2.531   2.748  21.588  0.00  0.00    +0.000 C 
ATOM     12  C   UNL     1       1.214   2.812  20.832  0.00  0.00    +0.000 C 
ENDBRANCH  10  12
ENDBRANCH   9  10
ENDBRANCH   1   9
TORSDOF 4
ENDMDL
MODEL 8
REMARK VINA RESULT:      -5.4      1.441      1.985
REMARK  Name = 
REMARK  5 active torsions:
REMARK  status: ('A' for Active; 'I' for Inactive)
REMARK    1  A    between atoms: C_1  and  C_2
REMARK    2  A    between atoms: C_2  and  C_3
REMARK    3  A    between atoms: C_3  and  C_4
REMARK    4  A    between atoms: C_4  and  C_5
REMARK    5  A    between atoms: C_8  and  C_9
REMARK                            x       y       z     vdW  Elec       q    Type
REMARK                         _______ _______ _______ _____ _____    ______ ____
ROOT
ATOM      1  C   UNL     1       3.346   4.670  18.689  0.00  0.00    +0.000 A 
ATOM      2  C   UNL     1       3.394   4.148  17.388  0.00  0.00    +0.000 A 
ATOM      3  C   UNL     1       4.605   4.069  16.696  0.00  0.00    +0.000 A 
ATOM      4  C   UNL     1       5.776   4.527  17.302  0.00  0.00    +0.000 A 
ATOM      5  C   UNL     1       5.747   5.046  18.597  0.00  0.00    +0.000 A 
ATOM      6  C   UNL     1       4.533   5.116  19.288  0.00  0.00    +0.000 A 
ENDROOT
BRANCH   4   7
ATOM      7  C   UNL     1       7.054   4.475  16.568  0.00  0.00    +0.000 C 
ATOM      8  O   UNL     1       8.126   4.296  17.131  0.00  0.00    +0.000 OA
ENDBRANCH   4   7
BRANCH   1   9
ATOM      9  C   UNL     1       2.029   4.776  19.424  0.00  0.00    +0.000 C 
BRANCH   9  10
ATOM     10  C   UNL     1       2.218   4.906  20.937  0.00  0.00    +0.000 C 
BRANCH  10  12
ATOM     11  C   UNL     1       1.457   2.523  20.738  0.00  0.00    +0.000 C 
ATOM     12  C   UNL     1       2.120   3.554  21.638  0.00  0.00    +0.000 C 
ENDBRANCH  10  12
ENDBRANCH   9  10
ENDBRANCH   1   9
TORSDOF 4
ENDMDL
MODEL 9
REMARK VINA RESULT:      -5.4      0.828      1.713
REMARK  Name = 
REMARK  5 active torsions:
REMARK  status: ('A' for Active; 'I' for Inactive)
REMARK    1  A    between atoms: C_1  and  C_2
REMARK    2  A    between atoms: C_2  and  C_3
REMARK    3  A    between atoms: C_3  and  C_4
REMARK    4  A    between atoms: C_4  and  C_5
REMARK    5  A    between atoms: C_8  and  C_9
REMARK                            x       y       z     vdW  Elec       q    Type
REMARK                         _______ _______ _______ _____ _____    ______ ____
ROOT
ATOM      1  C   UNL     1       3.624   4.204  17.364  0.00  0.00    +0.000 A 
ATOM      2  C   UNL     1       4.887   3.893  16.839  0.00  0.00    +0.000 A 
ATOM      3  C   UNL     1       5.894   4.858  16.786  0.00  0.00    +0.000 A 
ATOM      4  C   UNL     1       5.637   6.149  17.248  0.00  0.00    +0.000 A 
ATOM      5  C   UNL     1       4.387   6.476  17.777  0.00  0.00    +0.000 A 
ATOM      6  C   UNL     1       3.384   5.504  17.834  0.00  0.00    +0.000 A 
ENDROOT
BRANCH   4   7
ATOM      7  C   UNL     1       6.685   7.184  17.169  0.00  0.00    +0.000 C 
ATOM      8  O   UNL     1       7.754   6.992  16.603  0.00  0.00    +0.000 OA
ENDBRANCH   4   7
BRANCH   1   9
ATOM      9  C   UNL     1       2.529   3.163  17.397  0.00  0.00    +0.000 C 
BRANCH   9  10
ATOM     10  C   UNL     1       1.271   3.664  18.110  0.00  0.00    +0.000 C 
BRANCH  10  12
ATOM     11  C   UNL     1       1.138   3.542  20.613  0.00  0.00    +0.000 C 
ATOM     12  C   UNL     1       0.916   2.790  19.311  0.00  0.00    +0.000 C 
ENDBRANCH  10  12
ENDBRANCH   9  10
ENDBRANCH   1   9
TORSDOF 4
ENDMDL
