MODEL 1
REMARK VINA RESULT:      -7.5      0.000      0.000
REMARK  Name = 
REMARK  12 active torsions:
REMARK  status: ('A' for Active; 'I' for Inactive)
REMARK    1  A    between atoms: C_1  and  O_2
REMARK    2  A    between atoms: O_2  and  C_3
REMARK    3  A    between atoms: C_7  and  C_8
REMARK    4  A    between atoms: C_12  and  C_13
REMARK    5  A    between atoms: C_18  and  N_19
REMARK    6  A    between atoms: N_19  and  C_20
REMARK    7  A    between atoms: C_20  and  C_21
REMARK    8  A    between atoms: C_21  and  N_22
REMARK    9  A    between atoms: C_27  and  O_28
REMARK   10  A    between atoms: O_28  and  C_29
REMARK   11  A    between atoms: C_30  and  O_31
REMARK   12  A    between atoms: O_31  and  C_32
REMARK                            x       y       z     vdW  Elec       q    Type
REMARK                         _______ _______ _______ _____ _____    ______ ____
ROOT
ATOM      1  C   UNL     1       2.648   7.464  18.052  0.00  0.00    +0.000 C 
ATOM      2  O   UNL     1       3.614   7.749  17.347  0.00  0.00    +0.000 OA
ATOM      3  N   UNL     1       2.357   6.160  18.462  0.00  0.00    +0.000 N 
ATOM      4  C   UNL     1       1.250   5.754  19.346  0.00  0.00    +0.000 C 
ATOM      5  C   UNL     1       1.461   4.299  19.762  0.00  0.00    +0.000 C 
ATOM      6  C   UNL     1       2.518   3.886  18.782  0.00  0.00    +0.000 A 
ATOM      7  C   UNL     1       2.994   2.604  18.579  0.00  0.00    +0.000 A 
ATOM      8  C   UNL     1       4.071   2.432  17.712  0.00  0.00    +0.000 A 
ATOM      9  C   UNL     1       4.668   3.519  17.039  0.00  0.00    +0.000 A 
ATOM     10  C   UNL     1       4.146   4.811  17.259  0.00  0.00    +0.000 A 
ATOM     11  C   UNL     1       3.061   4.984  18.107  0.00  0.00    +0.000 A 
ENDROOT
BRANCH   1  16
ATOM     12  C   UNL     1      -1.171  11.852  19.877  0.00  0.00    +0.000 A 
ATOM     13  C   UNL     1      -0.803  11.103  18.757  0.00  0.00    +0.000 A 
ATOM     14  C   UNL     1       0.225  10.166  18.860  0.00  0.00    +0.000 A 
ATOM     15  C   UNL     1       0.878   9.363  17.902  0.00  0.00    +0.000 A 
ATOM     16  C   UNL     1       1.781   8.538  18.544  0.00  0.00    +0.000 A 
ATOM     17  N   UNL     1       1.780   8.955  19.867  0.00  0.00    +0.000 N 
ATOM     18  C   UNL     1       0.811   9.922  20.088  0.00  0.00    +0.000 A 
ATOM     19  C   UNL     1       0.429  10.590  21.269  0.00  0.00    +0.000 A 
ATOM     20  C   UNL     1      -0.604  11.569  21.144  0.00  0.00    +0.000 A 
ATOM     21  H   UNL     1       2.382   8.579  20.586  0.00  0.00    +0.000 HD
BRANCH  12  23
ATOM     22  C   UNL     1      -3.445  12.485  19.643  0.00  0.00    +0.000 C 
ATOM     23  O   UNL     1      -2.078  12.879  19.752  0.00  0.00    +0.000 OA
ENDBRANCH  12  23
BRANCH  19  24
ATOM     24  O   UNL     1       1.115  10.211  22.386  0.00  0.00    +0.000 OA
ATOM     25  C   UNL     1       0.558   9.231  23.249  0.00  0.00    +0.000 C 
ENDBRANCH  19  24
BRANCH  20  26
ATOM     26  O   UNL     1      -0.944  12.260  22.285  0.00  0.00    +0.000 OA
ATOM     27  C   UNL     1      -2.049  11.790  23.049  0.00  0.00    +0.000 C 
ENDBRANCH  20  26
ENDBRANCH   1  16
BRANCH   5  28
ATOM     28  C   UNL     1       1.941   4.172  21.206  0.00  0.00    +0.000 C 
ATOM     29 CL   UNL     1       1.571   2.559  21.876  0.00  0.00    +0.000 Cl
ENDBRANCH   5  28
BRANCH   9  30
ATOM     30  N   UNL     1       5.843   3.376  16.300  0.00  0.00    +0.000 N 
ATOM     31  H   UNL     1       6.432   2.597  16.597  0.00  0.00    +0.000 HD
BRANCH  30  32
ATOM     32  C   UNL     1       6.645   4.549  15.953  0.00  0.00    +0.000 C 
BRANCH  32  33
ATOM     33  C   UNL     1       6.727   4.697  14.421  0.00  0.00    +0.000 C 
BRANCH  33  34
ATOM     34  N   UNL     1       7.866   5.516  13.988  0.00  0.00    +0.000 NA
ATOM     35  H   UNL     1       8.696   4.930  13.909  0.00  0.00    +0.000 HD
ATOM     36  H   UNL     1       8.067   6.208  14.707  0.00  0.00    +0.000 HD
ENDBRANCH  33  34
ENDBRANCH  32  33
ENDBRANCH  30  32
ENDBRANCH   9  30
TORSDOF 9
ENDMDL
MODEL 2
REMARK VINA RESULT:      -7.3      1.505      2.322
REMARK  Name = 
REMARK  12 active torsions:
REMARK  status: ('A' for Active; 'I' for Inactive)
REMARK    1  A    between atoms: C_1  and  O_2
REMARK    2  A    between atoms: O_2  and  C_3
REMARK    3  A    between atoms: C_7  and  C_8
REMARK    4  A    between atoms: C_12  and  C_13
REMARK    5  A    between atoms: C_18  and  N_19
REMARK    6  A    between atoms: N_19  and  C_20
REMARK    7  A    between atoms: C_20  and  C_21
REMARK    8  A    between atoms: C_21  and  N_22
REMARK    9  A    between atoms: C_27  and  O_28
REMARK   10  A    between atoms: O_28  and  C_29
REMARK   11  A    between atoms: C_30  and  O_31
REMARK   12  A    between atoms: O_31  and  C_32
REMARK                            x       y       z     vdW  Elec       q    Type
REMARK                         _______ _______ _______ _____ _____    ______ ____
ROOT
ATOM      1  C   UNL     1       2.522   6.977  19.154  0.00  0.00    +0.000 C 
ATOM      2  O   UNL     1       3.498   7.314  18.485  0.00  0.00    +0.000 OA
ATOM      3  N   UNL     1       2.122   5.646  19.307  0.00  0.00    +0.000 N 
ATOM      4  C   UNL     1       0.998   5.168  20.131  0.00  0.00    +0.000 C 
ATOM      5  C   UNL     1       1.084   3.646  20.243  0.00  0.00    +0.000 C 
ATOM      6  C   UNL     1       2.082   3.349  19.165  0.00  0.00    +0.000 A 
ATOM      7  C   UNL     1       2.437   2.098  18.696  0.00  0.00    +0.000 A 
ATOM      8  C   UNL     1       3.480   2.012  17.775  0.00  0.00    +0.000 A 
ATOM      9  C   UNL     1       4.161   3.157  17.311  0.00  0.00    +0.000 A 
ATOM     10  C   UNL     1       3.761   4.418  17.799  0.00  0.00    +0.000 A 
ATOM     11  C   UNL     1       2.711   4.510  18.703  0.00  0.00    +0.000 A 
ENDROOT
BRANCH   1  16
ATOM     12  C   UNL     1      -0.496  11.133  22.437  0.00  0.00    +0.000 A 
ATOM     13  C   UNL     1       0.090   9.868  22.526  0.00  0.00    +0.000 A 
ATOM     14  C   UNL     1       0.680   9.299  21.397  0.00  0.00    +0.000 A 
ATOM     15  C   UNL     1       1.235   8.026  21.154  0.00  0.00    +0.000 A 
ATOM     16  C   UNL     1       1.764   8.000  19.878  0.00  0.00    +0.000 A 
ATOM     17  N   UNL     1       1.388   9.204  19.302  0.00  0.00    +0.000 N 
ATOM     18  C   UNL     1       0.758  10.027  20.224  0.00  0.00    +0.000 A 
ATOM     19  C   UNL     1       0.255  11.338  20.096  0.00  0.00    +0.000 A 
ATOM     20  C   UNL     1      -0.374  11.896  21.251  0.00  0.00    +0.000 A 
ATOM     21  H   UNL     1       1.580   9.465  18.345  0.00  0.00    +0.000 HD
BRANCH  12  23
ATOM     22  C   UNL     1      -2.609  11.799  23.285  0.00  0.00    +0.000 C 
ATOM     23  O   UNL     1      -1.208  11.638  23.501  0.00  0.00    +0.000 OA
ENDBRANCH  12  23
BRANCH  19  24
ATOM     24  O   UNL     1       0.431  11.898  18.864  0.00  0.00    +0.000 OA
ATOM     25  C   UNL     1       1.583  12.689  18.615  0.00  0.00    +0.000 C 
ENDBRANCH  19  24
BRANCH  20  26
ATOM     26  O   UNL     1      -0.913  13.156  21.114  0.00  0.00    +0.000 OA
ATOM     27  C   UNL     1      -0.126  14.269  21.524  0.00  0.00    +0.000 C 
ENDBRANCH  20  26
ENDBRANCH   1  16
BRANCH   5  28
ATOM     28  C   UNL     1       1.575   3.193  21.617  0.00  0.00    +0.000 C 
ATOM     29 CL   UNL     1       3.181   2.419  21.511  0.00  0.00    +0.000 Cl
ENDBRANCH   5  28
BRANCH   9  30
ATOM     30  N   UNL     1       5.305   3.065  16.517  0.00  0.00    +0.000 N 
ATOM     31  H   UNL     1       6.141   2.767  17.021  0.00  0.00    +0.000 HD
BRANCH  30  32
ATOM     32  C   UNL     1       5.615   4.112  15.544  0.00  0.00    +0.000 C 
BRANCH  32  33
ATOM     33  C   UNL     1       7.036   4.655  15.788  0.00  0.00    +0.000 C 
BRANCH  33  34
ATOM     34  N   UNL     1       7.546   4.335  17.127  0.00  0.00    +0.000 NA
ATOM     35  H   UNL     1       8.432   3.839  17.045  0.00  0.00    +0.000 HD
ATOM     36  H   UNL     1       6.898   3.695  17.583  0.00  0.00    +0.000 HD
ENDBRANCH  33  34
ENDBRANCH  32  33
ENDBRANCH  30  32
ENDBRANCH   9  30
TORSDOF 9
ENDMDL
MODEL 3
REMARK VINA RESULT:      -7.3      1.150      2.237
REMARK  Name = 
REMARK  12 active torsions:
REMARK  status: ('A' for Active; 'I' for Inactive)
REMARK    1  A    between atoms: C_1  and  O_2
REMARK    2  A    between atoms: O_2  and  C_3
REMARK    3  A    between atoms: C_7  and  C_8
REMARK    4  A    between atoms: C_12  and  C_13
REMARK    5  A    between atoms: C_18  and  N_19
REMARK    6  A    between atoms: N_19  and  C_20
REMARK    7  A    between atoms: C_20  and  C_21
REMARK    8  A    between atoms: C_21  and  N_22
REMARK    9  A    between atoms: C_27  and  O_28
REMARK   10  A    between atoms: O_28  and  C_29
REMARK   11  A    between atoms: C_30  and  O_31
REMARK   12  A    between atoms: O_31  and  C_32
REMARK                            x       y       z     vdW  Elec       q    Type
REMARK                         _______ _______ _______ _____ _____    ______ ____
ROOT
ATOM      1  C   UNL     1       2.528   7.427  18.832  0.00  0.00    +0.000 C 
ATOM      2  O   UNL     1       3.423   7.822  18.086  0.00  0.00    +0.000 OA
ATOM      3  N   UNL     1       2.270   6.073  19.067  0.00  0.00    +0.000 N 
ATOM      4  C   UNL     1       1.252   5.530  19.984  0.00  0.00    +0.000 C 
ATOM      5  C   UNL     1       1.493   4.030  20.151  0.00  0.00    +0.000 C 
ATOM      6  C   UNL     1       2.444   3.778  19.021  0.00  0.00    +0.000 A 
ATOM      7  C   UNL     1       2.888   2.545  18.580  0.00  0.00    +0.000 A 
ATOM      8  C   UNL     1       3.874   2.514  17.595  0.00  0.00    +0.000 A 
ATOM      9  C   UNL     1       4.409   3.695  17.039  0.00  0.00    +0.000 A 
ATOM     10  C   UNL     1       3.921   4.935  17.502  0.00  0.00    +0.000 A 
ATOM     11  C   UNL     1       2.927   4.970  18.470  0.00  0.00    +0.000 A 
ENDROOT
BRANCH   1  16
ATOM     12  C   UNL     1      -0.621  11.479  22.121  0.00  0.00    +0.000 A 
ATOM     13  C   UNL     1       0.228  10.378  22.245  0.00  0.00    +0.000 A 
ATOM     14  C   UNL     1       0.698   9.735  21.099  0.00  0.00    +0.000 A 
ATOM     15  C   UNL     1       1.456   8.562  20.911  0.00  0.00    +0.000 A 
ATOM     16  C   UNL     1       1.723   8.406  19.564  0.00  0.00    +0.000 A 
ATOM     17  N   UNL     1       0.993   9.402  18.931  0.00  0.00    +0.000 N 
ATOM     18  C   UNL     1       0.391  10.246  19.852  0.00  0.00    +0.000 A 
ATOM     19  C   UNL     1      -0.398  11.400  19.665  0.00  0.00    +0.000 A 
ATOM     20  C   UNL     1      -0.897  12.030  20.846  0.00  0.00    +0.000 A 
ATOM     21  H   UNL     1       0.936   9.520  17.929  0.00  0.00    +0.000 HD
BRANCH  12  23
ATOM     22  C   UNL     1      -2.606  11.790  23.383  0.00  0.00    +0.000 C 
ATOM     23  O   UNL     1      -1.206  12.027  23.240  0.00  0.00    +0.000 OA
ENDBRANCH  12  23
BRANCH  19  24
ATOM     24  O   UNL     1      -0.587  11.757  18.362  0.00  0.00    +0.000 OA
ATOM     25  C   UNL     1      -1.800  11.410  17.712  0.00  0.00    +0.000 C 
ENDBRANCH  19  24
BRANCH  20  26
ATOM     26  O   UNL     1      -1.710  13.127  20.666  0.00  0.00    +0.000 OA
ATOM     27  C   UNL     1      -1.101  14.412  20.625  0.00  0.00    +0.000 C 
ENDBRANCH  20  26
ENDBRANCH   1  16
BRANCH   5  28
ATOM     28  C   UNL     1       2.112   3.690  21.506  0.00  0.00    +0.000 C 
ATOM     29 CL   UNL     1       1.395   2.207  22.195  0.00  0.00    +0.000 Cl
ENDBRANCH   5  28
BRANCH   9  30
ATOM     30  N   UNL     1       5.504   3.674  16.174  0.00  0.00    +0.000 N 
ATOM     31  H   UNL     1       6.392   3.912  16.618  0.00  0.00    +0.000 HD
BRANCH  30  32
ATOM     32  C   UNL     1       5.401   4.261  14.838  0.00  0.00    +0.000 C 
BRANCH  32  33
ATOM     33  C   UNL     1       6.749   4.891  14.434  0.00  0.00    +0.000 C 
BRANCH  33  34
ATOM     34  N   UNL     1       7.483   5.446  15.577  0.00  0.00    +0.000 NA
ATOM     35  H   UNL     1       7.532   6.461  15.491  0.00  0.00    +0.000 HD
ATOM     36  H   UNL     1       8.444   5.108  15.549  0.00  0.00    +0.000 HD
ENDBRANCH  33  34
ENDBRANCH  32  33
ENDBRANCH  30  32
ENDBRANCH   9  30
TORSDOF 9
ENDMDL
MODEL 4
REMARK VINA RESULT:      -7.2      3.303      9.554
REMARK  Name = 
REMARK  12 active torsions:
REMARK  status: ('A' for Active; 'I' for Inactive)
REMARK    1  A    between atoms: C_1  and  O_2
REMARK    2  A    between atoms: O_2  and  C_3
REMARK    3  A    between atoms: C_7  and  C_8
REMARK    4  A    between atoms: C_12  and  C_13
REMARK    5  A    between atoms: C_18  and  N_19
REMARK    6  A    between atoms: N_19  and  C_20
REMARK    7  A    between atoms: C_20  and  C_21
REMARK    8  A    between atoms: C_21  and  N_22
REMARK    9  A    between atoms: C_27  and  O_28
REMARK   10  A    between atoms: O_28  and  C_29
REMARK   11  A    between atoms: C_30  and  O_31
REMARK   12  A    between atoms: O_31  and  C_32
REMARK                            x       y       z     vdW  Elec       q    Type
REMARK                         _______ _______ _______ _____ _____    ______ ____
ROOT
ATOM      1  C   UNL     1       0.466  10.238  19.873  0.00  0.00    +0.000 C 
ATOM      2  O   UNL     1       0.903  10.936  20.787  0.00  0.00    +0.000 OA
ATOM      3  N   UNL     1      -0.798  10.426  19.305  0.00  0.00    +0.000 N 
ATOM      4  C   UNL     1      -1.365   9.663  18.178  0.00  0.00    +0.000 C 
ATOM      5  C   UNL     1      -2.634  10.367  17.698  0.00  0.00    +0.000 C 
ATOM      6  C   UNL     1      -2.874  11.307  18.841  0.00  0.00    +0.000 A 
ATOM      7  C   UNL     1      -3.991  12.098  19.034  0.00  0.00    +0.000 A 
ATOM      8  C   UNL     1      -3.980  13.006  20.092  0.00  0.00    +0.000 A 
ATOM      9  C   UNL     1      -2.876  13.124  20.961  0.00  0.00    +0.000 A 
ATOM     10  C   UNL     1      -1.759  12.290  20.744  0.00  0.00    +0.000 A 
ATOM     11  C   UNL     1      -1.773  11.371  19.703  0.00  0.00    +0.000 A 
ENDROOT
BRANCH   1  16
ATOM     12  C   UNL     1       4.191   6.122  17.354  0.00  0.00    +0.000 A 
ATOM     13  C   UNL     1       3.701   7.419  17.184  0.00  0.00    +0.000 A 
ATOM     14  C   UNL     1       2.778   7.934  18.094  0.00  0.00    +0.000 A 
ATOM     15  C   UNL     1       2.038   9.134  18.121  0.00  0.00    +0.000 A 
ATOM     16  C   UNL     1       1.318   9.195  19.299  0.00  0.00    +0.000 A 
ATOM     17  N   UNL     1       1.505   7.961  19.904  0.00  0.00    +0.000 N 
ATOM     18  C   UNL     1       2.422   7.191  19.204  0.00  0.00    +0.000 A 
ATOM     19  C   UNL     1       2.942   5.908  19.471  0.00  0.00    +0.000 A 
ATOM     20  C   UNL     1       3.862   5.381  18.515  0.00  0.00    +0.000 A 
ATOM     21  H   UNL     1       1.059   7.672  20.764  0.00  0.00    +0.000 HD
BRANCH  12  23
ATOM     22  C   UNL     1       6.376   5.860  16.469  0.00  0.00    +0.000 C 
ATOM     23  O   UNL     1       4.985   5.553  16.385  0.00  0.00    +0.000 OA
ENDBRANCH  12  23
BRANCH  19  24
ATOM     24  O   UNL     1       2.479   5.333  20.618  0.00  0.00    +0.000 OA
ATOM     25  C   UNL     1       1.304   4.537  20.576  0.00  0.00    +0.000 C 
ENDBRANCH  19  24
BRANCH  20  26
ATOM     26  O   UNL     1       4.333   4.107  18.745  0.00  0.00    +0.000 OA
ATOM     27  C   UNL     1       3.628   3.017  18.163  0.00  0.00    +0.000 C 
ENDBRANCH  20  26
ENDBRANCH   1  16
BRANCH   5  28
ATOM     28  C   UNL     1      -2.421  11.112  16.381  0.00  0.00    +0.000 C 
ATOM     29 CL   UNL     1      -3.043  10.173  14.996  0.00  0.00    +0.000 Cl
ENDBRANCH   5  28
BRANCH   9  30
ATOM     30  N   UNL     1      -2.793  14.137  21.917  0.00  0.00    +0.000 N 
ATOM     31  H   UNL     1      -2.282  14.965  21.607  0.00  0.00    +0.000 HD
BRANCH  30  32
ATOM     32  C   UNL     1      -2.488  13.815  23.311  0.00  0.00    +0.000 C 
BRANCH  32  33
ATOM     33  C   UNL     1      -3.791  13.525  24.082  0.00  0.00    +0.000 C 
BRANCH  33  34
ATOM     34  N   UNL     1      -4.093  12.091  24.172  0.00  0.00    +0.000 NA
ATOM     35  H   UNL     1      -3.757  11.618  23.335  0.00  0.00    +0.000 HD
ATOM     36  H   UNL     1      -5.104  11.967  24.188  0.00  0.00    +0.000 HD
ENDBRANCH  33  34
ENDBRANCH  32  33
ENDBRANCH  30  32
ENDBRANCH   9  30
TORSDOF 9
ENDMDL
MODEL 5
REMARK VINA RESULT:      -7.1      0.941      2.277
REMARK  Name = 
REMARK  12 active torsions:
REMARK  status: ('A' for Active; 'I' for Inactive)
REMARK    1  A    between atoms: C_1  and  O_2
REMARK    2  A    between atoms: O_2  and  C_3
REMARK    3  A    between atoms: C_7  and  C_8
REMARK    4  A    between atoms: C_12  and  C_13
REMARK    5  A    between atoms: C_18  and  N_19
REMARK    6  A    between atoms: N_19  and  C_20
REMARK    7  A    between atoms: C_20  and  C_21
REMARK    8  A    between atoms: C_21  and  N_22
REMARK    9  A    between atoms: C_27  and  O_28
REMARK   10  A    between atoms: O_28  and  C_29
REMARK   11  A    between atoms: C_30  and  O_31
REMARK   12  A    between atoms: O_31  and  C_32
REMARK                            x       y       z     vdW  Elec       q    Type
REMARK                         _______ _______ _______ _____ _____    ______ ____
ROOT
ATOM      1  C   UNL     1       2.566   7.401  18.310  0.00  0.00    +0.000 C 
ATOM      2  O   UNL     1       3.495   7.745  17.581  0.00  0.00    +0.000 OA
ATOM      3  N   UNL     1       2.335   6.072  18.678  0.00  0.00    +0.000 N 
ATOM      4  C   UNL     1       1.276   5.595  19.586  0.00  0.00    +0.000 C 
ATOM      5  C   UNL     1       1.551   4.133  19.935  0.00  0.00    +0.000 C 
ATOM      6  C   UNL     1       2.582   3.795  18.901  0.00  0.00    +0.000 A 
ATOM      7  C   UNL     1       3.092   2.539  18.629  0.00  0.00    +0.000 A 
ATOM      8  C   UNL     1       4.140   2.437  17.716  0.00  0.00    +0.000 A 
ATOM      9  C   UNL     1       4.674   3.569  17.066  0.00  0.00    +0.000 A 
ATOM     10  C   UNL     1       4.119   4.833  17.356  0.00  0.00    +0.000 A 
ATOM     11  C   UNL     1       3.063   4.936  18.251  0.00  0.00    +0.000 A 
ENDROOT
BRANCH   1  16
ATOM     12  C   UNL     1      -0.867  11.744  20.863  0.00  0.00    +0.000 A 
ATOM     13  C   UNL     1       0.203  10.886  21.125  0.00  0.00    +0.000 A 
ATOM     14  C   UNL     1       0.631   9.994  20.140  0.00  0.00    +0.000 A 
ATOM     15  C   UNL     1       1.583   8.955  20.149  0.00  0.00    +0.000 A 
ATOM     16  C   UNL     1       1.684   8.424  18.877  0.00  0.00    +0.000 A 
ATOM     17  N   UNL     1       0.681   9.041  18.144  0.00  0.00    +0.000 N 
ATOM     18  C   UNL     1       0.051  10.029  18.885  0.00  0.00    +0.000 A 
ATOM     19  C   UNL     1      -0.979  10.926  18.538  0.00  0.00    +0.000 A 
ATOM     20  C   UNL     1      -1.428  11.812  19.565  0.00  0.00    +0.000 A 
ATOM     21  H   UNL     1       0.460   8.825  17.181  0.00  0.00    +0.000 HD
BRANCH  12  23
ATOM     22  C   UNL     1      -1.617  11.850  23.111  0.00  0.00    +0.000 C 
ATOM     23  O   UNL     1      -1.390  12.520  21.872  0.00  0.00    +0.000 OA
ENDBRANCH  12  23
BRANCH  19  24
ATOM     24  O   UNL     1      -1.420  10.817  17.251  0.00  0.00    +0.000 OA
ATOM     25  C   UNL     1      -2.495   9.939  16.954  0.00  0.00    +0.000 C 
ENDBRANCH  19  24
BRANCH  20  26
ATOM     26  O   UNL     1      -2.469  12.654  19.244  0.00  0.00    +0.000 OA
ATOM     27  C   UNL     1      -3.794  12.219  19.524  0.00  0.00    +0.000 C 
ENDBRANCH  20  26
ENDBRANCH   1  16
BRANCH   5  28
ATOM     28  C   UNL     1       2.091   3.967  21.355  0.00  0.00    +0.000 C 
ATOM     29 CL   UNL     1       1.664   2.371  22.031  0.00  0.00    +0.000 Cl
ENDBRANCH   5  28
BRANCH   9  30
ATOM     30  N   UNL     1       5.824   3.495  16.278  0.00  0.00    +0.000 N 
ATOM     31  H   UNL     1       6.441   2.716  16.510  0.00  0.00    +0.000 HD
BRANCH  30  32
ATOM     32  C   UNL     1       6.586   4.705  15.968  0.00  0.00    +0.000 C 
BRANCH  32  33
ATOM     33  C   UNL     1       6.617   4.931  14.443  0.00  0.00    +0.000 C 
BRANCH  33  34
ATOM     34  N   UNL     1       7.900   5.469  13.974  0.00  0.00    +0.000 NA
ATOM     35  H   UNL     1       8.534   5.579  14.764  0.00  0.00    +0.000 HD
ATOM     36  H   UNL     1       7.748   6.402  13.594  0.00  0.00    +0.000 HD
ENDBRANCH  33  34
ENDBRANCH  32  33
ENDBRANCH  30  32
ENDBRANCH   9  30
TORSDOF 9
ENDMDL
MODEL 6
REMARK VINA RESULT:      -7.0      3.407      9.727
REMARK  Name = 
REMARK  12 active torsions:
REMARK  status: ('A' for Active; 'I' for Inactive)
REMARK    1  A    between atoms: C_1  and  O_2
REMARK    2  A    between atoms: O_2  and  C_3
REMARK    3  A    between atoms: C_7  and  C_8
REMARK    4  A    between atoms: C_12  and  C_13
REMARK    5  A    between atoms: C_18  and  N_19
REMARK    6  A    between atoms: N_19  and  C_20
REMARK    7  A    between atoms: C_20  and  C_21
REMARK    8  A    between atoms: C_21  and  N_22
REMARK    9  A    between atoms: C_27  and  O_28
REMARK   10  A    between atoms: O_28  and  C_29
REMARK   11  A    between atoms: C_30  and  O_31
REMARK   12  A    between atoms: O_31  and  C_32
REMARK                            x       y       z     vdW  Elec       q    Type
REMARK                         _______ _______ _______ _____ _____    ______ ____
ROOT
ATOM      1  C   UNL     1       0.686   8.913  21.118  0.00  0.00    +0.000 C 
ATOM      2  O   UNL     1       0.502   8.762  22.325  0.00  0.00    +0.000 OA
ATOM      3  N   UNL     1       0.224  10.025  20.407  0.00  0.00    +0.000 N 
ATOM      4  C   UNL     1       0.451  10.295  18.976  0.00  0.00    +0.000 C 
ATOM      5  C   UNL     1       0.026  11.732  18.675  0.00  0.00    +0.000 C 
ATOM      6  C   UNL     1      -0.744  12.055  19.920  0.00  0.00    +0.000 A 
ATOM      7  C   UNL     1      -1.507  13.186  20.143  0.00  0.00    +0.000 A 
ATOM      8  C   UNL     1      -2.048  13.375  21.414  0.00  0.00    +0.000 A 
ATOM      9  C   UNL     1      -1.846  12.445  22.455  0.00  0.00    +0.000 A 
ATOM     10  C   UNL     1      -1.075  11.295  22.187  0.00  0.00    +0.000 A 
ATOM     11  C   UNL     1      -0.549  11.094  20.917  0.00  0.00    +0.000 A 
ENDROOT
BRANCH   1  16
ATOM     12  C   UNL     1       4.153   5.018  17.960  0.00  0.00    +0.000 A 
ATOM     13  C   UNL     1       3.711   6.342  17.973  0.00  0.00    +0.000 A 
ATOM     14  C   UNL     1       2.841   6.771  18.976  0.00  0.00    +0.000 A 
ATOM     15  C   UNL     1       2.152   7.984  19.182  0.00  0.00    +0.000 A 
ATOM     16  C   UNL     1       1.475   7.920  20.385  0.00  0.00    +0.000 A 
ATOM     17  N   UNL     1       1.632   6.614  20.823  0.00  0.00    +0.000 N 
ATOM     18  C   UNL     1       2.492   5.906  19.997  0.00  0.00    +0.000 A 
ATOM     19  C   UNL     1       2.968   4.581  20.080  0.00  0.00    +0.000 A 
ATOM     20  C   UNL     1       3.834   4.147  19.030  0.00  0.00    +0.000 A 
ATOM     21  H   UNL     1       1.204   6.234  21.657  0.00  0.00    +0.000 HD
BRANCH  12  23
ATOM     22  C   UNL     1       5.280   5.528  15.936  0.00  0.00    +0.000 C 
ATOM     23  O   UNL     1       4.890   4.548  16.898  0.00  0.00    +0.000 OA
ENDBRANCH  12  23
BRANCH  19  24
ATOM     24  O   UNL     1       2.521   3.883  21.163  0.00  0.00    +0.000 OA
ATOM     25  C   UNL     1       1.374   3.056  21.036  0.00  0.00    +0.000 C 
ENDBRANCH  19  24
BRANCH  20  26
ATOM     26  O   UNL     1       4.259   2.838  19.081  0.00  0.00    +0.000 OA
ATOM     27  C   UNL     1       3.524   1.866  18.347  0.00  0.00    +0.000 C 
ENDBRANCH  20  26
ENDBRANCH   1  16
BRANCH   5  28
ATOM     28  C   UNL     1       1.222  12.663  18.484  0.00  0.00    +0.000 C 
ATOM     29 CL   UNL     1       2.081  12.942  20.024  0.00  0.00    +0.000 Cl
ENDBRANCH   5  28
BRANCH   9  30
ATOM     30  N   UNL     1      -2.246  12.706  23.766  0.00  0.00    +0.000 N 
ATOM     31  H   UNL     1      -2.425  11.870  24.324  0.00  0.00    +0.000 HD
BRANCH  30  32
ATOM     32  C   UNL     1      -3.230  13.752  24.043  0.00  0.00    +0.000 C 
BRANCH  32  33
ATOM     33  C   UNL     1      -4.646  13.145  24.092  0.00  0.00    +0.000 C 
BRANCH  33  34
ATOM     34  N   UNL     1      -4.701  11.891  24.854  0.00  0.00    +0.000 NA
ATOM     35  H   UNL     1      -3.866  11.339  24.664  0.00  0.00    +0.000 HD
ATOM     36  H   UNL     1      -5.493  11.339  24.525  0.00  0.00    +0.000 HD
ENDBRANCH  33  34
ENDBRANCH  32  33
ENDBRANCH  30  32
ENDBRANCH   9  30
TORSDOF 9
ENDMDL
MODEL 7
REMARK VINA RESULT:      -7.0      3.587      9.833
REMARK  Name = 
REMARK  12 active torsions:
REMARK  status: ('A' for Active; 'I' for Inactive)
REMARK    1  A    between atoms: C_1  and  O_2
REMARK    2  A    between atoms: O_2  and  C_3
REMARK    3  A    between atoms: C_7  and  C_8
REMARK    4  A    between atoms: C_12  and  C_13
REMARK    5  A    between atoms: C_18  and  N_19
REMARK    6  A    between atoms: N_19  and  C_20
REMARK    7  A    between atoms: C_20  and  C_21
REMARK    8  A    between atoms: C_21  and  N_22
REMARK    9  A    between atoms: C_27  and  O_28
REMARK   10  A    between atoms: O_28  and  C_29
REMARK   11  A    between atoms: C_30  and  O_31
REMARK   12  A    between atoms: O_31  and  C_32
REMARK                            x       y       z     vdW  Elec       q    Type
REMARK                         _______ _______ _______ _____ _____    ______ ____
ROOT
ATOM      1  C   UNL     1       0.883   9.649  21.177  0.00  0.00    +0.000 C 
ATOM      2  O   UNL     1       1.390   9.959  22.254  0.00  0.00    +0.000 OA
ATOM      3  N   UNL     1      -0.189  10.343  20.608  0.00  0.00    +0.000 N 
ATOM      4  C   UNL     1      -0.811  10.059  19.302  0.00  0.00    +0.000 C 
ATOM      5  C   UNL     1      -1.746  11.213  18.943  0.00  0.00    +0.000 C 
ATOM      6  C   UNL     1      -1.838  11.912  20.266  0.00  0.00    +0.000 A 
ATOM      7  C   UNL     1      -2.688  12.954  20.587  0.00  0.00    +0.000 A 
ATOM      8  C   UNL     1      -2.541  13.563  21.832  0.00  0.00    +0.000 A 
ATOM      9  C   UNL     1      -1.567  13.136  22.760  0.00  0.00    +0.000 A 
ATOM     10  C   UNL     1      -0.728  12.060  22.404  0.00  0.00    +0.000 A 
ATOM     11  C   UNL     1      -0.883  11.439  21.172  0.00  0.00    +0.000 A 
ENDROOT
BRANCH   1  16
ATOM     12  C   UNL     1       3.450   5.235  17.846  0.00  0.00    +0.000 A 
ATOM     13  C   UNL     1       3.160   6.601  17.834  0.00  0.00    +0.000 A 
ATOM     14  C   UNL     1       2.484   7.174  18.912  0.00  0.00    +0.000 A 
ATOM     15  C   UNL     1       1.965   8.466  19.130  0.00  0.00    +0.000 A 
ATOM     16  C   UNL     1       1.454   8.538  20.412  0.00  0.00    +0.000 A 
ATOM     17  N   UNL     1       1.526   7.245  20.906  0.00  0.00    +0.000 N 
ATOM     18  C   UNL     1       2.186   6.404  20.021  0.00  0.00    +0.000 A 
ATOM     19  C   UNL     1       2.523   5.039  20.125  0.00  0.00    +0.000 A 
ATOM     20  C   UNL     1       3.187   4.459  19.001  0.00  0.00    +0.000 A 
ATOM     21  H   UNL     1       1.177   6.957  21.810  0.00  0.00    +0.000 HD
BRANCH  12  23
ATOM     22  C   UNL     1       5.405   4.657  16.634  0.00  0.00    +0.000 C 
ATOM     23  O   UNL     1       3.982   4.634  16.729  0.00  0.00    +0.000 OA
ENDBRANCH  12  23
BRANCH  19  24
ATOM     24  O   UNL     1       2.153   4.448  21.297  0.00  0.00    +0.000 OA
ATOM     25  C   UNL     1       1.256   3.349  21.273  0.00  0.00    +0.000 C 
ENDBRANCH  19  24
BRANCH  20  26
ATOM     26  O   UNL     1       3.471   3.113  19.077  0.00  0.00    +0.000 OA
ATOM     27  C   UNL     1       4.635   2.714  19.791  0.00  0.00    +0.000 C 
ENDBRANCH  20  26
ENDBRANCH   1  16
BRANCH   5  28
ATOM     28  C   UNL     1      -1.162  12.117  17.859  0.00  0.00    +0.000 C 
ATOM     29 CL   UNL     1       0.205  13.081  18.482  0.00  0.00    +0.000 Cl
ENDBRANCH   5  28
BRANCH   9  30
ATOM     30  N   UNL     1      -1.309  13.842  23.936  0.00  0.00    +0.000 N 
ATOM     31  H   UNL     1      -1.344  13.273  24.783  0.00  0.00    +0.000 HD
BRANCH  30  32
ATOM     32  C   UNL     1      -1.907  15.159  24.154  0.00  0.00    +0.000 C 
BRANCH  32  33
ATOM     33  C   UNL     1      -2.401  15.280  25.608  0.00  0.00    +0.000 C 
BRANCH  33  34
ATOM     34  N   UNL     1      -1.331  15.646  26.545  0.00  0.00    +0.000 NA
ATOM     35  H   UNL     1      -1.241  16.660  26.581  0.00  0.00    +0.000 HD
ATOM     36  H   UNL     1      -0.445  15.291  26.189  0.00  0.00    +0.000 HD
ENDBRANCH  33  34
ENDBRANCH  32  33
ENDBRANCH  30  32
ENDBRANCH   9  30
TORSDOF 9
ENDMDL
MODEL 8
REMARK VINA RESULT:      -6.9      1.006      1.040
REMARK  Name = 
REMARK  12 active torsions:
REMARK  status: ('A' for Active; 'I' for Inactive)
REMARK    1  A    between atoms: C_1  and  O_2
REMARK    2  A    between atoms: O_2  and  C_3
REMARK    3  A    between atoms: C_7  and  C_8
REMARK    4  A    between atoms: C_12  and  C_13
REMARK    5  A    between atoms: C_18  and  N_19
REMARK    6  A    between atoms: N_19  and  C_20
REMARK    7  A    between atoms: C_20  and  C_21
REMARK    8  A    between atoms: C_21  and  N_22
REMARK    9  A    between atoms: C_27  and  O_28
REMARK   10  A    between atoms: O_28  and  C_29
REMARK   11  A    between atoms: C_30  and  O_31
REMARK   12  A    between atoms: O_31  and  C_32
REMARK                            x       y       z     vdW  Elec       q    Type
REMARK                         _______ _______ _______ _____ _____    ______ ____
ROOT
ATOM      1  C   UNL     1       2.857   7.728  18.009  0.00  0.00    +0.000 C 
ATOM      2  O   UNL     1       3.952   8.158  17.650  0.00  0.00    +0.000 OA
ATOM      3  N   UNL     1       2.551   6.365  18.063  0.00  0.00    +0.000 N 
ATOM      4  C   UNL     1       1.282   5.778  18.529  0.00  0.00    +0.000 C 
ATOM      5  C   UNL     1       1.468   4.270  18.689  0.00  0.00    +0.000 C 
ATOM      6  C   UNL     1       2.761   4.075  17.956  0.00  0.00    +0.000 A 
ATOM      7  C   UNL     1       3.349   2.866  17.634  0.00  0.00    +0.000 A 
ATOM      8  C   UNL     1       4.620   2.884  17.060  0.00  0.00    +0.000 A 
ATOM      9  C   UNL     1       5.301   4.091  16.796  0.00  0.00    +0.000 A 
ATOM     10  C   UNL     1       4.664   5.306  17.123  0.00  0.00    +0.000 A 
ATOM     11  C   UNL     1       3.391   5.293  17.677  0.00  0.00    +0.000 A 
ENDROOT
BRANCH   1  16
ATOM     12  C   UNL     1      -1.600  11.546  19.658  0.00  0.00    +0.000 A 
ATOM     13  C   UNL     1      -1.083  10.863  18.556  0.00  0.00    +0.000 A 
ATOM     14  C   UNL     1       0.057  10.072  18.705  0.00  0.00    +0.000 A 
ATOM     15  C   UNL     1       0.856   9.373  17.778  0.00  0.00    +0.000 A 
ATOM     16  C   UNL     1       1.832   8.671  18.461  0.00  0.00    +0.000 A 
ATOM     17  N   UNL     1       1.712   9.073  19.783  0.00  0.00    +0.000 N 
ATOM     18  C   UNL     1       0.612   9.899  19.960  0.00  0.00    +0.000 A 
ATOM     19  C   UNL     1       0.088  10.499  21.123  0.00  0.00    +0.000 A 
ATOM     20  C   UNL     1      -1.060  11.332  20.950  0.00  0.00    +0.000 A 
ATOM     21  H   UNL     1       2.325   8.776  20.530  0.00  0.00    +0.000 HD
BRANCH  12  23
ATOM     22  C   UNL     1      -3.792  11.933  18.838  0.00  0.00    +0.000 C 
ATOM     23  O   UNL     1      -2.631  12.442  19.492  0.00  0.00    +0.000 OA
ENDBRANCH  12  23
BRANCH  19  24
ATOM     24  O   UNL     1       0.766  10.207  22.270  0.00  0.00    +0.000 OA
ATOM     25  C   UNL     1       0.150   9.393  23.257  0.00  0.00    +0.000 C 
ENDBRANCH  19  24
BRANCH  20  26
ATOM     26  O   UNL     1      -1.544  11.961  22.075  0.00  0.00    +0.000 OA
ATOM     27  C   UNL     1      -0.889  13.145  22.515  0.00  0.00    +0.000 C 
ENDBRANCH  20  26
ENDBRANCH   1  16
BRANCH   5  28
ATOM     28  C   UNL     1       1.573   3.850  20.154  0.00  0.00    +0.000 C 
ATOM     29 CL   UNL     1       2.274   5.152  21.155  0.00  0.00    +0.000 Cl
ENDBRANCH   5  28
BRANCH   9  30
ATOM     30  N   UNL     1       6.631   4.111  16.375  0.00  0.00    +0.000 N 
ATOM     31  H   UNL     1       7.282   4.494  17.061  0.00  0.00    +0.000 HD
BRANCH  30  32
ATOM     32  C   UNL     1       6.970   4.545  15.019  0.00  0.00    +0.000 C 
BRANCH  32  33
ATOM     33  C   UNL     1       5.891   4.067  14.028  0.00  0.00    +0.000 C 
BRANCH  33  34
ATOM     34  N   UNL     1       6.451   3.330  12.888  0.00  0.00    +0.000 NA
ATOM     35  H   UNL     1       7.418   3.613  12.740  0.00  0.00    +0.000 HD
ATOM     36  H   UNL     1       5.942   3.590  12.045  0.00  0.00    +0.000 HD
ENDBRANCH  33  34
ENDBRANCH  32  33
ENDBRANCH  30  32
ENDBRANCH   9  30
TORSDOF 9
ENDMDL
MODEL 9
REMARK VINA RESULT:      -6.9      3.899      7.000
REMARK  Name = 
REMARK  12 active torsions:
REMARK  status: ('A' for Active; 'I' for Inactive)
REMARK    1  A    between atoms: C_1  and  O_2
REMARK    2  A    between atoms: O_2  and  C_3
REMARK    3  A    between atoms: C_7  and  C_8
REMARK    4  A    between atoms: C_12  and  C_13
REMARK    5  A    between atoms: C_18  and  N_19
REMARK    6  A    between atoms: N_19  and  C_20
REMARK    7  A    between atoms: C_20  and  C_21
REMARK    8  A    between atoms: C_21  and  N_22
REMARK    9  A    between atoms: C_27  and  O_28
REMARK   10  A    between atoms: O_28  and  C_29
REMARK   11  A    between atoms: C_30  and  O_31
REMARK   12  A    between atoms: O_31  and  C_32
REMARK                            x       y       z     vdW  Elec       q    Type
REMARK                         _______ _______ _______ _____ _____    ______ ____
ROOT
ATOM      1  C   UNL     1      -0.797  10.834  22.417  0.00  0.00    +0.000 C 
ATOM      2  O   UNL     1      -0.499   9.941  23.208  0.00  0.00    +0.000 OA
ATOM      3  N   UNL     1      -0.415  10.824  21.072  0.00  0.00    +0.000 N 
ATOM      4  C   UNL     1      -0.777  11.832  20.060  0.00  0.00    +0.000 C 
ATOM      5  C   UNL     1      -0.397  11.299  18.678  0.00  0.00    +0.000 C 
ATOM      6  C   UNL     1       0.482  10.148  19.063  0.00  0.00    +0.000 A 
ATOM      7  C   UNL     1       1.251   9.380  18.208  0.00  0.00    +0.000 A 
ATOM      8  C   UNL     1       1.907   8.268  18.733  0.00  0.00    +0.000 A 
ATOM      9  C   UNL     1       1.813   7.922  20.097  0.00  0.00    +0.000 A 
ATOM     10  C   UNL     1       1.032   8.736  20.943  0.00  0.00    +0.000 A 
ATOM     11  C   UNL     1       0.392   9.856  20.428  0.00  0.00    +0.000 A 
ENDROOT
BRANCH   1  16
ATOM     12  C   UNL     1      -4.084  15.642  24.218  0.00  0.00    +0.000 A 
ATOM     13  C   UNL     1      -2.770  15.219  24.009  0.00  0.00    +0.000 A 
ATOM     14  C   UNL     1      -2.524  13.914  23.580  0.00  0.00    +0.000 A 
ATOM     15  C   UNL     1      -1.333  13.182  23.397  0.00  0.00    +0.000 A 
ATOM     16  C   UNL     1      -1.641  11.941  22.873  0.00  0.00    +0.000 A 
ATOM     17  N   UNL     1      -3.026  11.872  22.889  0.00  0.00    +0.000 N 
ATOM     18  C   UNL     1      -3.585  13.078  23.282  0.00  0.00    +0.000 A 
ATOM     19  C   UNL     1      -4.933  13.475  23.399  0.00  0.00    +0.000 A 
ATOM     20  C   UNL     1      -5.170  14.803  23.868  0.00  0.00    +0.000 A 
ATOM     21  H   UNL     1      -3.562  11.059  22.616  0.00  0.00    +0.000 HD
BRANCH  12  23
ATOM     22  C   UNL     1      -3.178  17.589  25.227  0.00  0.00    +0.000 C 
ATOM     23  O   UNL     1      -4.330  16.874  24.780  0.00  0.00    +0.000 OA
ENDBRANCH  12  23
BRANCH  19  24
ATOM     24  O   UNL     1      -5.841  12.517  23.053  0.00  0.00    +0.000 OA
ATOM     25  C   UNL     1      -6.359  12.491  21.732  0.00  0.00    +0.000 C 
ENDBRANCH  19  24
BRANCH  20  26
ATOM     26  O   UNL     1      -6.485  15.176  24.033  0.00  0.00    +0.000 OA
ATOM     27  C   UNL     1      -7.120  15.881  22.973  0.00  0.00    +0.000 C 
ENDBRANCH  20  26
ENDBRANCH   1  16
BRANCH   5  28
ATOM     28  C   UNL     1      -1.615  10.845  17.876  0.00  0.00    +0.000 C 
ATOM     29 CL   UNL     1      -3.123  11.540  18.534  0.00  0.00    +0.000 Cl
ENDBRANCH   5  28
BRANCH   9  30
ATOM     30  N   UNL     1       2.331   6.725  20.593  0.00  0.00    +0.000 N 
ATOM     31  H   UNL     1       3.226   6.824  21.074  0.00  0.00    +0.000 HD
BRANCH  30  32
ATOM     32  C   UNL     1       2.295   5.511  19.778  0.00  0.00    +0.000 C 
BRANCH  32  33
ATOM     33  C   UNL     1       1.434   4.437  20.471  0.00  0.00    +0.000 C 
BRANCH  33  34
ATOM     34  N   UNL     1       2.053   3.106  20.445  0.00  0.00    +0.000 NA
ATOM     35  H   UNL     1       2.299   2.825  21.393  0.00  0.00    +0.000 HD
ATOM     36  H   UNL     1       2.926   3.158  19.923  0.00  0.00    +0.000 HD
ENDBRANCH  33  34
ENDBRANCH  32  33
ENDBRANCH  30  32
ENDBRANCH   9  30
TORSDOF 9
ENDMDL
