MODEL 1
REMARK VINA RESULT:      -7.0      0.000      0.000
REMARK  Name = 
REMARK  6 active torsions:
REMARK  status: ('A' for Active; 'I' for Inactive)
REMARK    1  A    between atoms: C_1  and  C_2
REMARK    2  A    between atoms: C_2  and  O_3
REMARK    3  A    between atoms: O_3  and  C_4
REMARK    4  A    between atoms: C_4  and  C_6
REMARK    5  A    between atoms: C_7  and  N_8
REMARK    6  A    between atoms: N_14  and  C_15
REMARK                            x       y       z     vdW  Elec       q    Type
REMARK                         _______ _______ _______ _____ _____    ______ ____
ROOT
ATOM      1  C   UNL     1       0.849   9.520  19.486  0.00  0.00    +0.000 A 
ATOM      2  C   UNL     1       1.597   8.384  19.777  0.00  0.00    +0.000 A 
ATOM      3  S   UNL     1       1.425   7.875  21.381  0.00  0.00    +0.000 S 
ATOM      4  C   UNL     1       0.460   9.207  21.771  0.00  0.00    +0.000 A 
ATOM      5  C   UNL     1       0.241  10.045  20.694  0.00  0.00    +0.000 A 
ATOM      6  C   UNL     1      -0.545  11.318  20.858  0.00  0.00    +0.000 C 
ATOM      7  C   UNL     1      -0.677  11.728  22.335  0.00  0.00    +0.000 C 
ATOM      8  C   UNL     1      -1.070  10.539  23.217  0.00  0.00    +0.000 C 
ATOM      9  C   UNL     1      -0.016   9.428  23.173  0.00  0.00    +0.000 C 
ENDROOT
BRANCH   2  10
ATOM     10  N   UNL     1       2.404   7.689  18.881  0.00  0.00    +0.000 N 
ATOM     11  C   UNL     1       2.597   6.326  18.821  0.00  0.00    +0.000 C 
ATOM     12  O   UNL     1       2.030   5.498  19.531  0.00  0.00    +0.000 OA
ATOM     13  N   UNL     1       3.542   5.905  17.870  0.00  0.00    +0.000 N 
ATOM     14  C   UNL     1       3.857   4.471  17.902  0.00  0.00    +0.000 C 
ATOM     15  C   UNL     1       4.597   3.967  16.651  0.00  0.00    +0.000 C 
ATOM     16  N   UNL     1       5.755   4.782  16.237  0.00  0.00    +0.000 NA
ATOM     17  C   UNL     1       6.883   4.630  17.152  0.00  0.00    +0.000 C 
ATOM     18  C   UNL     1       5.331   6.188  16.122  0.00  0.00    +0.000 C 
ATOM     19  C   UNL     1       4.619   6.763  17.360  0.00  0.00    +0.000 C 
ATOM     20  H   UNL     1       2.999   8.286  18.327  0.00  0.00    +0.000 HD
ENDBRANCH   2  10
BRANCH   1  21
ATOM     21  C   UNL     1       0.836  10.093  18.136  0.00  0.00    +0.000 C 
ATOM     22  O   UNL     1       1.837  10.135  17.423  0.00  0.00    +0.000 OA
BRANCH  21  23
ATOM     23  O   UNL     1      -0.354  10.661  17.802  0.00  0.00    +0.000 OA
BRANCH  23  25
ATOM     24  C   UNL     1      -2.705  10.247  17.889  0.00  0.00    +0.000 C 
ATOM     25  C   UNL     1      -1.368   9.743  17.373  0.00  0.00    +0.000 C 
ENDBRANCH  23  25
ENDBRANCH  21  23
ENDBRANCH   1  21
TORSDOF 4
ENDMDL
MODEL 2
REMARK VINA RESULT:      -7.0      2.209      7.737
REMARK  Name = 
REMARK  6 active torsions:
REMARK  status: ('A' for Active; 'I' for Inactive)
REMARK    1  A    between atoms: C_1  and  C_2
REMARK    2  A    between atoms: C_2  and  O_3
REMARK    3  A    between atoms: O_3  and  C_4
REMARK    4  A    between atoms: C_4  and  C_6
REMARK    5  A    between atoms: C_7  and  N_8
REMARK    6  A    between atoms: N_14  and  C_15
REMARK                            x       y       z     vdW  Elec       q    Type
REMARK                         _______ _______ _______ _____ _____    ______ ____
ROOT
ATOM      1  C   UNL     1       3.017   5.539  17.782  0.00  0.00    +0.000 A 
ATOM      2  C   UNL     1       3.118   6.899  18.058  0.00  0.00    +0.000 A 
ATOM      3  S   UNL     1       4.498   7.607  17.382  0.00  0.00    +0.000 S 
ATOM      4  C   UNL     1       5.065   6.120  16.813  0.00  0.00    +0.000 A 
ATOM      5  C   UNL     1       4.215   5.072  17.111  0.00  0.00    +0.000 A 
ATOM      6  C   UNL     1       4.578   3.659  16.739  0.00  0.00    +0.000 C 
ATOM      7  C   UNL     1       6.074   3.514  16.413  0.00  0.00    +0.000 C 
ATOM      8  C   UNL     1       6.559   4.634  15.485  0.00  0.00    +0.000 C 
ATOM      9  C   UNL     1       6.391   6.014  16.127  0.00  0.00    +0.000 C 
ENDROOT
BRANCH   2  10
ATOM     10  N   UNL     1       2.205   7.651  18.791  0.00  0.00    +0.000 N 
ATOM     11  C   UNL     1       1.541   8.785  18.377  0.00  0.00    +0.000 C 
ATOM     12  O   UNL     1       1.616   9.281  17.255  0.00  0.00    +0.000 OA
ATOM     13  N   UNL     1       0.744   9.394  19.361  0.00  0.00    +0.000 N 
ATOM     14  C   UNL     1       0.150  10.679  18.970  0.00  0.00    +0.000 C 
ATOM     15  C   UNL     1      -0.987  11.148  19.894  0.00  0.00    +0.000 C 
ATOM     16  N   UNL     1      -0.686  11.090  21.338  0.00  0.00    +0.000 NA
ATOM     17  C   UNL     1       0.269  12.122  21.736  0.00  0.00    +0.000 C 
ATOM     18  C   UNL     1      -0.201   9.740  21.668  0.00  0.00    +0.000 C 
ATOM     19  C   UNL     1       0.966   9.229  20.803  0.00  0.00    +0.000 C 
ATOM     20  H   UNL     1       2.156   7.391  19.764  0.00  0.00    +0.000 HD
ENDBRANCH   2  10
BRANCH   1  21
ATOM     21  C   UNL     1       1.869   4.755  18.250  0.00  0.00    +0.000 C 
ATOM     22  O   UNL     1       1.141   4.124  17.487  0.00  0.00    +0.000 OA
BRANCH  21  23
ATOM     23  O   UNL     1       1.636   4.884  19.584  0.00  0.00    +0.000 OA
BRANCH  23  25
ATOM     24  C   UNL     1       1.809   3.138  21.204  0.00  0.00    +0.000 C 
ATOM     25  C   UNL     1       0.905   3.806  20.182  0.00  0.00    +0.000 C 
ENDBRANCH  23  25
ENDBRANCH  21  23
ENDBRANCH   1  21
TORSDOF 4
ENDMDL
MODEL 3
REMARK VINA RESULT:      -6.7      0.843      1.454
REMARK  Name = 
REMARK  6 active torsions:
REMARK  status: ('A' for Active; 'I' for Inactive)
REMARK    1  A    between atoms: C_1  and  C_2
REMARK    2  A    between atoms: C_2  and  O_3
REMARK    3  A    between atoms: O_3  and  C_4
REMARK    4  A    between atoms: C_4  and  C_6
REMARK    5  A    between atoms: C_7  and  N_8
REMARK    6  A    between atoms: N_14  and  C_15
REMARK                            x       y       z     vdW  Elec       q    Type
REMARK                         _______ _______ _______ _____ _____    ______ ____
ROOT
ATOM      1  C   UNL     1       0.713   9.510  19.529  0.00  0.00    +0.000 A 
ATOM      2  C   UNL     1       1.543   8.431  19.820  0.00  0.00    +0.000 A 
ATOM      3  S   UNL     1       1.474   7.967  21.444  0.00  0.00    +0.000 S 
ATOM      4  C   UNL     1       0.446   9.250  21.838  0.00  0.00    +0.000 A 
ATOM      5  C   UNL     1       0.128  10.037  20.746  0.00  0.00    +0.000 A 
ATOM      6  C   UNL     1      -0.728  11.264  20.907  0.00  0.00    +0.000 C 
ATOM      7  C   UNL     1      -0.820  11.715  22.376  0.00  0.00    +0.000 C 
ATOM      8  C   UNL     1      -1.098  10.534  23.311  0.00  0.00    +0.000 C 
ATOM      9  C   UNL     1       0.020   9.488  23.252  0.00  0.00    +0.000 C 
ENDROOT
BRANCH   2  10
ATOM     10  N   UNL     1       2.352   7.757  18.909  0.00  0.00    +0.000 N 
ATOM     11  C   UNL     1       2.555   6.398  18.825  0.00  0.00    +0.000 C 
ATOM     12  O   UNL     1       1.996   5.554  19.524  0.00  0.00    +0.000 OA
ATOM     13  N   UNL     1       3.499   5.999  17.864  0.00  0.00    +0.000 N 
ATOM     14  C   UNL     1       3.824   4.568  17.870  0.00  0.00    +0.000 C 
ATOM     15  C   UNL     1       4.563   4.090  16.609  0.00  0.00    +0.000 C 
ATOM     16  N   UNL     1       5.714   4.920  16.203  0.00  0.00    +0.000 NA
ATOM     17  C   UNL     1       6.846   4.761  17.112  0.00  0.00    +0.000 C 
ATOM     18  C   UNL     1       5.278   6.324  16.114  0.00  0.00    +0.000 C 
ATOM     19  C   UNL     1       4.567   6.874  17.364  0.00  0.00    +0.000 C 
ATOM     20  H   UNL     1       2.940   8.368  18.362  0.00  0.00    +0.000 HD
ENDBRANCH   2  10
BRANCH   1  21
ATOM     21  C   UNL     1       0.606  10.036  18.164  0.00  0.00    +0.000 C 
ATOM     22  O   UNL     1      -0.399   9.885  17.471  0.00  0.00    +0.000 OA
BRANCH  21  23
ATOM     23  O   UNL     1       1.757  10.605  17.713  0.00  0.00    +0.000 OA
BRANCH  23  25
ATOM     24  C   UNL     1       1.267  12.892  18.197  0.00  0.00    +0.000 C 
ATOM     25  C   UNL     1       2.214  11.734  18.468  0.00  0.00    +0.000 C 
ENDBRANCH  23  25
ENDBRANCH  21  23
ENDBRANCH   1  21
TORSDOF 4
ENDMDL
MODEL 4
REMARK VINA RESULT:      -6.7      2.246      7.737
REMARK  Name = 
REMARK  6 active torsions:
REMARK  status: ('A' for Active; 'I' for Inactive)
REMARK    1  A    between atoms: C_1  and  C_2
REMARK    2  A    between atoms: C_2  and  O_3
REMARK    3  A    between atoms: O_3  and  C_4
REMARK    4  A    between atoms: C_4  and  C_6
REMARK    5  A    between atoms: C_7  and  N_8
REMARK    6  A    between atoms: N_14  and  C_15
REMARK                            x       y       z     vdW  Elec       q    Type
REMARK                         _______ _______ _______ _____ _____    ______ ____
ROOT
ATOM      1  C   UNL     1       2.681   6.035  18.939  0.00  0.00    +0.000 A 
ATOM      2  C   UNL     1       2.530   7.406  18.758  0.00  0.00    +0.000 A 
ATOM      3  S   UNL     1       3.452   8.006  17.473  0.00  0.00    +0.000 S 
ATOM      4  C   UNL     1       4.171   6.501  17.198  0.00  0.00    +0.000 A 
ATOM      5  C   UNL     1       3.714   5.522  18.061  0.00  0.00    +0.000 A 
ATOM      6  C   UNL     1       4.280   4.128  18.011  0.00  0.00    +0.000 C 
ATOM      7  C   UNL     1       5.612   4.075  17.243  0.00  0.00    +0.000 C 
ATOM      8  C   UNL     1       5.534   4.851  15.924  0.00  0.00    +0.000 C 
ATOM      9  C   UNL     1       5.233   6.335  16.157  0.00  0.00    +0.000 C 
ENDROOT
BRANCH   2  10
ATOM     10  N   UNL     1       1.711   8.242  19.512  0.00  0.00    +0.000 N 
ATOM     11  C   UNL     1       0.877   9.232  19.042  0.00  0.00    +0.000 C 
ATOM     12  O   UNL     1       0.686   9.494  17.856  0.00  0.00    +0.000 OA
ATOM     13  N   UNL     1       0.233   9.985  20.039  0.00  0.00    +0.000 N 
ATOM     14  C   UNL     1      -0.542  11.131  19.547  0.00  0.00    +0.000 C 
ATOM     15  C   UNL     1      -1.516  11.716  20.584  0.00  0.00    +0.000 C 
ATOM     16  N   UNL     1      -0.936  11.968  21.917  0.00  0.00    +0.000 NA
ATOM     17  C   UNL     1      -0.021  13.108  21.907  0.00  0.00    +0.000 C 
ATOM     18  C   UNL     1      -0.272  10.740  22.386  0.00  0.00    +0.000 C 
ATOM     19  C   UNL     1       0.747  10.127  21.407  0.00  0.00    +0.000 C 
ATOM     20  H   UNL     1       1.877   8.182  20.506  0.00  0.00    +0.000 HD
ENDBRANCH   2  10
BRANCH   1  21
ATOM     21  C   UNL     1       1.933   5.322  19.981  0.00  0.00    +0.000 C 
ATOM     22  O   UNL     1       2.193   5.431  21.177  0.00  0.00    +0.000 OA
BRANCH  21  23
ATOM     23  O   UNL     1       1.005   4.459  19.484  0.00  0.00    +0.000 OA
BRANCH  23  25
ATOM     24  C   UNL     1       1.196   2.182  18.790  0.00  0.00    +0.000 C 
ATOM     25  C   UNL     1       1.093   3.118  19.983  0.00  0.00    +0.000 C 
ENDBRANCH  23  25
ENDBRANCH  21  23
ENDBRANCH   1  21
TORSDOF 4
ENDMDL
MODEL 5
REMARK VINA RESULT:      -6.6      2.454      7.413
REMARK  Name = 
REMARK  6 active torsions:
REMARK  status: ('A' for Active; 'I' for Inactive)
REMARK    1  A    between atoms: C_1  and  C_2
REMARK    2  A    between atoms: C_2  and  O_3
REMARK    3  A    between atoms: O_3  and  C_4
REMARK    4  A    between atoms: C_4  and  C_6
REMARK    5  A    between atoms: C_7  and  N_8
REMARK    6  A    between atoms: N_14  and  C_15
REMARK                            x       y       z     vdW  Elec       q    Type
REMARK                         _______ _______ _______ _____ _____    ______ ____
ROOT
ATOM      1  C   UNL     1       3.478   5.712  18.543  0.00  0.00    +0.000 A 
ATOM      2  C   UNL     1       2.449   6.308  19.267  0.00  0.00    +0.000 A 
ATOM      3  S   UNL     1       1.518   5.189  20.129  0.00  0.00    +0.000 S 
ATOM      4  C   UNL     1       2.364   3.879  19.476  0.00  0.00    +0.000 A 
ATOM      5  C   UNL     1       3.370   4.268  18.611  0.00  0.00    +0.000 A 
ATOM      6  C   UNL     1       4.196   3.242  17.882  0.00  0.00    +0.000 C 
ATOM      7  C   UNL     1       3.535   1.853  17.897  0.00  0.00    +0.000 C 
ATOM      8  C   UNL     1       3.029   1.486  19.297  0.00  0.00    +0.000 C 
ATOM      9  C   UNL     1       1.966   2.472  19.792  0.00  0.00    +0.000 C 
ENDROOT
BRANCH   2  10
ATOM     10  N   UNL     1       2.178   7.672  19.327  0.00  0.00    +0.000 N 
ATOM     11  C   UNL     1       1.533   8.348  20.338  0.00  0.00    +0.000 C 
ATOM     12  O   UNL     1       1.140   7.844  21.389  0.00  0.00    +0.000 OA
ATOM     13  N   UNL     1       1.314   9.713  20.091  0.00  0.00    +0.000 N 
ATOM     14  C   UNL     1       0.502  10.404  21.100  0.00  0.00    +0.000 C 
ATOM     15  C   UNL     1       0.573  11.938  21.015  0.00  0.00    +0.000 C 
ATOM     16  N   UNL     1       0.380  12.501  19.664  0.00  0.00    +0.000 NA
ATOM     17  C   UNL     1      -1.008  12.388  19.221  0.00  0.00    +0.000 C 
ATOM     18  C   UNL     1       1.306  11.833  18.734  0.00  0.00    +0.000 C 
ATOM     19  C   UNL     1       1.253  10.294  18.744  0.00  0.00    +0.000 C 
ATOM     20  H   UNL     1       2.363   8.158  18.462  0.00  0.00    +0.000 HD
ENDBRANCH   2  10
BRANCH   1  21
ATOM     21  C   UNL     1       4.418   6.521  17.760  0.00  0.00    +0.000 C 
ATOM     22  O   UNL     1       4.057   7.271  16.856  0.00  0.00    +0.000 OA
BRANCH  21  23
ATOM     23  O   UNL     1       5.722   6.277  18.064  0.00  0.00    +0.000 OA
BRANCH  23  25
ATOM     24  C   UNL     1       7.606   7.636  17.510  0.00  0.00    +0.000 C 
ATOM     25  C   UNL     1       6.655   6.560  17.014  0.00  0.00    +0.000 C 
ENDBRANCH  23  25
ENDBRANCH  21  23
ENDBRANCH   1  21
TORSDOF 4
ENDMDL
MODEL 6
REMARK VINA RESULT:      -6.5      2.561      7.280
REMARK  Name = 
REMARK  6 active torsions:
REMARK  status: ('A' for Active; 'I' for Inactive)
REMARK    1  A    between atoms: C_1  and  C_2
REMARK    2  A    between atoms: C_2  and  O_3
REMARK    3  A    between atoms: O_3  and  C_4
REMARK    4  A    between atoms: C_4  and  C_6
REMARK    5  A    between atoms: C_7  and  N_8
REMARK    6  A    between atoms: N_14  and  C_15
REMARK                            x       y       z     vdW  Elec       q    Type
REMARK                         _______ _______ _______ _____ _____    ______ ____
ROOT
ATOM      1  C   UNL     1       2.758   6.408  18.681  0.00  0.00    +0.000 A 
ATOM      2  C   UNL     1       2.053   6.872  19.788  0.00  0.00    +0.000 A 
ATOM      3  S   UNL     1       1.502   5.624  20.787  0.00  0.00    +0.000 S 
ATOM      4  C   UNL     1       2.066   4.434  19.727  0.00  0.00    +0.000 A 
ATOM      5  C   UNL     1       2.692   4.961  18.612  0.00  0.00    +0.000 A 
ATOM      6  C   UNL     1       3.208   4.060  17.523  0.00  0.00    +0.000 C 
ATOM      7  C   UNL     1       2.606   2.647  17.609  0.00  0.00    +0.000 C 
ATOM      8  C   UNL     1       2.638   2.108  19.044  0.00  0.00    +0.000 C 
ATOM      9  C   UNL     1       1.817   2.983  19.996  0.00  0.00    +0.000 C 
ENDROOT
BRANCH   2  10
ATOM     10  N   UNL     1       1.813   8.207  20.099  0.00  0.00    +0.000 N 
ATOM     11  C   UNL     1       0.776   8.711  20.853  0.00  0.00    +0.000 C 
ATOM     12  O   UNL     1      -0.079   8.036  21.422  0.00  0.00    +0.000 OA
ATOM     13  N   UNL     1       0.727  10.113  20.928  0.00  0.00    +0.000 N 
ATOM     14  C   UNL     1      -0.454  10.657  21.608  0.00  0.00    +0.000 C 
ATOM     15  C   UNL     1      -0.323  12.139  21.999  0.00  0.00    +0.000 C 
ATOM     16  N   UNL     1       0.162  13.030  20.927  0.00  0.00    +0.000 NA
ATOM     17  C   UNL     1      -0.849  13.235  19.892  0.00  0.00    +0.000 C 
ATOM     18  C   UNL     1       1.406  12.472  20.372  0.00  0.00    +0.000 C 
ATOM     19  C   UNL     1       1.326  11.001  19.923  0.00  0.00    +0.000 C 
ATOM     20  H   UNL     1       2.396   8.852  19.587  0.00  0.00    +0.000 HD
ENDBRANCH   2  10
BRANCH   1  21
ATOM     21  C   UNL     1       3.350   7.340  17.715  0.00  0.00    +0.000 C 
ATOM     22  O   UNL     1       2.693   8.204  17.138  0.00  0.00    +0.000 OA
BRANCH  21  23
ATOM     23  O   UNL     1       4.660   7.083  17.450  0.00  0.00    +0.000 OA
BRANCH  23  25
ATOM     24  C   UNL     1       6.087   5.748  16.078  0.00  0.00    +0.000 C 
ATOM     25  C   UNL     1       4.952   6.758  16.085  0.00  0.00    +0.000 C 
ENDBRANCH  23  25
ENDBRANCH  21  23
ENDBRANCH   1  21
TORSDOF 4
ENDMDL
MODEL 7
REMARK VINA RESULT:      -6.2      3.397      7.972
REMARK  Name = 
REMARK  6 active torsions:
REMARK  status: ('A' for Active; 'I' for Inactive)
REMARK    1  A    between atoms: C_1  and  C_2
REMARK    2  A    between atoms: C_2  and  O_3
REMARK    3  A    between atoms: O_3  and  C_4
REMARK    4  A    between atoms: C_4  and  C_6
REMARK    5  A    between atoms: C_7  and  N_8
REMARK    6  A    between atoms: N_14  and  C_15
REMARK                            x       y       z     vdW  Elec       q    Type
REMARK                         _______ _______ _______ _____ _____    ______ ____
ROOT
ATOM      1  C   UNL     1       1.019   8.701  20.142  0.00  0.00    +0.000 A 
ATOM      2  C   UNL     1       1.012   9.869  19.386  0.00  0.00    +0.000 A 
ATOM      3  S   UNL     1       1.909   9.735  17.958  0.00  0.00    +0.000 S 
ATOM      4  C   UNL     1       2.433   8.177  18.354  0.00  0.00    +0.000 A 
ATOM      5  C   UNL     1       1.927   7.732  19.561  0.00  0.00    +0.000 A 
ATOM      6  C   UNL     1       2.329   6.390  20.114  0.00  0.00    +0.000 C 
ATOM      7  C   UNL     1       3.592   5.840  19.430  0.00  0.00    +0.000 C 
ATOM      8  C   UNL     1       3.515   5.979  17.906  0.00  0.00    +0.000 C 
ATOM      9  C   UNL     1       3.399   7.445  17.476  0.00  0.00    +0.000 C 
ENDROOT
BRANCH   2  10
ATOM     10  N   UNL     1       0.344  11.046  19.712  0.00  0.00    +0.000 N 
ATOM     11  C   UNL     1       0.818  12.085  20.483  0.00  0.00    +0.000 C 
ATOM     12  O   UNL     1       1.948  12.153  20.962  0.00  0.00    +0.000 OA
ATOM     13  N   UNL     1      -0.110  13.111  20.726  0.00  0.00    +0.000 N 
ATOM     14  C   UNL     1       0.342  14.147  21.663  0.00  0.00    +0.000 C 
ATOM     15  C   UNL     1      -0.514  15.425  21.641  0.00  0.00    +0.000 C 
ATOM     16  N   UNL     1      -1.971  15.205  21.716  0.00  0.00    +0.000 NA
ATOM     17  C   UNL     1      -2.388  14.766  23.045  0.00  0.00    +0.000 C 
ATOM     18  C   UNL     1      -2.360  14.239  20.674  0.00  0.00    +0.000 C 
ATOM     19  C   UNL     1      -1.565  12.920  20.670  0.00  0.00    +0.000 C 
ATOM     20  H   UNL     1      -0.633  11.039  19.458  0.00  0.00    +0.000 HD
ENDBRANCH   2  10
BRANCH   1  21
ATOM     21  C   UNL     1       0.266   8.607  21.397  0.00  0.00    +0.000 C 
ATOM     22  O   UNL     1      -0.773   7.959  21.501  0.00  0.00    +0.000 OA
BRANCH  21  23
ATOM     23  O   UNL     1       0.773   9.388  22.390  0.00  0.00    +0.000 OA
BRANCH  23  25
ATOM     24  C   UNL     1      -1.072  10.653  23.225  0.00  0.00    +0.000 C 
ATOM     25  C   UNL     1      -0.076   9.547  23.533  0.00  0.00    +0.000 C 
ENDBRANCH  23  25
ENDBRANCH  21  23
ENDBRANCH   1  21
TORSDOF 4
ENDMDL
MODEL 8
REMARK VINA RESULT:      -6.1      3.638      7.484
REMARK  Name = 
REMARK  6 active torsions:
REMARK  status: ('A' for Active; 'I' for Inactive)
REMARK    1  A    between atoms: C_1  and  C_2
REMARK    2  A    between atoms: C_2  and  O_3
REMARK    3  A    between atoms: O_3  and  C_4
REMARK    4  A    between atoms: C_4  and  C_6
REMARK    5  A    between atoms: C_7  and  N_8
REMARK    6  A    between atoms: N_14  and  C_15
REMARK                            x       y       z     vdW  Elec       q    Type
REMARK                         _______ _______ _______ _____ _____    ______ ____
ROOT
ATOM      1  C   UNL     1       1.320   8.885  20.533  0.00  0.00    +0.000 A 
ATOM      2  C   UNL     1       1.512   9.866  19.564  0.00  0.00    +0.000 A 
ATOM      3  S   UNL     1       1.968   9.229  18.065  0.00  0.00    +0.000 S 
ATOM      4  C   UNL     1       2.047   7.656  18.681  0.00  0.00    +0.000 A 
ATOM      5  C   UNL     1       1.715   7.588  20.021  0.00  0.00    +0.000 A 
ATOM      6  C   UNL     1       1.784   6.280  20.764  0.00  0.00    +0.000 C 
ATOM      7  C   UNL     1       2.616   5.231  20.007  0.00  0.00    +0.000 C 
ATOM      8  C   UNL     1       2.241   5.178  18.522  0.00  0.00    +0.000 C 
ATOM      9  C   UNL     1       2.501   6.517  17.824  0.00  0.00    +0.000 C 
ENDROOT
BRANCH   2  10
ATOM     10  N   UNL     1       1.346  11.235  19.747  0.00  0.00    +0.000 N 
ATOM     11  C   UNL     1       0.396  12.043  19.161  0.00  0.00    +0.000 C 
ATOM     12  O   UNL     1      -0.501  11.655  18.415  0.00  0.00    +0.000 OA
ATOM     13  N   UNL     1       0.520  13.410  19.457  0.00  0.00    +0.000 N 
ATOM     14  C   UNL     1      -0.399  14.289  18.722  0.00  0.00    +0.000 C 
ATOM     15  C   UNL     1      -0.506  15.708  19.306  0.00  0.00    +0.000 C 
ATOM     16  N   UNL     1       0.783  16.367  19.594  0.00  0.00    +0.000 NA
ATOM     17  C   UNL     1       1.480  16.758  18.371  0.00  0.00    +0.000 C 
ATOM     18  C   UNL     1       1.601  15.467  20.424  0.00  0.00    +0.000 C 
ATOM     19  C   UNL     1       1.779  14.041  19.871  0.00  0.00    +0.000 C 
ATOM     20  H   UNL     1       2.101  11.669  20.256  0.00  0.00    +0.000 HD
ENDBRANCH   2  10
BRANCH   1  21
ATOM     21  C   UNL     1       0.884   9.237  21.889  0.00  0.00    +0.000 C 
ATOM     22  O   UNL     1       1.649   9.244  22.851  0.00  0.00    +0.000 OA
BRANCH  21  23
ATOM     23  O   UNL     1      -0.457   9.446  21.987  0.00  0.00    +0.000 OA
BRANCH  23  25
ATOM     24  C   UNL     1      -1.120  11.656  22.602  0.00  0.00    +0.000 C 
ATOM     25  C   UNL     1      -0.868  10.244  23.104  0.00  0.00    +0.000 C 
ENDBRANCH  23  25
ENDBRANCH  21  23
ENDBRANCH   1  21
TORSDOF 4
ENDMDL
MODEL 9
REMARK VINA RESULT:      -6.1      5.651      9.635
REMARK  Name = 
REMARK  6 active torsions:
REMARK  status: ('A' for Active; 'I' for Inactive)
REMARK    1  A    between atoms: C_1  and  C_2
REMARK    2  A    between atoms: C_2  and  O_3
REMARK    3  A    between atoms: O_3  and  C_4
REMARK    4  A    between atoms: C_4  and  C_6
REMARK    5  A    between atoms: C_7  and  N_8
REMARK    6  A    between atoms: N_14  and  C_15
REMARK                            x       y       z     vdW  Elec       q    Type
REMARK                         _______ _______ _______ _____ _____    ______ ____
ROOT
ATOM      1  C   UNL     1      -1.585  11.860  20.497  0.00  0.00    +0.000 A 
ATOM      2  C   UNL     1      -2.319  12.408  21.545  0.00  0.00    +0.000 A 
ATOM      3  S   UNL     1      -1.857  11.807  23.057  0.00  0.00    +0.000 S 
ATOM      4  C   UNL     1      -0.765  10.717  22.366  0.00  0.00    +0.000 A 
ATOM      5  C   UNL     1      -0.722  10.802  20.987  0.00  0.00    +0.000 A 
ATOM      6  C   UNL     1       0.147   9.870  20.186  0.00  0.00    +0.000 C 
ATOM      7  C   UNL     1       0.592   8.648  21.008  0.00  0.00    +0.000 C 
ATOM      8  C   UNL     1       1.090   9.056  22.399  0.00  0.00    +0.000 C 
ATOM      9  C   UNL     1      -0.008   9.744  23.214  0.00  0.00    +0.000 C 
ENDROOT
BRANCH   2  10
ATOM     10  N   UNL     1      -3.324  13.364  21.423  0.00  0.00    +0.000 N 
ATOM     11  C   UNL     1      -4.675  13.178  21.616  0.00  0.00    +0.000 C 
ATOM     12  O   UNL     1      -5.200  12.130  21.988  0.00  0.00    +0.000 OA
ATOM     13  N   UNL     1      -5.472  14.299  21.333  0.00  0.00    +0.000 N 
ATOM     14  C   UNL     1      -6.919  14.064  21.398  0.00  0.00    +0.000 C 
ATOM     15  C   UNL     1      -7.759  15.352  21.446  0.00  0.00    +0.000 C 
ATOM     16  N   UNL     1      -7.406  16.369  20.436  0.00  0.00    +0.000 NA
ATOM     17  C   UNL     1      -7.818  15.968  19.093  0.00  0.00    +0.000 C 
ATOM     18  C   UNL     1      -5.958  16.628  20.509  0.00  0.00    +0.000 C 
ATOM     19  C   UNL     1      -5.061  15.379  20.426  0.00  0.00    +0.000 C 
ATOM     20  H   UNL     1      -3.009  14.230  21.013  0.00  0.00    +0.000 HD
ENDBRANCH   2  10
BRANCH   1  21
ATOM     21  C   UNL     1      -1.812  12.284  19.111  0.00  0.00    +0.000 C 
ATOM     22  O   UNL     1      -0.997  12.952  18.479  0.00  0.00    +0.000 OA
BRANCH  21  23
ATOM     23  O   UNL     1      -3.047  11.955  18.642  0.00  0.00    +0.000 OA
BRANCH  23  25
ATOM     24  C   UNL     1      -2.617   9.900  17.505  0.00  0.00    +0.000 C 
ATOM     25  C   UNL     1      -3.063  11.344  17.346  0.00  0.00    +0.000 C 
ENDBRANCH  23  25
ENDBRANCH  21  23
ENDBRANCH   1  21
TORSDOF 4
ENDMDL
