MODEL 1
REMARK VINA RESULT:      -6.9      0.000      0.000
REMARK  Name = 
REMARK  5 active torsions:
REMARK  status: ('A' for Active; 'I' for Inactive)
REMARK    1  A    between atoms: C_1  and  C_2
REMARK    2  A    between atoms: C_2  and  C_3
REMARK    3  A    between atoms: C_3  and  N_4
REMARK    4  A    between atoms: C_10  and  C_11
REMARK    5  A    between atoms: C_11  and  C_13
REMARK                            x       y       z     vdW  Elec       q    Type
REMARK                         _______ _______ _______ _____ _____    ______ ____
ROOT
ATOM      1  N   UNL     1       6.196   5.065  16.004  0.00  0.00    +0.000 N 
ATOM      2  C   UNL     1       5.140   6.198  15.868  0.00  0.00    +0.000 C 
ATOM      3  C   UNL     1       4.572   6.505  17.259  0.00  0.00    +0.000 C 
ATOM      4  C   UNL     1       5.125   5.531  18.308  0.00  0.00    +0.000 C 
ATOM      5  C   UNL     1       6.646   5.725  18.366  0.00  0.00    +0.000 C 
ATOM      6  C   UNL     1       7.270   5.527  16.983  0.00  0.00    +0.000 C 
ATOM      7  C   UNL     1       4.863   4.072  17.886  0.00  0.00    +0.000 C 
ATOM      8  C   UNL     1       5.471   3.808  16.503  0.00  0.00    +0.000 C 
ENDROOT
BRANCH   7   9
ATOM      9  C   UNL     1       3.382   3.693  17.898  0.00  0.00    +0.000 C 
ATOM     10  O   UNL     1       2.784   3.563  16.824  0.00  0.00    +0.000 OA
BRANCH   9  11
ATOM     11  C   UNL     1       2.719   3.461  19.176  0.00  0.00    +0.000 A 
ATOM     12  C   UNL     1       1.452   3.888  19.535  0.00  0.00    +0.000 A 
ATOM     13  C   UNL     1       1.092   3.492  20.856  0.00  0.00    +0.000 A 
ATOM     14  C   UNL     1       2.106   2.802  21.478  0.00  0.00    +0.000 A 
ATOM     15  S   UNL     1       3.469   2.622  20.467  0.00  0.00    +0.000 S 
ENDBRANCH   9  11
ENDBRANCH   7   9
BRANCH   1  16
ATOM     16  C   UNL     1       6.785   4.836  14.582  0.00  0.00    +0.000 C 
BRANCH  16  18
ATOM     17  C   UNL     1       6.556   3.652  12.361  0.00  0.00    +0.000 C 
ATOM     18  C   UNL     1       5.932   3.898  13.725  0.00  0.00    +0.000 C 
ENDBRANCH  16  18
ENDBRANCH   1  16
TORSDOF 4
ENDMDL
MODEL 2
REMARK VINA RESULT:      -6.7      1.892      3.360
REMARK  Name = 
REMARK  5 active torsions:
REMARK  status: ('A' for Active; 'I' for Inactive)
REMARK    1  A    between atoms: C_1  and  C_2
REMARK    2  A    between atoms: C_2  and  C_3
REMARK    3  A    between atoms: C_3  and  N_4
REMARK    4  A    between atoms: C_10  and  C_11
REMARK    5  A    between atoms: C_11  and  C_13
REMARK                            x       y       z     vdW  Elec       q    Type
REMARK                         _______ _______ _______ _____ _____    ______ ____
ROOT
ATOM      1  N   UNL     1       6.374   6.304  17.149  0.00  0.00    +0.000 N 
ATOM      2  C   UNL     1       6.648   5.737  18.570  0.00  0.00    +0.000 C 
ATOM      3  C   UNL     1       5.783   4.486  18.771  0.00  0.00    +0.000 C 
ATOM      4  C   UNL     1       4.847   4.265  17.575  0.00  0.00    +0.000 C 
ATOM      5  C   UNL     1       5.723   4.038  16.336  0.00  0.00    +0.000 C 
ATOM      6  C   UNL     1       6.683   5.212  16.130  0.00  0.00    +0.000 C 
ATOM      7  C   UNL     1       3.995   5.521  17.313  0.00  0.00    +0.000 C 
ATOM      8  C   UNL     1       4.904   6.737  17.093  0.00  0.00    +0.000 C 
ENDROOT
BRANCH   7   9
ATOM      9  C   UNL     1       2.980   5.808  18.420  0.00  0.00    +0.000 C 
ATOM     10  O   UNL     1       2.803   6.975  18.789  0.00  0.00    +0.000 OA
BRANCH   9  11
ATOM     11  C   UNL     1       2.220   4.701  18.991  0.00  0.00    +0.000 A 
ATOM     12  C   UNL     1       1.413   3.815  18.299  0.00  0.00    +0.000 A 
ATOM     13  C   UNL     1       0.812   2.840  19.148  0.00  0.00    +0.000 A 
ATOM     14  C   UNL     1       1.152   3.031  20.467  0.00  0.00    +0.000 A 
ATOM     15  S   UNL     1       2.200   4.363  20.669  0.00  0.00    +0.000 S 
ENDBRANCH   9  11
ENDBRANCH   7   9
BRANCH   1  16
ATOM     16  C   UNL     1       7.319   7.528  16.972  0.00  0.00    +0.000 C 
BRANCH  16  18
ATOM     17  C   UNL     1       8.506   9.328  18.290  0.00  0.00    +0.000 C 
ATOM     18  C   UNL     1       8.110   7.861  18.238  0.00  0.00    +0.000 C 
ENDBRANCH  16  18
ENDBRANCH   1  16
TORSDOF 4
ENDMDL
MODEL 3
REMARK VINA RESULT:      -6.7      1.996      3.544
REMARK  Name = 
REMARK  5 active torsions:
REMARK  status: ('A' for Active; 'I' for Inactive)
REMARK    1  A    between atoms: C_1  and  C_2
REMARK    2  A    between atoms: C_2  and  C_3
REMARK    3  A    between atoms: C_3  and  N_4
REMARK    4  A    between atoms: C_10  and  C_11
REMARK    5  A    between atoms: C_11  and  C_13
REMARK                            x       y       z     vdW  Elec       q    Type
REMARK                         _______ _______ _______ _____ _____    ______ ____
ROOT
ATOM      1  N   UNL     1       6.796   6.252  17.779  0.00  0.00    +0.000 N 
ATOM      2  C   UNL     1       7.367   4.901  17.265  0.00  0.00    +0.000 C 
ATOM      3  C   UNL     1       6.233   4.114  16.598  0.00  0.00    +0.000 C 
ATOM      4  C   UNL     1       4.891   4.840  16.754  0.00  0.00    +0.000 C 
ATOM      5  C   UNL     1       5.009   6.193  16.041  0.00  0.00    +0.000 C 
ATOM      6  C   UNL     1       6.188   6.996  16.594  0.00  0.00    +0.000 C 
ATOM      7  C   UNL     1       4.599   5.128  18.239  0.00  0.00    +0.000 C 
ATOM      8  C   UNL     1       5.748   5.938  18.854  0.00  0.00    +0.000 C 
ENDROOT
BRANCH   7   9
ATOM      9  C   UNL     1       4.337   3.865  19.062  0.00  0.00    +0.000 C 
ATOM     10  O   UNL     1       5.284   3.307  19.629  0.00  0.00    +0.000 OA
BRANCH   9  11
ATOM     11  C   UNL     1       2.971   3.370  19.187  0.00  0.00    +0.000 A 
ATOM     12  C   UNL     1       2.077   3.667  20.201  0.00  0.00    +0.000 A 
ATOM     13  C   UNL     1       0.816   3.026  20.028  0.00  0.00    +0.000 A 
ATOM     14  C   UNL     1       0.795   2.233  18.905  0.00  0.00    +0.000 A 
ATOM     15  S   UNL     1       2.278   2.279  18.063  0.00  0.00    +0.000 S 
ENDBRANCH   9  11
ENDBRANCH   7   9
BRANCH   1  16
ATOM     16  C   UNL     1       7.994   7.037  18.387  0.00  0.00    +0.000 C 
BRANCH  16  18
ATOM     17  C   UNL     1       8.851   9.376  18.812  0.00  0.00    +0.000 C 
ATOM     18  C   UNL     1       8.110   8.464  17.848  0.00  0.00    +0.000 C 
ENDBRANCH  16  18
ENDBRANCH   1  16
TORSDOF 4
ENDMDL
MODEL 4
REMARK VINA RESULT:      -6.4      2.021      3.794
REMARK  Name = 
REMARK  5 active torsions:
REMARK  status: ('A' for Active; 'I' for Inactive)
REMARK    1  A    between atoms: C_1  and  C_2
REMARK    2  A    between atoms: C_2  and  C_3
REMARK    3  A    between atoms: C_3  and  N_4
REMARK    4  A    between atoms: C_10  and  C_11
REMARK    5  A    between atoms: C_11  and  C_13
REMARK                            x       y       z     vdW  Elec       q    Type
REMARK                         _______ _______ _______ _____ _____    ______ ____
ROOT
ATOM      1  N   UNL     1       3.739   6.109  18.039  0.00  0.00    +0.000 N 
ATOM      2  C   UNL     1       4.787   5.693  19.110  0.00  0.00    +0.000 C 
ATOM      3  C   UNL     1       5.634   4.548  18.542  0.00  0.00    +0.000 C 
ATOM      4  C   UNL     1       5.110   4.100  17.171  0.00  0.00    +0.000 C 
ATOM      5  C   UNL     1       5.230   5.294  16.215  0.00  0.00    +0.000 C 
ATOM      6  C   UNL     1       4.484   6.509  16.770  0.00  0.00    +0.000 C 
ATOM      7  C   UNL     1       3.617   3.727  17.256  0.00  0.00    +0.000 C 
ATOM      8  C   UNL     1       2.810   4.912  17.803  0.00  0.00    +0.000 C 
ENDROOT
BRANCH   7   9
ATOM      9  C   UNL     1       3.351   2.472  18.087  0.00  0.00    +0.000 C 
ATOM     10  O   UNL     1       3.724   1.374  17.658  0.00  0.00    +0.000 OA
BRANCH   9  11
ATOM     11  C   UNL     1       2.693   2.604  19.382  0.00  0.00    +0.000 A 
ATOM     12  C   UNL     1       3.312   2.640  20.620  0.00  0.00    +0.000 A 
ATOM     13  C   UNL     1       2.387   2.784  21.694  0.00  0.00    +0.000 A 
ATOM     14  C   UNL     1       1.086   2.822  21.247  0.00  0.00    +0.000 A 
ATOM     15  S   UNL     1       0.992   2.702  19.548  0.00  0.00    +0.000 S 
ENDBRANCH   9  11
ENDBRANCH   7   9
BRANCH   1  16
ATOM     16  C   UNL     1       2.951   7.311  18.636  0.00  0.00    +0.000 C 
BRANCH  16  18
ATOM     17  C   UNL     1       1.437   9.255  18.070  0.00  0.00    +0.000 C 
ATOM     18  C   UNL     1       2.560   8.352  17.584  0.00  0.00    +0.000 C 
ENDBRANCH  16  18
ENDBRANCH   1  16
TORSDOF 4
ENDMDL
MODEL 5
REMARK VINA RESULT:      -6.4      1.467      1.622
REMARK  Name = 
REMARK  5 active torsions:
REMARK  status: ('A' for Active; 'I' for Inactive)
REMARK    1  A    between atoms: C_1  and  C_2
REMARK    2  A    between atoms: C_2  and  C_3
REMARK    3  A    between atoms: C_3  and  N_4
REMARK    4  A    between atoms: C_10  and  C_11
REMARK    5  A    between atoms: C_11  and  C_13
REMARK                            x       y       z     vdW  Elec       q    Type
REMARK                         _______ _______ _______ _____ _____    ______ ____
ROOT
ATOM      1  N   UNL     1       6.055   4.483  16.462  0.00  0.00    +0.000 N 
ATOM      2  C   UNL     1       5.653   5.895  15.949  0.00  0.00    +0.000 C 
ATOM      3  C   UNL     1       5.703   6.874  17.128  0.00  0.00    +0.000 C 
ATOM      4  C   UNL     1       6.009   6.142  18.441  0.00  0.00    +0.000 C 
ATOM      5  C   UNL     1       7.395   5.498  18.303  0.00  0.00    +0.000 C 
ATOM      6  C   UNL     1       7.445   4.577  17.082  0.00  0.00    +0.000 C 
ATOM      7  C   UNL     1       4.996   5.005  18.677  0.00  0.00    +0.000 C 
ATOM      8  C   UNL     1       5.001   4.040  17.485  0.00  0.00    +0.000 C 
ENDROOT
BRANCH   7   9
ATOM      9  C   UNL     1       3.577   5.504  18.952  0.00  0.00    +0.000 C 
ATOM     10  O   UNL     1       3.295   6.684  18.713  0.00  0.00    +0.000 OA
BRANCH   9  11
ATOM     11  C   UNL     1       2.580   4.567  19.459  0.00  0.00    +0.000 A 
ATOM     12  C   UNL     1       2.377   4.218  20.782  0.00  0.00    +0.000 A 
ATOM     13  C   UNL     1       1.318   3.279  20.947  0.00  0.00    +0.000 A 
ATOM     14  C   UNL     1       0.765   2.914  19.742  0.00  0.00    +0.000 A 
ATOM     15  S   UNL     1       1.509   3.713  18.431  0.00  0.00    +0.000 S 
ENDBRANCH   9  11
ENDBRANCH   7   9
BRANCH   1  16
ATOM     16  C   UNL     1       6.051   3.544  15.221  0.00  0.00    +0.000 C 
BRANCH  16  18
ATOM     17  C   UNL     1       5.945   3.535  12.695  0.00  0.00    +0.000 C 
ATOM     18  C   UNL     1       6.460   4.257  13.930  0.00  0.00    +0.000 C 
ENDBRANCH  16  18
ENDBRANCH   1  16
TORSDOF 4
ENDMDL
MODEL 6
REMARK VINA RESULT:      -6.4      1.363      1.498
REMARK  Name = 
REMARK  5 active torsions:
REMARK  status: ('A' for Active; 'I' for Inactive)
REMARK    1  A    between atoms: C_1  and  C_2
REMARK    2  A    between atoms: C_2  and  C_3
REMARK    3  A    between atoms: C_3  and  N_4
REMARK    4  A    between atoms: C_10  and  C_11
REMARK    5  A    between atoms: C_11  and  C_13
REMARK                            x       y       z     vdW  Elec       q    Type
REMARK                         _______ _______ _______ _____ _____    ______ ____
ROOT
ATOM      1  N   UNL     1       5.988   4.467  16.342  0.00  0.00    +0.000 N 
ATOM      2  C   UNL     1       5.363   5.819  15.900  0.00  0.00    +0.000 C 
ATOM      3  C   UNL     1       5.437   6.799  17.077  0.00  0.00    +0.000 C 
ATOM      4  C   UNL     1       5.982   6.110  18.335  0.00  0.00    +0.000 C 
ATOM      5  C   UNL     1       7.408   5.637  18.025  0.00  0.00    +0.000 C 
ATOM      6  C   UNL     1       7.421   4.726  16.795  0.00  0.00    +0.000 C 
ATOM      7  C   UNL     1       5.147   4.861  18.675  0.00  0.00    +0.000 C 
ATOM      8  C   UNL     1       5.124   3.902  17.478  0.00  0.00    +0.000 C 
ENDROOT
BRANCH   7   9
ATOM      9  C   UNL     1       3.722   5.188  19.123  0.00  0.00    +0.000 C 
ATOM     10  O   UNL     1       3.430   6.356  19.403  0.00  0.00    +0.000 OA
BRANCH   9  11
ATOM     11  C   UNL     1       2.732   4.118  19.176  0.00  0.00    +0.000 A 
ATOM     12  C   UNL     1       1.631   3.973  18.349  0.00  0.00    +0.000 A 
ATOM     13  C   UNL     1       0.861   2.815  18.656  0.00  0.00    +0.000 A 
ATOM     14  C   UNL     1       1.377   2.126  19.729  0.00  0.00    +0.000 A 
ATOM     15  S   UNL     1       2.786   2.866  20.343  0.00  0.00    +0.000 S 
ENDBRANCH   9  11
ENDBRANCH   7   9
BRANCH   1  16
ATOM     16  C   UNL     1       5.946   3.532  15.099  0.00  0.00    +0.000 C 
BRANCH  16  18
ATOM     17  C   UNL     1       6.004   3.444  12.574  0.00  0.00    +0.000 C 
ATOM     18  C   UNL     1       6.405   4.225  13.814  0.00  0.00    +0.000 C 
ENDBRANCH  16  18
ENDBRANCH   1  16
TORSDOF 4
ENDMDL
MODEL 7
REMARK VINA RESULT:      -6.4      1.599      1.808
REMARK  Name = 
REMARK  5 active torsions:
REMARK  status: ('A' for Active; 'I' for Inactive)
REMARK    1  A    between atoms: C_1  and  C_2
REMARK    2  A    between atoms: C_2  and  C_3
REMARK    3  A    between atoms: C_3  and  N_4
REMARK    4  A    between atoms: C_10  and  C_11
REMARK    5  A    between atoms: C_11  and  C_13
REMARK                            x       y       z     vdW  Elec       q    Type
REMARK                         _______ _______ _______ _____ _____    ______ ____
ROOT
ATOM      1  N   UNL     1       5.660   4.713  15.790  0.00  0.00    +0.000 N 
ATOM      2  C   UNL     1       5.315   6.212  16.011  0.00  0.00    +0.000 C 
ATOM      3  C   UNL     1       5.794   6.622  17.408  0.00  0.00    +0.000 C 
ATOM      4  C   UNL     1       6.342   5.414  18.181  0.00  0.00    +0.000 C 
ATOM      5  C   UNL     1       7.552   4.877  17.406  0.00  0.00    +0.000 C 
ATOM      6  C   UNL     1       7.165   4.537  15.965  0.00  0.00    +0.000 C 
ATOM      7  C   UNL     1       5.294   4.286  18.237  0.00  0.00    +0.000 C 
ATOM      8  C   UNL     1       4.867   3.894  16.817  0.00  0.00    +0.000 C 
ENDROOT
BRANCH   7   9
ATOM      9  C   UNL     1       4.070   4.635  19.085  0.00  0.00    +0.000 C 
ATOM     10  O   UNL     1       4.064   5.691  19.729  0.00  0.00    +0.000 OA
BRANCH   9  11
ATOM     11  C   UNL     1       2.926   3.731  19.085  0.00  0.00    +0.000 A 
ATOM     12  C   UNL     1       2.815   2.545  19.791  0.00  0.00    +0.000 A 
ATOM     13  C   UNL     1       1.563   1.896  19.582  0.00  0.00    +0.000 A 
ATOM     14  C   UNL     1       0.769   2.589  18.699  0.00  0.00    +0.000 A 
ATOM     15  S   UNL     1       1.523   4.015  18.145  0.00  0.00    +0.000 S 
ENDBRANCH   9  11
ENDBRANCH   7   9
BRANCH   1  16
ATOM     16  C   UNL     1       5.213   4.364  14.341  0.00  0.00    +0.000 C 
BRANCH  16  18
ATOM     17  C   UNL     1       5.851   3.229  12.175  0.00  0.00    +0.000 C 
ATOM     18  C   UNL     1       6.358   3.838  13.472  0.00  0.00    +0.000 C 
ENDBRANCH  16  18
ENDBRANCH   1  16
TORSDOF 4
ENDMDL
MODEL 8
REMARK VINA RESULT:      -6.2      2.691      5.861
REMARK  Name = 
REMARK  5 active torsions:
REMARK  status: ('A' for Active; 'I' for Inactive)
REMARK    1  A    between atoms: C_1  and  C_2
REMARK    2  A    between atoms: C_2  and  C_3
REMARK    3  A    between atoms: C_3  and  N_4
REMARK    4  A    between atoms: C_10  and  C_11
REMARK    5  A    between atoms: C_11  and  C_13
REMARK                            x       y       z     vdW  Elec       q    Type
REMARK                         _______ _______ _______ _____ _____    ______ ____
ROOT
ATOM      1  N   UNL     1       2.528   4.520  19.581  0.00  0.00    +0.000 N 
ATOM      2  C   UNL     1       1.845   4.569  18.186  0.00  0.00    +0.000 C 
ATOM      3  C   UNL     1       2.459   3.474  17.304  0.00  0.00    +0.000 C 
ATOM      4  C   UNL     1       3.617   2.771  18.024  0.00  0.00    +0.000 C 
ATOM      5  C   UNL     1       3.046   2.099  19.279  0.00  0.00    +0.000 C 
ATOM      6  C   UNL     1       2.331   3.124  20.163  0.00  0.00    +0.000 C 
ATOM      7  C   UNL     1       4.669   3.796  18.489  0.00  0.00    +0.000 C 
ATOM      8  C   UNL     1       4.013   4.852  19.387  0.00  0.00    +0.000 C 
ENDROOT
BRANCH   7   9
ATOM      9  C   UNL     1       5.415   4.466  17.335  0.00  0.00    +0.000 C 
ATOM     10  O   UNL     1       5.207   4.084  16.178  0.00  0.00    +0.000 OA
BRANCH   9  11
ATOM     11  C   UNL     1       6.330   5.565  17.624  0.00  0.00    +0.000 A 
ATOM     12  C   UNL     1       6.373   6.790  16.981  0.00  0.00    +0.000 A 
ATOM     13  C   UNL     1       7.380   7.651  17.505  0.00  0.00    +0.000 A 
ATOM     14  C   UNL     1       8.097   7.047  18.512  0.00  0.00    +0.000 A 
ATOM     15  S   UNL     1       7.544   5.465  18.827  0.00  0.00    +0.000 S 
ENDBRANCH   9  11
ENDBRANCH   7   9
BRANCH   1  16
ATOM     16  C   UNL     1       1.829   5.602  20.454  0.00  0.00    +0.000 C 
BRANCH  16  18
ATOM     17  C   UNL     1       1.430   8.065  20.857  0.00  0.00    +0.000 C 
ATOM     18  C   UNL     1       2.145   7.030  20.003  0.00  0.00    +0.000 C 
ENDBRANCH  16  18
ENDBRANCH   1  16
TORSDOF 4
ENDMDL
MODEL 9
REMARK VINA RESULT:      -6.1      2.644      6.108
REMARK  Name = 
REMARK  5 active torsions:
REMARK  status: ('A' for Active; 'I' for Inactive)
REMARK    1  A    between atoms: C_1  and  C_2
REMARK    2  A    between atoms: C_2  and  C_3
REMARK    3  A    between atoms: C_3  and  N_4
REMARK    4  A    between atoms: C_10  and  C_11
REMARK    5  A    between atoms: C_11  and  C_13
REMARK                            x       y       z     vdW  Elec       q    Type
REMARK                         _______ _______ _______ _____ _____    ______ ____
ROOT
ATOM      1  N   UNL     1       4.020   4.772  18.277  0.00  0.00    +0.000 N 
ATOM      2  C   UNL     1       5.337   5.018  19.065  0.00  0.00    +0.000 C 
ATOM      3  C   UNL     1       6.120   6.137  18.368  0.00  0.00    +0.000 C 
ATOM      4  C   UNL     1       5.428   6.568  17.068  0.00  0.00    +0.000 C 
ATOM      5  C   UNL     1       4.045   7.120  17.438  0.00  0.00    +0.000 C 
ATOM      6  C   UNL     1       3.241   6.082  18.225  0.00  0.00    +0.000 C 
ATOM      7  C   UNL     1       5.207   5.356  16.144  0.00  0.00    +0.000 C 
ATOM      8  C   UNL     1       4.398   4.276  16.876  0.00  0.00    +0.000 C 
ENDROOT
BRANCH   7   9
ATOM      9  C   UNL     1       6.506   4.766  15.593  0.00  0.00    +0.000 C 
ATOM     10  O   UNL     1       7.456   4.576  16.362  0.00  0.00    +0.000 OA
BRANCH   9  11
ATOM     11  C   UNL     1       6.582   4.411  14.181  0.00  0.00    +0.000 A 
ATOM     12  C   UNL     1       5.741   3.545  13.504  0.00  0.00    +0.000 A 
ATOM     13  C   UNL     1       6.079   3.416  12.125  0.00  0.00    +0.000 A 
ATOM     14  C   UNL     1       7.187   4.162  11.798  0.00  0.00    +0.000 A 
ATOM     15  S   UNL     1       7.797   5.020  13.139  0.00  0.00    +0.000 S 
ENDBRANCH   9  11
ENDBRANCH   7   9
BRANCH   1  16
ATOM     16  C   UNL     1       3.235   3.677  19.057  0.00  0.00    +0.000 C 
BRANCH  16  18
ATOM     17  C   UNL     1       1.071   3.341  20.319  0.00  0.00    +0.000 C 
ATOM     18  C   UNL     1       1.725   3.923  19.076  0.00  0.00    +0.000 C 
ENDBRANCH  16  18
ENDBRANCH   1  16
TORSDOF 4
ENDMDL
