MODEL 1
REMARK VINA RESULT:      -9.4      0.000      0.000
REMARK  Name = 
REMARK  10 active torsions:
REMARK  status: ('A' for Active; 'I' for Inactive)
REMARK    1  A    between atoms: C_1  and  C_2
REMARK    2  A    between atoms: C_2  and  C_3
REMARK    3  A    between atoms: C_2  and  C_4
REMARK    4  A    between atoms: C_2  and  C_5
REMARK    5  A    between atoms: C_7  and  N_8
REMARK    6  A    between atoms: N_11  and  C_12
REMARK    7  A    between atoms: C_15  and  N_16
REMARK    8  A    between atoms: N_16  and  C_17
REMARK    9  A    between atoms: N_29  and  C_30
REMARK   10  A    between atoms: C_34  and  N_35
REMARK                            x       y       z     vdW  Elec       q    Type
REMARK                         _______ _______ _______ _____ _____    ______ ____
ROOT
ATOM      1  N   UNL     1       2.559   7.472  17.709  0.00  0.00    +0.000 N 
ATOM      2  C   UNL     1       1.876   8.464  18.532  0.00  0.00    +0.000 C 
ATOM      3  O   UNL     1       1.795   8.235  19.714  0.00  0.00    +0.000 OA
ATOM      4  N   UNL     1       1.398   9.580  17.875  0.00  0.00    +0.000 N 
ATOM      5  H   UNL     1       2.874   7.692  16.771  0.00  0.00    +0.000 HD
ATOM      6  H   UNL     1       1.452   9.632  16.860  0.00  0.00    +0.000 HD
ENDROOT
BRANCH   4   7
ATOM      7  C   UNL     1       0.756  10.696  18.559  0.00  0.00    +0.000 A 
ATOM      8  C   UNL     1      -0.595  10.709  18.925  0.00  0.00    +0.000 A 
ATOM      9  C   UNL     1      -1.190  11.768  19.651  0.00  0.00    +0.000 A 
ATOM     10  C   UNL     1      -0.455  12.872  20.046  0.00  0.00    +0.000 A 
ATOM     11  C   UNL     1       0.886  12.909  19.592  0.00  0.00    +0.000 A 
ATOM     12  C   UNL     1       1.493  11.840  18.876  0.00  0.00    +0.000 A 
BRANCH  10  13
ATOM     13  N   UNL     1      -1.004  13.997  20.721  0.00  0.00    +0.000 N 
ATOM     14  H   UNL     1      -0.263  14.425  21.288  0.00  0.00    +0.000 HD
BRANCH  13  15
ATOM     15  C   UNL     1      -2.088  14.154  21.630  0.00  0.00    +0.000 A 
ATOM     16  N   UNL     1      -1.680  13.745  22.836  0.00  0.00    +0.000 NA
ATOM     17  C   UNL     1      -2.402  12.744  23.336  0.00  0.00    +0.000 A 
ATOM     18  N   UNL     1      -3.464  12.195  22.750  0.00  0.00    +0.000 NA
ATOM     19  C   UNL     1      -4.042  12.939  21.813  0.00  0.00    +0.000 A 
ATOM     20  C   UNL     1      -5.335  12.629  21.430  0.00  0.00    +0.000 A 
ATOM     21  C   UNL     1      -6.187  13.604  20.913  0.00  0.00    +0.000 A 
ATOM     22  C   UNL     1      -5.705  14.900  20.764  0.00  0.00    +0.000 A 
ATOM     23  C   UNL     1      -4.332  15.147  20.918  0.00  0.00    +0.000 A 
ATOM     24  C   UNL     1      -3.450  14.101  21.326  0.00  0.00    +0.000 A 
ENDBRANCH  13  15
ENDBRANCH  10  13
ENDBRANCH   4   7
BRANCH   1  27
ATOM     25  C   UNL     1       2.503   4.043  18.927  0.00  0.00    +0.000 A 
ATOM     26  C   UNL     1       1.859   5.260  18.608  0.00  0.00    +0.000 A 
ATOM     27  C   UNL     1       2.828   6.167  18.223  0.00  0.00    +0.000 A 
ATOM     28  N   UNL     1       4.038   5.455  18.377  0.00  0.00    +0.000 N 
ATOM     29  N   UNL     1       3.811   4.141  18.686  0.00  0.00    +0.000 NA
BRANCH  28  30
ATOM     30  C   UNL     1       5.391   5.901  18.326  0.00  0.00    +0.000 A 
ATOM     31  C   UNL     1       5.832   6.797  17.352  0.00  0.00    +0.000 A 
ATOM     32  C   UNL     1       7.168   7.216  17.361  0.00  0.00    +0.000 A 
ATOM     33  C   UNL     1       8.064   6.734  18.323  0.00  0.00    +0.000 A 
ATOM     34  C   UNL     1       7.624   5.893  19.346  0.00  0.00    +0.000 A 
ATOM     35  C   UNL     1       6.290   5.472  19.329  0.00  0.00    +0.000 A 
BRANCH  34  36
ATOM     36  N   UNL     1       8.549   5.293  20.211  0.00  0.00    +0.000 N 
ATOM     37  H   UNL     1       9.094   4.544  19.796  0.00  0.00    +0.000 HD
ATOM     38  H   UNL     1       9.127   5.952  20.724  0.00  0.00    +0.000 HD
ENDBRANCH  34  36
ENDBRANCH  28  30
BRANCH  25  40
ATOM     39  C   UNL     1       1.520   2.856  20.894  0.00  0.00    +0.000 C 
ATOM     40  C   UNL     1       1.834   2.749  19.388  0.00  0.00    +0.000 C 
ATOM     41  C   UNL     1       2.779   1.546  19.161  0.00  0.00    +0.000 C 
ATOM     42  C   UNL     1       0.519   2.437  18.646  0.00  0.00    +0.000 C 
ENDBRANCH  25  40
ENDBRANCH   1  27
TORSDOF 7
ENDMDL
MODEL 2
REMARK VINA RESULT:      -9.4      0.972      1.278
REMARK  Name = 
REMARK  10 active torsions:
REMARK  status: ('A' for Active; 'I' for Inactive)
REMARK    1  A    between atoms: C_1  and  C_2
REMARK    2  A    between atoms: C_2  and  C_3
REMARK    3  A    between atoms: C_2  and  C_4
REMARK    4  A    between atoms: C_2  and  C_5
REMARK    5  A    between atoms: C_7  and  N_8
REMARK    6  A    between atoms: N_11  and  C_12
REMARK    7  A    between atoms: C_15  and  N_16
REMARK    8  A    between atoms: N_16  and  C_17
REMARK    9  A    between atoms: N_29  and  C_30
REMARK   10  A    between atoms: C_34  and  N_35
REMARK                            x       y       z     vdW  Elec       q    Type
REMARK                         _______ _______ _______ _____ _____    ______ ____
ROOT
ATOM      1  N   UNL     1       2.610   7.451  17.823  0.00  0.00    +0.000 N 
ATOM      2  C   UNL     1       1.835   8.371  18.650  0.00  0.00    +0.000 C 
ATOM      3  O   UNL     1       1.689   8.076  19.810  0.00  0.00    +0.000 OA
ATOM      4  N   UNL     1       1.353   9.501  18.020  0.00  0.00    +0.000 N 
ATOM      5  H   UNL     1       2.974   7.734  16.921  0.00  0.00    +0.000 HD
ATOM      6  H   UNL     1       1.469   9.610  17.015  0.00  0.00    +0.000 HD
ENDROOT
BRANCH   4   7
ATOM      7  C   UNL     1       0.624  10.554  18.717  0.00  0.00    +0.000 A 
ATOM      8  C   UNL     1      -0.772  10.592  18.821  0.00  0.00    +0.000 A 
ATOM      9  C   UNL     1      -1.466  11.579  19.560  0.00  0.00    +0.000 A 
ATOM     10  C   UNL     1      -0.790  12.584  20.231  0.00  0.00    +0.000 A 
ATOM     11  C   UNL     1       0.614  12.607  20.045  0.00  0.00    +0.000 A 
ATOM     12  C   UNL     1       1.317  11.608  19.317  0.00  0.00    +0.000 A 
BRANCH  10  13
ATOM     13  N   UNL     1      -1.427  13.642  20.937  0.00  0.00    +0.000 N 
ATOM     14  H   UNL     1      -0.795  14.451  20.942  0.00  0.00    +0.000 HD
BRANCH  13  15
ATOM     15  C   UNL     1      -1.939  13.760  22.260  0.00  0.00    +0.000 A 
ATOM     16  N   UNL     1      -1.542  12.687  22.955  0.00  0.00    +0.000 NA
ATOM     17  C   UNL     1      -2.546  11.965  23.447  0.00  0.00    +0.000 A 
ATOM     18  N   UNL     1      -3.840  12.262  23.324  0.00  0.00    +0.000 NA
ATOM     19  C   UNL     1      -4.103  13.530  23.027  0.00  0.00    +0.000 A 
ATOM     20  C   UNL     1      -5.384  14.005  23.248  0.00  0.00    +0.000 A 
ATOM     21  C   UNL     1      -5.618  15.357  23.496  0.00  0.00    +0.000 A 
ATOM     22  C   UNL     1      -4.537  16.232  23.492  0.00  0.00    +0.000 A 
ATOM     23  C   UNL     1      -3.291  15.788  23.024  0.00  0.00    +0.000 A 
ATOM     24  C   UNL     1      -3.104  14.423  22.652  0.00  0.00    +0.000 A 
ENDBRANCH  13  15
ENDBRANCH  10  13
ENDBRANCH   4   7
BRANCH   1  27
ATOM     25  C   UNL     1       2.609   3.979  18.912  0.00  0.00    +0.000 A 
ATOM     26  C   UNL     1       1.946   5.197  18.642  0.00  0.00    +0.000 A 
ATOM     27  C   UNL     1       2.900   6.132  18.287  0.00  0.00    +0.000 A 
ATOM     28  N   UNL     1       4.120   5.432  18.408  0.00  0.00    +0.000 N 
ATOM     29  N   UNL     1       3.914   4.104  18.668  0.00  0.00    +0.000 NA
BRANCH  28  30
ATOM     30  C   UNL     1       5.467   5.899  18.367  0.00  0.00    +0.000 A 
ATOM     31  C   UNL     1       5.890   6.839  17.427  0.00  0.00    +0.000 A 
ATOM     32  C   UNL     1       7.220   7.276  17.445  0.00  0.00    +0.000 A 
ATOM     33  C   UNL     1       8.128   6.770  18.383  0.00  0.00    +0.000 A 
ATOM     34  C   UNL     1       7.706   5.884  19.375  0.00  0.00    +0.000 A 
ATOM     35  C   UNL     1       6.377   5.445  19.348  0.00  0.00    +0.000 A 
BRANCH  34  36
ATOM     36  N   UNL     1       8.644   5.263  20.211  0.00  0.00    +0.000 N 
ATOM     37  H   UNL     1       9.492   5.798  20.367  0.00  0.00    +0.000 HD
ATOM     38  H   UNL     1       8.254   4.898  21.074  0.00  0.00    +0.000 HD
ENDBRANCH  34  36
ENDBRANCH  28  30
BRANCH  25  40
ATOM     39  C   UNL     1       2.851   1.493  18.856  0.00  0.00    +0.000 C 
ATOM     40  C   UNL     1       1.960   2.659  19.327  0.00  0.00    +0.000 C 
ATOM     41  C   UNL     1       0.566   2.518  18.672  0.00  0.00    +0.000 C 
ATOM     42  C   UNL     1       1.760   2.524  20.850  0.00  0.00    +0.000 C 
ENDBRANCH  25  40
ENDBRANCH   1  27
TORSDOF 7
ENDMDL
MODEL 3
REMARK VINA RESULT:      -9.3      2.401     11.291
REMARK  Name = 
REMARK  10 active torsions:
REMARK  status: ('A' for Active; 'I' for Inactive)
REMARK    1  A    between atoms: C_1  and  C_2
REMARK    2  A    between atoms: C_2  and  C_3
REMARK    3  A    between atoms: C_2  and  C_4
REMARK    4  A    between atoms: C_2  and  C_5
REMARK    5  A    between atoms: C_7  and  N_8
REMARK    6  A    between atoms: N_11  and  C_12
REMARK    7  A    between atoms: C_15  and  N_16
REMARK    8  A    between atoms: N_16  and  C_17
REMARK    9  A    between atoms: N_29  and  C_30
REMARK   10  A    between atoms: C_34  and  N_35
REMARK                            x       y       z     vdW  Elec       q    Type
REMARK                         _______ _______ _______ _____ _____    ______ ____
ROOT
ATOM      1  N   UNL     1      -0.510  11.953  20.077  0.00  0.00    +0.000 N 
ATOM      2  C   UNL     1      -0.123  10.554  19.931  0.00  0.00    +0.000 C 
ATOM      3  O   UNL     1      -0.970   9.723  20.154  0.00  0.00    +0.000 OA
ATOM      4  N   UNL     1       1.179  10.317  19.539  0.00  0.00    +0.000 N 
ATOM      5  H   UNL     1       0.055  12.699  19.689  0.00  0.00    +0.000 HD
ATOM      6  H   UNL     1       1.833  11.093  19.457  0.00  0.00    +0.000 HD
ENDROOT
BRANCH   4   7
ATOM      7  C   UNL     1       1.705   8.982  19.279  0.00  0.00    +0.000 A 
ATOM      8  C   UNL     1       2.217   8.579  18.040  0.00  0.00    +0.000 A 
ATOM      9  C   UNL     1       2.790   7.304  17.817  0.00  0.00    +0.000 A 
ATOM     10  C   UNL     1       2.875   6.366  18.832  0.00  0.00    +0.000 A 
ATOM     11  C   UNL     1       2.269   6.734  20.058  0.00  0.00    +0.000 A 
ATOM     12  C   UNL     1       1.707   8.019  20.291  0.00  0.00    +0.000 A 
BRANCH  10  13
ATOM     13  N   UNL     1       3.380   5.048  18.661  0.00  0.00    +0.000 N 
ATOM     14  H   UNL     1       3.206   4.522  19.526  0.00  0.00    +0.000 HD
BRANCH  13  15
ATOM     15  C   UNL     1       4.670   4.531  18.351  0.00  0.00    +0.000 A 
ATOM     16  N   UNL     1       5.415   4.584  19.461  0.00  0.00    +0.000 NA
ATOM     17  C   UNL     1       6.516   5.320  19.333  0.00  0.00    +0.000 A 
ATOM     18  N   UNL     1       6.907   5.933  18.216  0.00  0.00    +0.000 NA
ATOM     19  C   UNL     1       6.366   5.465  17.096  0.00  0.00    +0.000 A 
ATOM     20  C   UNL     1       6.978   5.770  15.893  0.00  0.00    +0.000 A 
ATOM     21  C   UNL     1       6.847   4.932  14.786  0.00  0.00    +0.000 A 
ATOM     22  C   UNL     1       6.065   3.788  14.904  0.00  0.00    +0.000 A 
ATOM     23  C   UNL     1       5.255   3.621  16.037  0.00  0.00    +0.000 A 
ATOM     24  C   UNL     1       5.308   4.561  17.109  0.00  0.00    +0.000 A 
ENDBRANCH  13  15
ENDBRANCH  10  13
ENDBRANCH   4   7
BRANCH   1  27
ATOM     25  C   UNL     1      -3.130  13.087  22.334  0.00  0.00    +0.000 A 
ATOM     26  C   UNL     1      -1.798  12.694  22.074  0.00  0.00    +0.000 A 
ATOM     27  C   UNL     1      -1.721  12.302  20.751  0.00  0.00    +0.000 A 
ATOM     28  N   UNL     1      -3.045  12.433  20.281  0.00  0.00    +0.000 N 
ATOM     29  N   UNL     1      -3.853  13.022  21.216  0.00  0.00    +0.000 NA
BRANCH  28  30
ATOM     30  C   UNL     1      -3.646  12.003  19.062  0.00  0.00    +0.000 A 
ATOM     31  C   UNL     1      -5.024  11.826  18.946  0.00  0.00    +0.000 A 
ATOM     32  C   UNL     1      -5.563  11.419  17.718  0.00  0.00    +0.000 A 
ATOM     33  C   UNL     1      -4.732  11.174  16.618  0.00  0.00    +0.000 A 
ATOM     34  C   UNL     1      -3.360  11.414  16.695  0.00  0.00    +0.000 A 
ATOM     35  C   UNL     1      -2.826  11.814  17.925  0.00  0.00    +0.000 A 
BRANCH  34  36
ATOM     36  N   UNL     1      -2.516  11.024  15.646  0.00  0.00    +0.000 N 
ATOM     37  H   UNL     1      -2.643  11.543  14.784  0.00  0.00    +0.000 HD
ATOM     38  H   UNL     1      -1.539  10.942  15.908  0.00  0.00    +0.000 HD
ENDBRANCH  34  36
ENDBRANCH  28  30
BRANCH  25  40
ATOM     39  C   UNL     1      -4.180  12.417  24.501  0.00  0.00    +0.000 C 
ATOM     40  C   UNL     1      -3.685  13.609  23.658  0.00  0.00    +0.000 C 
ATOM     41  C   UNL     1      -4.873  14.565  23.402  0.00  0.00    +0.000 C 
ATOM     42  C   UNL     1      -2.651  14.389  24.495  0.00  0.00    +0.000 C 
ENDBRANCH  25  40
ENDBRANCH   1  27
TORSDOF 7
ENDMDL
MODEL 4
REMARK VINA RESULT:      -9.2      1.263      1.903
REMARK  Name = 
REMARK  10 active torsions:
REMARK  status: ('A' for Active; 'I' for Inactive)
REMARK    1  A    between atoms: C_1  and  C_2
REMARK    2  A    between atoms: C_2  and  C_3
REMARK    3  A    between atoms: C_2  and  C_4
REMARK    4  A    between atoms: C_2  and  C_5
REMARK    5  A    between atoms: C_7  and  N_8
REMARK    6  A    between atoms: N_11  and  C_12
REMARK    7  A    between atoms: C_15  and  N_16
REMARK    8  A    between atoms: N_16  and  C_17
REMARK    9  A    between atoms: N_29  and  C_30
REMARK   10  A    between atoms: C_34  and  N_35
REMARK                            x       y       z     vdW  Elec       q    Type
REMARK                         _______ _______ _______ _____ _____    ______ ____
ROOT
ATOM      1  N   UNL     1       2.595   7.400  17.615  0.00  0.00    +0.000 N 
ATOM      2  C   UNL     1       1.957   8.418  18.444  0.00  0.00    +0.000 C 
ATOM      3  O   UNL     1       1.924   8.215  19.633  0.00  0.00    +0.000 OA
ATOM      4  N   UNL     1       1.463   9.524  17.783  0.00  0.00    +0.000 N 
ATOM      5  H   UNL     1       2.871   7.597  16.660  0.00  0.00    +0.000 HD
ATOM      6  H   UNL     1       1.474   9.553  16.766  0.00  0.00    +0.000 HD
ENDROOT
BRANCH   4   7
ATOM      7  C   UNL     1       0.862  10.662  18.469  0.00  0.00    +0.000 A 
ATOM      8  C   UNL     1      -0.471  10.696  18.893  0.00  0.00    +0.000 A 
ATOM      9  C   UNL     1      -1.024  11.777  19.620  0.00  0.00    +0.000 A 
ATOM     10  C   UNL     1      -0.263  12.884  19.956  0.00  0.00    +0.000 A 
ATOM     11  C   UNL     1       1.057  12.897  19.442  0.00  0.00    +0.000 A 
ATOM     12  C   UNL     1       1.622  11.806  18.725  0.00  0.00    +0.000 A 
BRANCH  10  13
ATOM     13  N   UNL     1      -0.771  14.029  20.628  0.00  0.00    +0.000 N 
ATOM     14  H   UNL     1      -0.239  14.155  21.496  0.00  0.00    +0.000 HD
BRANCH  13  15
ATOM     15  C   UNL     1      -2.063  14.380  21.114  0.00  0.00    +0.000 A 
ATOM     16  N   UNL     1      -2.345  15.616  20.684  0.00  0.00    +0.000 NA
ATOM     17  C   UNL     1      -2.576  16.485  21.665  0.00  0.00    +0.000 A 
ATOM     18  N   UNL     1      -2.578  16.195  22.966  0.00  0.00    +0.000 NA
ATOM     19  C   UNL     1      -2.734  14.909  23.258  0.00  0.00    +0.000 A 
ATOM     20  C   UNL     1      -3.121  14.568  24.542  0.00  0.00    +0.000 A 
ATOM     21  C   UNL     1      -3.818  13.387  24.795  0.00  0.00    +0.000 A 
ATOM     22  C   UNL     1      -4.097  12.537  23.730  0.00  0.00    +0.000 A 
ATOM     23  C   UNL     1      -3.489  12.765  22.487  0.00  0.00    +0.000 A 
ATOM     24  C   UNL     1      -2.672  13.918  22.282  0.00  0.00    +0.000 A 
ENDBRANCH  13  15
ENDBRANCH  10  13
ENDBRANCH   4   7
BRANCH   1  27
ATOM     25  C   UNL     1       2.564   3.981  18.859  0.00  0.00    +0.000 A 
ATOM     26  C   UNL     1       1.908   5.184  18.515  0.00  0.00    +0.000 A 
ATOM     27  C   UNL     1       2.872   6.104  18.146  0.00  0.00    +0.000 A 
ATOM     28  N   UNL     1       4.089   5.413  18.335  0.00  0.00    +0.000 N 
ATOM     29  N   UNL     1       3.875   4.098  18.649  0.00  0.00    +0.000 NA
BRANCH  28  30
ATOM     30  C   UNL     1       5.435   5.881  18.314  0.00  0.00    +0.000 A 
ATOM     31  C   UNL     1       5.878   6.801  17.363  0.00  0.00    +0.000 A 
ATOM     32  C   UNL     1       7.207   7.240  17.401  0.00  0.00    +0.000 A 
ATOM     33  C   UNL     1       8.095   6.755  18.368  0.00  0.00    +0.000 A 
ATOM     34  C   UNL     1       7.652   5.890  19.369  0.00  0.00    +0.000 A 
ATOM     35  C   UNL     1       6.325   5.448  19.324  0.00  0.00    +0.000 A 
BRANCH  34  36
ATOM     36  N   UNL     1       8.573   5.288  20.239  0.00  0.00    +0.000 N 
ATOM     37  H   UNL     1       8.505   4.278  20.295  0.00  0.00    +0.000 HD
ATOM     38  H   UNL     1       9.529   5.605  20.115  0.00  0.00    +0.000 HD
ENDBRANCH  34  36
ENDBRANCH  28  30
BRANCH  25  40
ATOM     39  C   UNL     1       0.498   2.586  18.692  0.00  0.00    +0.000 C 
ATOM     40  C   UNL     1       1.905   2.680  19.315  0.00  0.00    +0.000 C 
ATOM     41  C   UNL     1       1.771   2.658  20.855  0.00  0.00    +0.000 C 
ATOM     42  C   UNL     1       2.691   1.416  18.912  0.00  0.00    +0.000 C 
ENDBRANCH  25  40
ENDBRANCH   1  27
TORSDOF 7
ENDMDL
MODEL 5
REMARK VINA RESULT:      -9.2      2.315     11.531
REMARK  Name = 
REMARK  10 active torsions:
REMARK  status: ('A' for Active; 'I' for Inactive)
REMARK    1  A    between atoms: C_1  and  C_2
REMARK    2  A    between atoms: C_2  and  C_3
REMARK    3  A    between atoms: C_2  and  C_4
REMARK    4  A    between atoms: C_2  and  C_5
REMARK    5  A    between atoms: C_7  and  N_8
REMARK    6  A    between atoms: N_11  and  C_12
REMARK    7  A    between atoms: C_15  and  N_16
REMARK    8  A    between atoms: N_16  and  C_17
REMARK    9  A    between atoms: N_29  and  C_30
REMARK   10  A    between atoms: C_34  and  N_35
REMARK                            x       y       z     vdW  Elec       q    Type
REMARK                         _______ _______ _______ _____ _____    ______ ____
ROOT
ATOM      1  N   UNL     1      -0.386  12.005  18.353  0.00  0.00    +0.000 N 
ATOM      2  C   UNL     1       0.597  11.016  18.780  0.00  0.00    +0.000 C 
ATOM      3  O   UNL     1       1.225  11.261  19.781  0.00  0.00    +0.000 OA
ATOM      4  N   UNL     1       0.705   9.884  17.997  0.00  0.00    +0.000 N 
ATOM      5  H   UNL     1      -1.105  11.776  17.677  0.00  0.00    +0.000 HD
ATOM      6  H   UNL     1       0.181   9.818  17.127  0.00  0.00    +0.000 HD
ENDROOT
BRANCH   4   7
ATOM      7  C   UNL     1       1.586   8.768  18.322  0.00  0.00    +0.000 A 
ATOM      8  C   UNL     1       2.594   8.302  17.470  0.00  0.00    +0.000 A 
ATOM      9  C   UNL     1       3.489   7.265  17.825  0.00  0.00    +0.000 A 
ATOM     10  C   UNL     1       3.414   6.640  19.059  0.00  0.00    +0.000 A 
ATOM     11  C   UNL     1       2.335   7.040  19.883  0.00  0.00    +0.000 A 
ATOM     12  C   UNL     1       1.443   8.093  19.537  0.00  0.00    +0.000 A 
BRANCH  10  13
ATOM     13  N   UNL     1       4.239   5.552  19.454  0.00  0.00    +0.000 N 
ATOM     14  H   UNL     1       4.637   5.768  20.375  0.00  0.00    +0.000 HD
BRANCH  13  15
ATOM     15  C   UNL     1       5.378   4.929  18.868  0.00  0.00    +0.000 A 
ATOM     16  N   UNL     1       6.401   5.049  19.723  0.00  0.00    +0.000 NA
ATOM     17  C   UNL     1       7.447   5.701  19.221  0.00  0.00    +0.000 A 
ATOM     18  N   UNL     1       7.534   6.174  17.978  0.00  0.00    +0.000 NA
ATOM     19  C   UNL     1       6.694   5.630  17.105  0.00  0.00    +0.000 A 
ATOM     20  C   UNL     1       6.960   5.775  15.755  0.00  0.00    +0.000 A 
ATOM     21  C   UNL     1       6.505   4.840  14.826  0.00  0.00    +0.000 A 
ATOM     22  C   UNL     1       5.751   3.763  15.278  0.00  0.00    +0.000 A 
ATOM     23  C   UNL     1       5.278   3.759  16.599  0.00  0.00    +0.000 A 
ATOM     24  C   UNL     1       5.652   4.797  17.505  0.00  0.00    +0.000 A 
ENDBRANCH  13  15
ENDBRANCH  10  13
ENDBRANCH   4   7
BRANCH   1  27
ATOM     25  C   UNL     1      -0.092  15.557  19.089  0.00  0.00    +0.000 A 
ATOM     26  C   UNL     1       0.227  14.417  18.318  0.00  0.00    +0.000 A 
ATOM     27  C   UNL     1      -0.375  13.322  18.908  0.00  0.00    +0.000 A 
ATOM     28  N   UNL     1      -1.000  13.856  20.056  0.00  0.00    +0.000 N 
ATOM     29  N   UNL     1      -0.919  15.223  20.080  0.00  0.00    +0.000 NA
BRANCH  28  30
ATOM     30  C   UNL     1      -1.612  13.207  21.167  0.00  0.00    +0.000 A 
ATOM     31  C   UNL     1      -0.856  12.583  22.160  0.00  0.00    +0.000 A 
ATOM     32  C   UNL     1      -1.509  11.977  23.240  0.00  0.00    +0.000 A 
ATOM     33  C   UNL     1      -2.907  11.979  23.325  0.00  0.00    +0.000 A 
ATOM     34  C   UNL     1      -3.676  12.659  22.380  0.00  0.00    +0.000 A 
ATOM     35  C   UNL     1      -3.019  13.257  21.299  0.00  0.00    +0.000 A 
BRANCH  34  36
ATOM     36  N   UNL     1      -5.071  12.529  22.381  0.00  0.00    +0.000 N 
ATOM     37  H   UNL     1      -5.484  12.402  23.299  0.00  0.00    +0.000 HD
ATOM     38  H   UNL     1      -5.555  13.234  21.834  0.00  0.00    +0.000 HD
ENDBRANCH  34  36
ENDBRANCH  28  30
BRANCH  25  40
ATOM     39  C   UNL     1       0.042  17.857  20.056  0.00  0.00    +0.000 C 
ATOM     40  C   UNL     1       0.340  16.996  18.813  0.00  0.00    +0.000 C 
ATOM     41  C   UNL     1      -0.445  17.570  17.610  0.00  0.00    +0.000 C 
ATOM     42  C   UNL     1       1.839  17.137  18.482  0.00  0.00    +0.000 C 
ENDBRANCH  25  40
ENDBRANCH   1  27
TORSDOF 7
ENDMDL
MODEL 6
REMARK VINA RESULT:      -9.2      2.222     11.159
REMARK  Name = 
REMARK  10 active torsions:
REMARK  status: ('A' for Active; 'I' for Inactive)
REMARK    1  A    between atoms: C_1  and  C_2
REMARK    2  A    between atoms: C_2  and  C_3
REMARK    3  A    between atoms: C_2  and  C_4
REMARK    4  A    between atoms: C_2  and  C_5
REMARK    5  A    between atoms: C_7  and  N_8
REMARK    6  A    between atoms: N_11  and  C_12
REMARK    7  A    between atoms: C_15  and  N_16
REMARK    8  A    between atoms: N_16  and  C_17
REMARK    9  A    between atoms: N_29  and  C_30
REMARK   10  A    between atoms: C_34  and  N_35
REMARK                            x       y       z     vdW  Elec       q    Type
REMARK                         _______ _______ _______ _____ _____    ______ ____
ROOT
ATOM      1  N   UNL     1      -0.778  12.278  20.319  0.00  0.00    +0.000 N 
ATOM      2  C   UNL     1      -0.362  10.917  19.995  0.00  0.00    +0.000 C 
ATOM      3  O   UNL     1      -1.207  10.057  20.049  0.00  0.00    +0.000 OA
ATOM      4  N   UNL     1       0.962  10.748  19.646  0.00  0.00    +0.000 N 
ATOM      5  H   UNL     1      -0.204  13.076  20.074  0.00  0.00    +0.000 HD
ATOM      6  H   UNL     1       1.608  11.533  19.712  0.00  0.00    +0.000 HD
ENDROOT
BRANCH   4   7
ATOM      7  C   UNL     1       1.521   9.469  19.226  0.00  0.00    +0.000 A 
ATOM      8  C   UNL     1       1.704   8.381  20.088  0.00  0.00    +0.000 A 
ATOM      9  C   UNL     1       2.181   7.122  19.654  0.00  0.00    +0.000 A 
ATOM     10  C   UNL     1       2.503   6.892  18.327  0.00  0.00    +0.000 A 
ATOM     11  C   UNL     1       2.414   8.017  17.472  0.00  0.00    +0.000 A 
ATOM     12  C   UNL     1       1.920   9.280  17.900  0.00  0.00    +0.000 A 
BRANCH  10  13
ATOM     13  N   UNL     1       3.046   5.672  17.837  0.00  0.00    +0.000 N 
ATOM     14  H   UNL     1       2.839   4.932  18.517  0.00  0.00    +0.000 HD
BRANCH  13  15
ATOM     15  C   UNL     1       4.362   5.269  17.473  0.00  0.00    +0.000 A 
ATOM     16  N   UNL     1       4.378   3.933  17.396  0.00  0.00    +0.000 NA
ATOM     17  C   UNL     1       5.251   3.358  18.220  0.00  0.00    +0.000 A 
ATOM     18  N   UNL     1       6.081   4.007  19.036  0.00  0.00    +0.000 NA
ATOM     19  C   UNL     1       6.302   5.279  18.723  0.00  0.00    +0.000 A 
ATOM     20  C   UNL     1       7.409   5.908  19.266  0.00  0.00    +0.000 A 
ATOM     21  C   UNL     1       8.020   6.980  18.616  0.00  0.00    +0.000 A 
ATOM     22  C   UNL     1       7.480   7.427  17.415  0.00  0.00    +0.000 A 
ATOM     23  C   UNL     1       6.225   6.953  17.004  0.00  0.00    +0.000 A 
ATOM     24  C   UNL     1       5.552   5.942  17.755  0.00  0.00    +0.000 A 
ENDBRANCH  13  15
ENDBRANCH  10  13
ENDBRANCH   4   7
BRANCH   1  27
ATOM     25  C   UNL     1      -3.532  13.151  22.532  0.00  0.00    +0.000 A 
ATOM     26  C   UNL     1      -2.168  12.866  22.298  0.00  0.00    +0.000 A 
ATOM     27  C   UNL     1      -2.028  12.517  20.968  0.00  0.00    +0.000 A 
ATOM     28  N   UNL     1      -3.346  12.564  20.464  0.00  0.00    +0.000 N 
ATOM     29  N   UNL     1      -4.219  13.065  21.392  0.00  0.00    +0.000 NA
BRANCH  28  30
ATOM     30  C   UNL     1      -3.881  12.125  19.219  0.00  0.00    +0.000 A 
ATOM     31  C   UNL     1      -5.250  11.931  19.036  0.00  0.00    +0.000 A 
ATOM     32  C   UNL     1      -5.723  11.517  17.784  0.00  0.00    +0.000 A 
ATOM     33  C   UNL     1      -4.837  11.281  16.726  0.00  0.00    +0.000 A 
ATOM     34  C   UNL     1      -3.474  11.538  16.869  0.00  0.00    +0.000 A 
ATOM     35  C   UNL     1      -3.005  11.945  18.124  0.00  0.00    +0.000 A 
BRANCH  34  36
ATOM     36  N   UNL     1      -2.575  11.156  15.864  0.00  0.00    +0.000 N 
ATOM     37  H   UNL     1      -2.968  11.138  14.928  0.00  0.00    +0.000 HD
ATOM     38  H   UNL     1      -1.683  11.639  15.898  0.00  0.00    +0.000 HD
ENDBRANCH  34  36
ENDBRANCH  28  30
BRANCH  25  40
ATOM     39  C   UNL     1      -5.378  14.488  23.555  0.00  0.00    +0.000 C 
ATOM     40  C   UNL     1      -4.158  13.594  23.853  0.00  0.00    +0.000 C 
ATOM     41  C   UNL     1      -3.138  14.406  24.684  0.00  0.00    +0.000 C 
ATOM     42  C   UNL     1      -4.629  12.421  24.736  0.00  0.00    +0.000 C 
ENDBRANCH  25  40
ENDBRANCH   1  27
TORSDOF 7
ENDMDL
MODEL 7
REMARK VINA RESULT:      -9.1      0.807      1.316
REMARK  Name = 
REMARK  10 active torsions:
REMARK  status: ('A' for Active; 'I' for Inactive)
REMARK    1  A    between atoms: C_1  and  C_2
REMARK    2  A    between atoms: C_2  and  C_3
REMARK    3  A    between atoms: C_2  and  C_4
REMARK    4  A    between atoms: C_2  and  C_5
REMARK    5  A    between atoms: C_7  and  N_8
REMARK    6  A    between atoms: N_11  and  C_12
REMARK    7  A    between atoms: C_15  and  N_16
REMARK    8  A    between atoms: N_16  and  C_17
REMARK    9  A    between atoms: N_29  and  C_30
REMARK   10  A    between atoms: C_34  and  N_35
REMARK                            x       y       z     vdW  Elec       q    Type
REMARK                         _______ _______ _______ _____ _____    ______ ____
ROOT
ATOM      1  N   UNL     1       2.387   7.513  18.280  0.00  0.00    +0.000 N 
ATOM      2  C   UNL     1       1.830   8.390  19.304  0.00  0.00    +0.000 C 
ATOM      3  O   UNL     1       1.907   8.015  20.449  0.00  0.00    +0.000 OA
ATOM      4  N   UNL     1       1.276   9.574  18.861  0.00  0.00    +0.000 N 
ATOM      5  H   UNL     1       2.574   7.850  17.343  0.00  0.00    +0.000 HD
ATOM      6  H   UNL     1       1.193   9.751  17.862  0.00  0.00    +0.000 HD
ENDROOT
BRANCH   4   7
ATOM      7  C   UNL     1       0.742  10.591  19.758  0.00  0.00    +0.000 A 
ATOM      8  C   UNL     1       1.288  11.874  19.890  0.00  0.00    +0.000 A 
ATOM      9  C   UNL     1       0.719  12.876  20.710  0.00  0.00    +0.000 A 
ATOM     10  C   UNL     1      -0.430  12.639  21.445  0.00  0.00    +0.000 A 
ATOM     11  C   UNL     1      -0.928  11.315  21.392  0.00  0.00    +0.000 A 
ATOM     12  C   UNL     1      -0.369  10.309  20.556  0.00  0.00    +0.000 A 
BRANCH  10  13
ATOM     13  N   UNL     1      -1.016  13.580  22.336  0.00  0.00    +0.000 N 
ATOM     14  H   UNL     1      -0.679  13.377  23.284  0.00  0.00    +0.000 HD
BRANCH  13  15
ATOM     15  C   UNL     1      -2.364  13.912  22.653  0.00  0.00    +0.000 A 
ATOM     16  N   UNL     1      -2.567  13.631  23.946  0.00  0.00    +0.000 NA
ATOM     17  C   UNL     1      -3.537  12.745  24.156  0.00  0.00    +0.000 A 
ATOM     18  N   UNL     1      -4.293  12.191  23.208  0.00  0.00    +0.000 NA
ATOM     19  C   UNL     1      -4.322  12.847  22.054  0.00  0.00    +0.000 A 
ATOM     20  C   UNL     1      -5.345  12.569  21.164  0.00  0.00    +0.000 A 
ATOM     21  C   UNL     1      -5.778  13.523  20.243  0.00  0.00    +0.000 A 
ATOM     22  C   UNL     1      -5.143  14.759  20.215  0.00  0.00    +0.000 A 
ATOM     23  C   UNL     1      -3.955  14.941  20.939  0.00  0.00    +0.000 A 
ATOM     24  C   UNL     1      -3.456  13.903  21.782  0.00  0.00    +0.000 A 
ENDBRANCH  13  15
ENDBRANCH  10  13
ENDBRANCH   4   7
BRANCH   1  27
ATOM     25  C   UNL     1       2.469   3.955  19.041  0.00  0.00    +0.000 A 
ATOM     26  C   UNL     1       1.792   5.193  18.956  0.00  0.00    +0.000 A 
ATOM     27  C   UNL     1       2.712   6.156  18.588  0.00  0.00    +0.000 A 
ATOM     28  N   UNL     1       3.932   5.450  18.514  0.00  0.00    +0.000 N 
ATOM     29  N   UNL     1       3.742   4.103  18.673  0.00  0.00    +0.000 NA
BRANCH  28  30
ATOM     30  C   UNL     1       5.271   5.919  18.374  0.00  0.00    +0.000 A 
ATOM     31  C   UNL     1       5.628   6.831  17.381  0.00  0.00    +0.000 A 
ATOM     32  C   UNL     1       6.955   7.273  17.302  0.00  0.00    +0.000 A 
ATOM     33  C   UNL     1       7.923   6.797  18.194  0.00  0.00    +0.000 A 
ATOM     34  C   UNL     1       7.570   5.940  19.236  0.00  0.00    +0.000 A 
ATOM     35  C   UNL     1       6.245   5.496  19.307  0.00  0.00    +0.000 A 
BRANCH  34  36
ATOM     36  N   UNL     1       8.563   5.347  20.028  0.00  0.00    +0.000 N 
ATOM     37  H   UNL     1       9.339   4.949  19.509  0.00  0.00    +0.000 HD
ATOM     38  H   UNL     1       8.873   5.922  20.805  0.00  0.00    +0.000 HD
ENDBRANCH  34  36
ENDBRANCH  28  30
BRANCH  25  40
ATOM     39  C   UNL     1       0.477   2.481  18.723  0.00  0.00    +0.000 C 
ATOM     40  C   UNL     1       1.856   2.603  19.401  0.00  0.00    +0.000 C 
ATOM     41  C   UNL     1       1.670   2.489  20.932  0.00  0.00    +0.000 C 
ATOM     42  C   UNL     1       2.714   1.400  18.960  0.00  0.00    +0.000 C 
ENDBRANCH  25  40
ENDBRANCH   1  27
TORSDOF 7
ENDMDL
MODEL 8
REMARK VINA RESULT:      -9.1      2.442     11.090
REMARK  Name = 
REMARK  10 active torsions:
REMARK  status: ('A' for Active; 'I' for Inactive)
REMARK    1  A    between atoms: C_1  and  C_2
REMARK    2  A    between atoms: C_2  and  C_3
REMARK    3  A    between atoms: C_2  and  C_4
REMARK    4  A    between atoms: C_2  and  C_5
REMARK    5  A    between atoms: C_7  and  N_8
REMARK    6  A    between atoms: N_11  and  C_12
REMARK    7  A    between atoms: C_15  and  N_16
REMARK    8  A    between atoms: N_16  and  C_17
REMARK    9  A    between atoms: N_29  and  C_30
REMARK   10  A    between atoms: C_34  and  N_35
REMARK                            x       y       z     vdW  Elec       q    Type
REMARK                         _______ _______ _______ _____ _____    ______ ____
ROOT
ATOM      1  N   UNL     1      -1.628  12.394  20.032  0.00  0.00    +0.000 N 
ATOM      2  C   UNL     1      -1.019  11.145  19.587  0.00  0.00    +0.000 C 
ATOM      3  O   UNL     1      -1.728  10.367  18.997  0.00  0.00    +0.000 OA
ATOM      4  N   UNL     1       0.321  10.980  19.877  0.00  0.00    +0.000 N 
ATOM      5  H   UNL     1      -1.061  13.184  20.315  0.00  0.00    +0.000 HD
ATOM      6  H   UNL     1       0.803  11.668  20.452  0.00  0.00    +0.000 HD
ENDROOT
BRANCH   4   7
ATOM      7  C   UNL     1       1.096   9.825  19.442  0.00  0.00    +0.000 A 
ATOM      8  C   UNL     1       1.371   8.722  20.260  0.00  0.00    +0.000 A 
ATOM      9  C   UNL     1       2.064   7.575  19.806  0.00  0.00    +0.000 A 
ATOM     10  C   UNL     1       2.520   7.479  18.502  0.00  0.00    +0.000 A 
ATOM     11  C   UNL     1       2.332   8.632  17.701  0.00  0.00    +0.000 A 
ATOM     12  C   UNL     1       1.622   9.780  18.148  0.00  0.00    +0.000 A 
BRANCH  10  13
ATOM     13  N   UNL     1       3.277   6.385  17.999  0.00  0.00    +0.000 N 
ATOM     14  H   UNL     1       3.028   6.249  17.013  0.00  0.00    +0.000 HD
BRANCH  13  15
ATOM     15  C   UNL     1       3.388   5.018  18.384  0.00  0.00    +0.000 A 
ATOM     16  N   UNL     1       3.764   4.315  17.309  0.00  0.00    +0.000 NA
ATOM     17  C   UNL     1       2.905   3.358  16.967  0.00  0.00    +0.000 A 
ATOM     18  N   UNL     1       1.783   3.061  17.622  0.00  0.00    +0.000 NA
ATOM     19  C   UNL     1       1.731   3.490  18.878  0.00  0.00    +0.000 A 
ATOM     20  C   UNL     1       0.802   2.919  19.730  0.00  0.00    +0.000 A 
ATOM     21  C   UNL     1       1.017   2.880  21.107  0.00  0.00    +0.000 A 
ATOM     22  C   UNL     1       2.178   3.451  21.618  0.00  0.00    +0.000 A 
ATOM     23  C   UNL     1       2.983   4.240  20.783  0.00  0.00    +0.000 A 
ATOM     24  C   UNL     1       2.674   4.373  19.396  0.00  0.00    +0.000 A 
ENDBRANCH  13  15
ENDBRANCH  10  13
ENDBRANCH   4   7
BRANCH   1  27
ATOM     25  C   UNL     1      -5.220  12.342  19.447  0.00  0.00    +0.000 A 
ATOM     26  C   UNL     1      -3.886  12.177  19.009  0.00  0.00    +0.000 A 
ATOM     27  C   UNL     1      -3.049  12.540  20.047  0.00  0.00    +0.000 A 
ATOM     28  N   UNL     1      -3.933  12.961  21.064  0.00  0.00    +0.000 N 
ATOM     29  N   UNL     1      -5.237  12.720  20.726  0.00  0.00    +0.000 NA
BRANCH  28  30
ATOM     30  C   UNL     1      -3.679  13.627  22.298  0.00  0.00    +0.000 A 
ATOM     31  C   UNL     1      -2.487  13.445  22.999  0.00  0.00    +0.000 A 
ATOM     32  C   UNL     1      -2.283  14.140  24.198  0.00  0.00    +0.000 A 
ATOM     33  C   UNL     1      -3.266  14.999  24.704  0.00  0.00    +0.000 A 
ATOM     34  C   UNL     1      -4.433  15.249  23.981  0.00  0.00    +0.000 A 
ATOM     35  C   UNL     1      -4.635  14.547  22.787  0.00  0.00    +0.000 A 
BRANCH  34  36
ATOM     36  N   UNL     1      -5.476  15.985  24.559  0.00  0.00    +0.000 N 
ATOM     37  H   UNL     1      -5.246  16.949  24.775  0.00  0.00    +0.000 HD
ATOM     38  H   UNL     1      -6.364  15.899  24.074  0.00  0.00    +0.000 HD
ENDBRANCH  34  36
ENDBRANCH  28  30
BRANCH  25  40
ATOM     39  C   UNL     1      -6.781  10.539  18.704  0.00  0.00    +0.000 C 
ATOM     40  C   UNL     1      -6.487  12.050  18.645  0.00  0.00    +0.000 C 
ATOM     41  C   UNL     1      -6.293  12.463  17.167  0.00  0.00    +0.000 C 
ATOM     42  C   UNL     1      -7.731  12.800  19.164  0.00  0.00    +0.000 C 
ENDBRANCH  25  40
ENDBRANCH   1  27
TORSDOF 7
ENDMDL
MODEL 9
REMARK VINA RESULT:      -9.1      1.142      1.412
REMARK  Name = 
REMARK  10 active torsions:
REMARK  status: ('A' for Active; 'I' for Inactive)
REMARK    1  A    between atoms: C_1  and  C_2
REMARK    2  A    between atoms: C_2  and  C_3
REMARK    3  A    between atoms: C_2  and  C_4
REMARK    4  A    between atoms: C_2  and  C_5
REMARK    5  A    between atoms: C_7  and  N_8
REMARK    6  A    between atoms: N_11  and  C_12
REMARK    7  A    between atoms: C_15  and  N_16
REMARK    8  A    between atoms: N_16  and  C_17
REMARK    9  A    between atoms: N_29  and  C_30
REMARK   10  A    between atoms: C_34  and  N_35
REMARK                            x       y       z     vdW  Elec       q    Type
REMARK                         _______ _______ _______ _____ _____    ______ ____
ROOT
ATOM      1  N   UNL     1       2.590   7.576  18.376  0.00  0.00    +0.000 N 
ATOM      2  C   UNL     1       1.688   8.336  19.235  0.00  0.00    +0.000 C 
ATOM      3  O   UNL     1       1.415   7.856  20.308  0.00  0.00    +0.000 OA
ATOM      4  N   UNL     1       1.242   9.544  18.736  0.00  0.00    +0.000 N 
ATOM      5  H   UNL     1       3.049   8.006  17.582  0.00  0.00    +0.000 HD
ATOM      6  H   UNL     1       1.473   9.814  17.782  0.00  0.00    +0.000 HD
ENDROOT
BRANCH   4   7
ATOM      7  C   UNL     1       0.395  10.457  19.493  0.00  0.00    +0.000 A 
ATOM      8  C   UNL     1      -0.869  10.878  19.065  0.00  0.00    +0.000 A 
ATOM      9  C   UNL     1      -1.712  11.709  19.841  0.00  0.00    +0.000 A 
ATOM     10  C   UNL     1      -1.324  12.162  21.090  0.00  0.00    +0.000 A 
ATOM     11  C   UNL     1      -0.008  11.821  21.483  0.00  0.00    +0.000 A 
ATOM     12  C   UNL     1       0.837  10.973  20.714  0.00  0.00    +0.000 A 
BRANCH  10  13
ATOM     13  N   UNL     1      -2.094  13.048  21.893  0.00  0.00    +0.000 N 
ATOM     14  H   UNL     1      -2.324  12.569  22.771  0.00  0.00    +0.000 HD
BRANCH  13  15
ATOM     15  C   UNL     1      -3.331  13.724  21.687  0.00  0.00    +0.000 A 
ATOM     16  N   UNL     1      -3.197  14.977  22.137  0.00  0.00    +0.000 NA
ATOM     17  C   UNL     1      -4.058  15.295  23.101  0.00  0.00    +0.000 A 
ATOM     18  N   UNL     1      -5.007  14.493  23.580  0.00  0.00    +0.000 NA
ATOM     19  C   UNL     1      -5.343  13.479  22.790  0.00  0.00    +0.000 A 
ATOM     20  C   UNL     1      -6.546  12.835  23.021  0.00  0.00    +0.000 A 
ATOM     21  C   UNL     1      -7.222  12.182  21.991  0.00  0.00    +0.000 A 
ATOM     22  C   UNL     1      -6.652  12.167  20.722  0.00  0.00    +0.000 A 
ATOM     23  C   UNL     1      -5.328  12.601  20.557  0.00  0.00    +0.000 A 
ATOM     24  C   UNL     1      -4.604  13.150  21.657  0.00  0.00    +0.000 A 
ENDBRANCH  13  15
ENDBRANCH  10  13
ENDBRANCH   4   7
BRANCH   1  27
ATOM     25  C   UNL     1       2.560   4.002  19.067  0.00  0.00    +0.000 A 
ATOM     26  C   UNL     1       1.922   5.261  19.002  0.00  0.00    +0.000 A 
ATOM     27  C   UNL     1       2.873   6.204  18.660  0.00  0.00    +0.000 A 
ATOM     28  N   UNL     1       4.071   5.463  18.580  0.00  0.00    +0.000 N 
ATOM     29  N   UNL     1       3.839   4.119  18.710  0.00  0.00    +0.000 NA
BRANCH  28  30
ATOM     30  C   UNL     1       5.424   5.894  18.458  0.00  0.00    +0.000 A 
ATOM     31  C   UNL     1       5.825   6.781  17.459  0.00  0.00    +0.000 A 
ATOM     32  C   UNL     1       7.164   7.186  17.398  0.00  0.00    +0.000 A 
ATOM     33  C   UNL     1       8.102   6.699  18.315  0.00  0.00    +0.000 A 
ATOM     34  C   UNL     1       7.707   5.867  19.363  0.00  0.00    +0.000 A 
ATOM     35  C   UNL     1       6.369   5.460  19.416  0.00  0.00    +0.000 A 
BRANCH  34  36
ATOM     36  N   UNL     1       8.668   5.261  20.183  0.00  0.00    +0.000 N 
ATOM     37  H   UNL     1       8.984   4.350  19.864  0.00  0.00    +0.000 HD
ATOM     38  H   UNL     1       9.440   5.869  20.439  0.00  0.00    +0.000 HD
ENDBRANCH  34  36
ENDBRANCH  28  30
BRANCH  25  40
ATOM     39  C   UNL     1       1.681   2.573  20.918  0.00  0.00    +0.000 C 
ATOM     40  C   UNL     1       1.904   2.662  19.395  0.00  0.00    +0.000 C 
ATOM     41  C   UNL     1       2.820   1.496  18.957  0.00  0.00    +0.000 C 
ATOM     42  C   UNL     1       0.544   2.455  18.699  0.00  0.00    +0.000 C 
ENDBRANCH  25  40
ENDBRANCH   1  27
TORSDOF 7
ENDMDL
