MODEL 1
REMARK VINA RESULT:      -6.6      0.000      0.000
REMARK  Name = 
REMARK  6 active torsions:
REMARK  status: ('A' for Active; 'I' for Inactive)
REMARK    1  A    between atoms: C_1  and  N_2
REMARK    2  A    between atoms: N_2  and  C_3
REMARK    3  A    between atoms: N_2  and  C_4
REMARK    4  A    between atoms: C_4  and  C_5
REMARK    5  A    between atoms: C_9  and  C_10
REMARK    6  A    between atoms: N_12  and  C_13
REMARK                            x       y       z     vdW  Elec       q    Type
REMARK                         _______ _______ _______ _____ _____    ______ ____
ROOT
ATOM      1  C   UNL     1       6.616   4.891  15.839  0.00  0.00    +0.000 C 
ATOM      2  O   UNL     1       7.654   4.290  16.119  0.00  0.00    +0.000 OA
ATOM      3  N   UNL     1       5.953   5.689  16.737  0.00  0.00    +0.000 N 
ATOM      4  C   UNL     1       6.294   5.899  18.129  0.00  0.00    +0.000 C 
ATOM      5  C   UNL     1       4.786   5.872  18.461  0.00  0.00    +0.000 C 
ATOM      6  C   UNL     1       4.524   5.845  16.939  0.00  0.00    +0.000 C 
ENDROOT
BRANCH   5   7
ATOM      7  C   UNL     1       4.386   4.625  19.246  0.00  0.00    +0.000 A 
ATOM      8  N   UNL     1       5.236   3.600  19.432  0.00  0.00    +0.000 NA
ATOM      9  N   UNL     1       4.477   2.680  20.079  0.00  0.00    +0.000 N 
ATOM     10  C   UNL     1       5.031   1.400  20.442  0.00  0.00    +0.000 C 
ATOM     11  C   UNL     1       3.194   3.087  20.318  0.00  0.00    +0.000 A 
ATOM     12  N   UNL     1       2.194   2.399  20.917  0.00  0.00    +0.000 NA
ATOM     13  C   UNL     1       1.053   3.132  20.940  0.00  0.00    +0.000 A 
ATOM     14  C   UNL     1       0.941   4.422  20.434  0.00  0.00    +0.000 A 
ATOM     15  N   UNL     1       1.962   5.099  19.860  0.00  0.00    +0.000 NA
ATOM     16  C   UNL     1       3.107   4.373  19.798  0.00  0.00    +0.000 A 
ENDBRANCH   5   7
BRANCH   1  17
ATOM     17  C   UNL     1       6.062   4.886  14.408  0.00  0.00    +0.000 C 
BRANCH  17  19
ATOM     18  C   UNL     1       6.354   3.509  12.417  0.00  0.00    +0.000 C 
ATOM     19  N   UNL     1       7.036   4.276  13.466  0.00  0.00    +0.000 NA
ATOM     20  C   UNL     1       7.861   5.320  12.851  0.00  0.00    +0.000 C 
ENDBRANCH  17  19
ENDBRANCH   1  17
TORSDOF 3
ENDMDL
MODEL 2
REMARK VINA RESULT:      -6.3      1.133      1.202
REMARK  Name = 
REMARK  6 active torsions:
REMARK  status: ('A' for Active; 'I' for Inactive)
REMARK    1  A    between atoms: C_1  and  N_2
REMARK    2  A    between atoms: N_2  and  C_3
REMARK    3  A    between atoms: N_2  and  C_4
REMARK    4  A    between atoms: C_4  and  C_5
REMARK    5  A    between atoms: C_9  and  C_10
REMARK    6  A    between atoms: N_12  and  C_13
REMARK                            x       y       z     vdW  Elec       q    Type
REMARK                         _______ _______ _______ _____ _____    ______ ____
ROOT
ATOM      1  C   UNL     1       7.141   5.050  15.625  0.00  0.00    +0.000 C 
ATOM      2  O   UNL     1       8.013   4.315  16.092  0.00  0.00    +0.000 OA
ATOM      3  N   UNL     1       6.350   5.856  16.406  0.00  0.00    +0.000 N 
ATOM      4  C   UNL     1       6.347   5.929  17.852  0.00  0.00    +0.000 C 
ATOM      5  C   UNL     1       4.809   6.053  17.802  0.00  0.00    +0.000 C 
ATOM      6  C   UNL     1       4.939   6.161  16.266  0.00  0.00    +0.000 C 
ENDROOT
BRANCH   5   7
ATOM      7  C   UNL     1       4.107   4.810  18.344  0.00  0.00    +0.000 A 
ATOM      8  N   UNL     1       4.420   3.575  17.917  0.00  0.00    +0.000 NA
ATOM      9  N   UNL     1       3.524   2.787  18.561  0.00  0.00    +0.000 N 
ATOM     10  C   UNL     1       3.515   1.362  18.343  0.00  0.00    +0.000 C 
ATOM     11  C   UNL     1       2.670   3.470  19.381  0.00  0.00    +0.000 A 
ATOM     12  N   UNL     1       1.659   2.980  20.135  0.00  0.00    +0.000 NA
ATOM     13  C   UNL     1       1.019   3.981  20.790  0.00  0.00    +0.000 A 
ATOM     14  C   UNL     1       1.374   5.322  20.708  0.00  0.00    +0.000 A 
ATOM     15  N   UNL     1       2.404   5.786  19.965  0.00  0.00    +0.000 NA
ATOM     16  C   UNL     1       3.041   4.806  19.276  0.00  0.00    +0.000 A 
ENDBRANCH   5   7
BRANCH   1  17
ATOM     17  C   UNL     1       6.969   5.206  14.108  0.00  0.00    +0.000 C 
BRANCH  17  19
ATOM     18  C   UNL     1       5.093   3.777  13.487  0.00  0.00    +0.000 C 
ATOM     19  N   UNL     1       6.554   3.921  13.488  0.00  0.00    +0.000 NA
ATOM     20  C   UNL     1       7.054   3.842  12.113  0.00  0.00    +0.000 C 
ENDBRANCH  17  19
ENDBRANCH   1  17
TORSDOF 3
ENDMDL
MODEL 3
REMARK VINA RESULT:      -6.3      2.605      6.569
REMARK  Name = 
REMARK  6 active torsions:
REMARK  status: ('A' for Active; 'I' for Inactive)
REMARK    1  A    between atoms: C_1  and  N_2
REMARK    2  A    between atoms: N_2  and  C_3
REMARK    3  A    between atoms: N_2  and  C_4
REMARK    4  A    between atoms: C_4  and  C_5
REMARK    5  A    between atoms: C_9  and  C_10
REMARK    6  A    between atoms: N_12  and  C_13
REMARK                            x       y       z     vdW  Elec       q    Type
REMARK                         _______ _______ _______ _____ _____    ______ ____
ROOT
ATOM      1  C   UNL     1       1.972   5.068  20.471  0.00  0.00    +0.000 C 
ATOM      2  O   UNL     1       2.545   4.680  21.491  0.00  0.00    +0.000 OA
ATOM      3  N   UNL     1       2.037   4.391  19.279  0.00  0.00    +0.000 N 
ATOM      4  C   UNL     1       2.812   3.200  18.997  0.00  0.00    +0.000 C 
ATOM      5  C   UNL     1       3.140   3.791  17.609  0.00  0.00    +0.000 C 
ATOM      6  C   UNL     1       2.138   4.923  17.932  0.00  0.00    +0.000 C 
ENDROOT
BRANCH   5   7
ATOM      7  C   UNL     1       4.607   4.193  17.480  0.00  0.00    +0.000 A 
ATOM      8  N   UNL     1       5.334   4.580  18.543  0.00  0.00    +0.000 NA
ATOM      9  N   UNL     1       6.523   4.932  17.995  0.00  0.00    +0.000 N 
ATOM     10  C   UNL     1       7.589   5.438  18.824  0.00  0.00    +0.000 C 
ATOM     11  C   UNL     1       6.580   4.772  16.639  0.00  0.00    +0.000 A 
ATOM     12  N   UNL     1       7.608   5.051  15.804  0.00  0.00    +0.000 NA
ATOM     13  C   UNL     1       7.269   4.784  14.518  0.00  0.00    +0.000 A 
ATOM     14  C   UNL     1       6.038   4.274  14.124  0.00  0.00    +0.000 A 
ATOM     15  N   UNL     1       5.033   3.979  14.980  0.00  0.00    +0.000 NA
ATOM     16  C   UNL     1       5.339   4.267  16.270  0.00  0.00    +0.000 A 
ENDBRANCH   5   7
BRANCH   1  17
ATOM     17  C   UNL     1       1.033   6.281  20.507  0.00  0.00    +0.000 C 
BRANCH  17  19
ATOM     18  C   UNL     1       1.920   8.177  19.256  0.00  0.00    +0.000 C 
ATOM     19  N   UNL     1       1.807   7.547  20.577  0.00  0.00    +0.000 NA
ATOM     20  C   UNL     1       1.165   8.477  21.510  0.00  0.00    +0.000 C 
ENDBRANCH  17  19
ENDBRANCH   1  17
TORSDOF 3
ENDMDL
MODEL 4
REMARK VINA RESULT:      -6.2      1.097      1.128
REMARK  Name = 
REMARK  6 active torsions:
REMARK  status: ('A' for Active; 'I' for Inactive)
REMARK    1  A    between atoms: C_1  and  N_2
REMARK    2  A    between atoms: N_2  and  C_3
REMARK    3  A    between atoms: N_2  and  C_4
REMARK    4  A    between atoms: C_4  and  C_5
REMARK    5  A    between atoms: C_9  and  C_10
REMARK    6  A    between atoms: N_12  and  C_13
REMARK                            x       y       z     vdW  Elec       q    Type
REMARK                         _______ _______ _______ _____ _____    ______ ____
ROOT
ATOM      1  C   UNL     1       6.923   5.113  15.714  0.00  0.00    +0.000 C 
ATOM      2  O   UNL     1       7.908   4.438  16.019  0.00  0.00    +0.000 OA
ATOM      3  N   UNL     1       6.206   5.840  16.631  0.00  0.00    +0.000 N 
ATOM      4  C   UNL     1       6.420   5.884  18.063  0.00  0.00    +0.000 C 
ATOM      5  C   UNL     1       4.887   5.891  18.250  0.00  0.00    +0.000 C 
ATOM      6  C   UNL     1       4.771   6.039  16.717  0.00  0.00    +0.000 C 
ENDROOT
BRANCH   5   7
ATOM      7  C   UNL     1       4.370   4.587  18.854  0.00  0.00    +0.000 A 
ATOM      8  N   UNL     1       5.170   3.758  19.546  0.00  0.00    +0.000 NA
ATOM      9  N   UNL     1       4.364   2.702  19.816  0.00  0.00    +0.000 N 
ATOM     10  C   UNL     1       4.870   1.562  20.538  0.00  0.00    +0.000 C 
ATOM     11  C   UNL     1       3.091   2.836  19.335  0.00  0.00    +0.000 A 
ATOM     12  N   UNL     1       2.065   1.957  19.420  0.00  0.00    +0.000 NA
ATOM     13  C   UNL     1       0.965   2.440  18.792  0.00  0.00    +0.000 A 
ATOM     14  C   UNL     1       0.902   3.680  18.167  0.00  0.00    +0.000 A 
ATOM     15  N   UNL     1       1.934   4.553  18.116  0.00  0.00    +0.000 NA
ATOM     16  C   UNL     1       3.057   4.078  18.712  0.00  0.00    +0.000 A 
ENDBRANCH   5   7
BRANCH   1  17
ATOM     17  C   UNL     1       6.509   5.286  14.246  0.00  0.00    +0.000 C 
BRANCH  17  19
ATOM     18  C   UNL     1       5.081   3.543  13.314  0.00  0.00    +0.000 C 
ATOM     19  N   UNL     1       6.465   3.973  13.552  0.00  0.00    +0.000 NA
ATOM     20  C   UNL     1       7.178   4.056  12.274  0.00  0.00    +0.000 C 
ENDBRANCH  17  19
ENDBRANCH   1  17
TORSDOF 3
ENDMDL
MODEL 5
REMARK VINA RESULT:      -6.0      3.187      4.953
REMARK  Name = 
REMARK  6 active torsions:
REMARK  status: ('A' for Active; 'I' for Inactive)
REMARK    1  A    between atoms: C_1  and  N_2
REMARK    2  A    between atoms: N_2  and  C_3
REMARK    3  A    between atoms: N_2  and  C_4
REMARK    4  A    between atoms: C_4  and  C_5
REMARK    5  A    between atoms: C_9  and  C_10
REMARK    6  A    between atoms: N_12  and  C_13
REMARK                            x       y       z     vdW  Elec       q    Type
REMARK                         _______ _______ _______ _____ _____    ______ ____
ROOT
ATOM      1  C   UNL     1       7.966   8.451  17.963  0.00  0.00    +0.000 C 
ATOM      2  O   UNL     1       7.343   9.200  17.209  0.00  0.00    +0.000 OA
ATOM      3  N   UNL     1       7.918   7.083  17.860  0.00  0.00    +0.000 N 
ATOM      4  C   UNL     1       7.109   6.309  16.941  0.00  0.00    +0.000 C 
ATOM      5  C   UNL     1       6.853   5.299  18.080  0.00  0.00    +0.000 C 
ATOM      6  C   UNL     1       7.885   6.088  18.916  0.00  0.00    +0.000 C 
ENDROOT
BRANCH   5   7
ATOM      7  C   UNL     1       5.407   5.330  18.571  0.00  0.00    +0.000 A 
ATOM      8  N   UNL     1       4.642   6.430  18.457  0.00  0.00    +0.000 NA
ATOM      9  N   UNL     1       3.493   6.075  19.084  0.00  0.00    +0.000 N 
ATOM     10  C   UNL     1       2.405   7.013  19.201  0.00  0.00    +0.000 C 
ATOM     11  C   UNL     1       3.498   4.800  19.576  0.00  0.00    +0.000 A 
ATOM     12  N   UNL     1       2.523   4.162  20.263  0.00  0.00    +0.000 NA
ATOM     13  C   UNL     1       2.917   2.911  20.607  0.00  0.00    +0.000 A 
ATOM     14  C   UNL     1       4.149   2.359  20.276  0.00  0.00    +0.000 A 
ATOM     15  N   UNL     1       5.100   3.008  19.566  0.00  0.00    +0.000 NA
ATOM     16  C   UNL     1       4.739   4.275  19.237  0.00  0.00    +0.000 A 
ENDBRANCH   5   7
BRANCH   1  17
ATOM     17  C   UNL     1       8.949   9.013  18.998  0.00  0.00    +0.000 C 
BRANCH  17  19
ATOM     18  C   UNL     1       9.241  11.059  20.293  0.00  0.00    +0.000 C 
ATOM     19  N   UNL     1       8.961  10.498  18.965  0.00  0.00    +0.000 NA
ATOM     20  C   UNL     1       9.968  10.972  18.012  0.00  0.00    +0.000 C 
ENDBRANCH  17  19
ENDBRANCH   1  17
TORSDOF 3
ENDMDL
MODEL 6
REMARK VINA RESULT:      -5.9      1.895      6.971
REMARK  Name = 
REMARK  6 active torsions:
REMARK  status: ('A' for Active; 'I' for Inactive)
REMARK    1  A    between atoms: C_1  and  N_2
REMARK    2  A    between atoms: N_2  and  C_3
REMARK    3  A    between atoms: N_2  and  C_4
REMARK    4  A    between atoms: C_4  and  C_5
REMARK    5  A    between atoms: C_9  and  C_10
REMARK    6  A    between atoms: N_12  and  C_13
REMARK                            x       y       z     vdW  Elec       q    Type
REMARK                         _______ _______ _______ _____ _____    ______ ____
ROOT
ATOM      1  C   UNL     1       3.929   2.846  19.887  0.00  0.00    +0.000 C 
ATOM      2  O   UNL     1       4.865   2.121  20.229  0.00  0.00    +0.000 OA
ATOM      3  N   UNL     1       3.521   2.969  18.583  0.00  0.00    +0.000 N 
ATOM      4  C   UNL     1       4.132   2.358  17.420  0.00  0.00    +0.000 C 
ATOM      5  C   UNL     1       3.874   3.669  16.646  0.00  0.00    +0.000 C 
ATOM      6  C   UNL     1       3.072   4.154  17.874  0.00  0.00    +0.000 C 
ENDROOT
BRANCH   5   7
ATOM      7  C   UNL     1       5.165   4.422  16.331  0.00  0.00    +0.000 A 
ATOM      8  N   UNL     1       5.716   5.282  17.204  0.00  0.00    +0.000 NA
ATOM      9  N   UNL     1       6.767   5.792  16.516  0.00  0.00    +0.000 N 
ATOM     10  C   UNL     1       7.616   6.793  17.113  0.00  0.00    +0.000 C 
ATOM     11  C   UNL     1       6.907   5.282  15.255  0.00  0.00    +0.000 A 
ATOM     12  N   UNL     1       7.833   5.598  14.320  0.00  0.00    +0.000 NA
ATOM     13  C   UNL     1       7.623   4.896  13.179  0.00  0.00    +0.000 A 
ATOM     14  C   UNL     1       6.606   3.965  13.009  0.00  0.00    +0.000 A 
ATOM     15  N   UNL     1       5.705   3.647  13.968  0.00  0.00    +0.000 NA
ATOM     16  C   UNL     1       5.877   4.360  15.109  0.00  0.00    +0.000 A 
ENDBRANCH   5   7
BRANCH   1  17
ATOM     17  C   UNL     1       3.069   3.569  20.932  0.00  0.00    +0.000 C 
BRANCH  17  19
ATOM     18  C   UNL     1       1.220   2.482  22.093  0.00  0.00    +0.000 C 
ATOM     19  N   UNL     1       1.653   3.129  20.847  0.00  0.00    +0.000 NA
ATOM     20  C   UNL     1       0.786   4.276  20.565  0.00  0.00    +0.000 C 
ENDBRANCH  17  19
ENDBRANCH   1  17
TORSDOF 3
ENDMDL
MODEL 7
REMARK VINA RESULT:      -5.9      3.618      5.408
REMARK  Name = 
REMARK  6 active torsions:
REMARK  status: ('A' for Active; 'I' for Inactive)
REMARK    1  A    between atoms: C_1  and  N_2
REMARK    2  A    between atoms: N_2  and  C_3
REMARK    3  A    between atoms: N_2  and  C_4
REMARK    4  A    between atoms: C_4  and  C_5
REMARK    5  A    between atoms: C_9  and  C_10
REMARK    6  A    between atoms: N_12  and  C_13
REMARK                            x       y       z     vdW  Elec       q    Type
REMARK                         _______ _______ _______ _____ _____    ______ ____
ROOT
ATOM      1  C   UNL     1       2.886   3.899  17.843  0.00  0.00    +0.000 C 
ATOM      2  O   UNL     1       1.911   3.745  17.106  0.00  0.00    +0.000 OA
ATOM      3  N   UNL     1       2.774   4.305  19.150  0.00  0.00    +0.000 N 
ATOM      4  C   UNL     1       1.558   4.681  19.841  0.00  0.00    +0.000 C 
ATOM      5  C   UNL     1       2.349   5.811  20.534  0.00  0.00    +0.000 C 
ATOM      6  C   UNL     1       3.624   5.211  19.900  0.00  0.00    +0.000 C 
ENDROOT
BRANCH   5   7
ATOM      7  C   UNL     1       1.930   7.196  20.049  0.00  0.00    +0.000 A 
ATOM      8  N   UNL     1       2.270   7.656  18.833  0.00  0.00    +0.000 NA
ATOM      9  N   UNL     1       1.795   8.926  18.837  0.00  0.00    +0.000 N 
ATOM     10  C   UNL     1       1.988   9.782  17.693  0.00  0.00    +0.000 C 
ATOM     11  C   UNL     1       1.162   9.280  19.995  0.00  0.00    +0.000 A 
ATOM     12  N   UNL     1       0.604  10.471  20.317  0.00  0.00    +0.000 NA
ATOM     13  C   UNL     1       0.098  10.441  21.575  0.00  0.00    +0.000 A 
ATOM     14  C   UNL     1       0.134   9.327  22.406  0.00  0.00    +0.000 A 
ATOM     15  N   UNL     1       0.676   8.139  22.053  0.00  0.00    +0.000 NA
ATOM     16  C   UNL     1       1.216   8.155  20.809  0.00  0.00    +0.000 A 
ENDBRANCH   5   7
BRANCH   1  17
ATOM     17  C   UNL     1       4.296   3.516  17.377  0.00  0.00    +0.000 C 
BRANCH  17  19
ATOM     18  C   UNL     1       4.886   5.730  16.541  0.00  0.00    +0.000 C 
ATOM     19  N   UNL     1       4.696   4.316  16.190  0.00  0.00    +0.000 NA
ATOM     20  C   UNL     1       5.936   3.783  15.619  0.00  0.00    +0.000 C 
ENDBRANCH  17  19
ENDBRANCH   1  17
TORSDOF 3
ENDMDL
MODEL 8
REMARK VINA RESULT:      -5.8      2.441      6.243
REMARK  Name = 
REMARK  6 active torsions:
REMARK  status: ('A' for Active; 'I' for Inactive)
REMARK    1  A    between atoms: C_1  and  N_2
REMARK    2  A    between atoms: N_2  and  C_3
REMARK    3  A    between atoms: N_2  and  C_4
REMARK    4  A    between atoms: C_4  and  C_5
REMARK    5  A    between atoms: C_9  and  C_10
REMARK    6  A    between atoms: N_12  and  C_13
REMARK                            x       y       z     vdW  Elec       q    Type
REMARK                         _______ _______ _______ _____ _____    ______ ____
ROOT
ATOM      1  C   UNL     1       2.324   4.652  20.216  0.00  0.00    +0.000 C 
ATOM      2  O   UNL     1       3.125   4.354  21.103  0.00  0.00    +0.000 OA
ATOM      3  N   UNL     1       2.241   3.969  19.028  0.00  0.00    +0.000 N 
ATOM      4  C   UNL     1       3.085   2.875  18.594  0.00  0.00    +0.000 C 
ATOM      5  C   UNL     1       3.067   3.478  17.173  0.00  0.00    +0.000 C 
ATOM      6  C   UNL     1       2.016   4.486  17.691  0.00  0.00    +0.000 C 
ENDROOT
BRANCH   5   7
ATOM      7  C   UNL     1       4.423   4.051  16.767  0.00  0.00    +0.000 A 
ATOM      8  N   UNL     1       4.864   4.000  15.498  0.00  0.00    +0.000 NA
ATOM      9  N   UNL     1       6.115   4.517  15.583  0.00  0.00    +0.000 N 
ATOM     10  C   UNL     1       6.948   4.612  14.411  0.00  0.00    +0.000 C 
ATOM     11  C   UNL     1       6.474   4.901  16.845  0.00  0.00    +0.000 A 
ATOM     12  N   UNL     1       7.650   5.427  17.259  0.00  0.00    +0.000 NA
ATOM     13  C   UNL     1       7.633   5.649  18.597  0.00  0.00    +0.000 A 
ATOM     14  C   UNL     1       6.543   5.388  19.420  0.00  0.00    +0.000 A 
ATOM     15  N   UNL     1       5.368   4.884  18.979  0.00  0.00    +0.000 NA
ATOM     16  C   UNL     1       5.372   4.625  17.646  0.00  0.00    +0.000 A 
ENDBRANCH   5   7
BRANCH   1  17
ATOM     17  C   UNL     1       1.269   5.744  20.439  0.00  0.00    +0.000 C 
BRANCH  17  19
ATOM     18  C   UNL     1       2.276   7.596  19.213  0.00  0.00    +0.000 C 
ATOM     19  N   UNL     1       1.906   7.083  20.538  0.00  0.00    +0.000 NA
ATOM     20  C   UNL     1       0.994   8.025  21.191  0.00  0.00    +0.000 C 
ENDBRANCH  17  19
ENDBRANCH   1  17
TORSDOF 3
ENDMDL
MODEL 9
REMARK VINA RESULT:      -5.8      0.987      1.362
REMARK  Name = 
REMARK  6 active torsions:
REMARK  status: ('A' for Active; 'I' for Inactive)
REMARK    1  A    between atoms: C_1  and  N_2
REMARK    2  A    between atoms: N_2  and  C_3
REMARK    3  A    between atoms: N_2  and  C_4
REMARK    4  A    between atoms: C_4  and  C_5
REMARK    5  A    between atoms: C_9  and  C_10
REMARK    6  A    between atoms: N_12  and  C_13
REMARK                            x       y       z     vdW  Elec       q    Type
REMARK                         _______ _______ _______ _____ _____    ______ ____
ROOT
ATOM      1  C   UNL     1       6.838   5.253  16.350  0.00  0.00    +0.000 C 
ATOM      2  O   UNL     1       7.508   5.917  17.143  0.00  0.00    +0.000 OA
ATOM      3  N   UNL     1       5.466   5.223  16.378  0.00  0.00    +0.000 N 
ATOM      4  C   UNL     1       4.603   5.872  17.343  0.00  0.00    +0.000 C 
ATOM      5  C   UNL     1       3.700   4.620  17.317  0.00  0.00    +0.000 C 
ATOM      6  C   UNL     1       4.573   4.101  16.153  0.00  0.00    +0.000 C 
ENDROOT
BRANCH   5   7
ATOM      7  C   UNL     1       3.761   3.831  18.623  0.00  0.00    +0.000 A 
ATOM      8  N   UNL     1       4.827   3.080  18.949  0.00  0.00    +0.000 NA
ATOM      9  N   UNL     1       4.447   2.488  20.109  0.00  0.00    +0.000 N 
ATOM     10  C   UNL     1       5.326   1.563  20.780  0.00  0.00    +0.000 C 
ATOM     11  C   UNL     1       3.196   2.843  20.530  0.00  0.00    +0.000 A 
ATOM     12  N   UNL     1       2.527   2.414  21.626  0.00  0.00    +0.000 NA
ATOM     13  C   UNL     1       1.294   2.975  21.686  0.00  0.00    +0.000 A 
ATOM     14  C   UNL     1       0.800   3.882  20.755  0.00  0.00    +0.000 A 
ATOM     15  N   UNL     1       1.497   4.315  19.680  0.00  0.00    +0.000 NA
ATOM     16  C   UNL     1       2.724   3.743  19.582  0.00  0.00    +0.000 A 
ENDBRANCH   5   7
BRANCH   1  17
ATOM     17  C   UNL     1       7.504   4.510  15.184  0.00  0.00    +0.000 C 
BRANCH  17  19
ATOM     18  C   UNL     1       8.113   5.589  13.084  0.00  0.00    +0.000 C 
ATOM     19  N   UNL     1       7.014   5.027  13.880  0.00  0.00    +0.000 NA
ATOM     20  C   UNL     1       6.365   3.951  13.126  0.00  0.00    +0.000 C 
ENDBRANCH  17  19
ENDBRANCH   1  17
TORSDOF 3
ENDMDL
