MODEL 1
REMARK VINA RESULT:      -7.9      0.000      0.000
REMARK  Name = 
REMARK  10 active torsions:
REMARK  status: ('A' for Active; 'I' for Inactive)
REMARK    1  A    between atoms: C_1  and  O_2
REMARK    2  A    between atoms: O_2  and  C_3
REMARK    3  A    between atoms: C_6  and  C_7
REMARK    4  A    between atoms: C_9  and  O_10
REMARK    5  A    between atoms: O_10  and  C_11
REMARK    6  A    between atoms: C_11  and  C_12
REMARK    7  A    between atoms: C_16  and  O_17
REMARK    8  A    between atoms: O_17  and  C_18
REMARK    9  A    between atoms: C_21  and  C_22
REMARK   10  A    between atoms: C_27  and  N_28
REMARK                            x       y       z     vdW  Elec       q    Type
REMARK                         _______ _______ _______ _____ _____    ______ ____
ROOT
ATOM      1  C   UNL     1       2.529   7.447  18.767  0.00  0.00    +0.000 A 
ATOM      2  C   UNL     1       2.130   8.637  18.144  0.00  0.00    +0.000 A 
ATOM      3  C   UNL     1       1.380   9.662  18.755  0.00  0.00    +0.000 A 
ATOM      4  C   UNL     1       0.881   9.402  20.049  0.00  0.00    +0.000 A 
ATOM      5  C   UNL     1       0.045  10.053  21.017  0.00  0.00    +0.000 A 
ATOM      6  C   UNL     1       0.040   9.242  22.138  0.00  0.00    +0.000 A 
ATOM      7  O   UNL     1       0.784   8.130  21.927  0.00  0.00    +0.000 OA
ATOM      8  C   UNL     1       1.271   8.206  20.658  0.00  0.00    +0.000 A 
ATOM      9  C   UNL     1       2.088   7.222  20.075  0.00  0.00    +0.000 A 
ENDROOT
BRANCH   1  13
ATOM     10  C   UNL     1       4.916   4.873  16.260  0.00  0.00    +0.000 A 
ATOM     11  C   UNL     1       5.080   6.250  16.224  0.00  0.00    +0.000 A 
ATOM     12  C   UNL     1       4.364   7.059  17.104  0.00  0.00    +0.000 A 
ATOM     13  C   UNL     1       3.411   6.529  18.002  0.00  0.00    +0.000 A 
ATOM     14  C   UNL     1       3.276   5.135  18.038  0.00  0.00    +0.000 A 
ATOM     15  C   UNL     1       4.024   4.311  17.175  0.00  0.00    +0.000 A 
BRANCH  10  17
ATOM     16  C   UNL     1       6.880   4.769  14.965  0.00  0.00    +0.000 C 
ATOM     17  O   UNL     1       5.632   4.187  15.321  0.00  0.00    +0.000 OA
ENDBRANCH  10  17
ENDBRANCH   1  13
BRANCH   5  18
ATOM     18  C   UNL     1      -0.719  11.339  20.901  0.00  0.00    +0.000 A 
ATOM     19  C   UNL     1      -0.689  12.361  21.827  0.00  0.00    +0.000 A 
ATOM     20  C   UNL     1      -1.551  13.442  21.480  0.00  0.00    +0.000 A 
ATOM     21  C   UNL     1      -2.204  13.217  20.290  0.00  0.00    +0.000 A 
ATOM     22  S   UNL     1      -1.724  11.743  19.572  0.00  0.00    +0.000 S 
ENDBRANCH   5  18
BRANCH   6  23
ATOM     23  N   UNL     1      -0.577   9.310  23.327  0.00  0.00    +0.000 N 
ATOM     24  H   UNL     1      -1.549   9.604  23.360  0.00  0.00    +0.000 HD
ATOM     25  H   UNL     1      -0.032   9.575  24.139  0.00  0.00    +0.000 HD
ENDBRANCH   6  23
BRANCH   3  26
ATOM     26  O   UNL     1       1.184  10.898  18.150  0.00  0.00    +0.000 OA
BRANCH  26  27
ATOM     27  C   UNL     1       2.279  11.804  18.323  0.00  0.00    +0.000 C 
BRANCH  27  28
ATOM     28  C   UNL     1       1.997  13.110  19.017  0.00  0.00    +0.000 A 
ATOM     29  C   UNL     1       1.157  14.098  18.505  0.00  0.00    +0.000 A 
ATOM     30  C   UNL     1       0.875  15.229  19.276  0.00  0.00    +0.000 A 
ATOM     31  C   UNL     1       1.428  15.374  20.552  0.00  0.00    +0.000 A 
ATOM     32  C   UNL     1       2.266  14.394  21.076  0.00  0.00    +0.000 A 
ATOM     33  C   UNL     1       2.520  13.255  20.318  0.00  0.00    +0.000 A 
BRANCH  32  34
ATOM     34  O   UNL     1       2.753  14.616  22.334  0.00  0.00    +0.000 OA
ATOM     35  C   UNL     1       3.509  15.815  22.492  0.00  0.00    +0.000 C 
ENDBRANCH  32  34
ENDBRANCH  27  28
ENDBRANCH  26  27
ENDBRANCH   3  26
TORSDOF 8
ENDMDL
MODEL 2
REMARK VINA RESULT:      -7.8      1.146      1.717
REMARK  Name = 
REMARK  10 active torsions:
REMARK  status: ('A' for Active; 'I' for Inactive)
REMARK    1  A    between atoms: C_1  and  O_2
REMARK    2  A    between atoms: O_2  and  C_3
REMARK    3  A    between atoms: C_6  and  C_7
REMARK    4  A    between atoms: C_9  and  O_10
REMARK    5  A    between atoms: O_10  and  C_11
REMARK    6  A    between atoms: C_11  and  C_12
REMARK    7  A    between atoms: C_16  and  O_17
REMARK    8  A    between atoms: O_17  and  C_18
REMARK    9  A    between atoms: C_21  and  C_22
REMARK   10  A    between atoms: C_27  and  N_28
REMARK                            x       y       z     vdW  Elec       q    Type
REMARK                         _______ _______ _______ _____ _____    ______ ____
ROOT
ATOM      1  C   UNL     1       2.496   7.446  18.794  0.00  0.00    +0.000 A 
ATOM      2  C   UNL     1       2.066   8.621  18.163  0.00  0.00    +0.000 A 
ATOM      3  C   UNL     1       1.323   9.649  18.780  0.00  0.00    +0.000 A 
ATOM      4  C   UNL     1       0.865   9.405  20.092  0.00  0.00    +0.000 A 
ATOM      5  C   UNL     1       0.051  10.064  21.073  0.00  0.00    +0.000 A 
ATOM      6  C   UNL     1       0.089   9.273  22.207  0.00  0.00    +0.000 A 
ATOM      7  O   UNL     1       0.837   8.166  21.993  0.00  0.00    +0.000 OA
ATOM      8  C   UNL     1       1.286   8.225  20.709  0.00  0.00    +0.000 A 
ATOM      9  C   UNL     1       2.096   7.239  20.118  0.00  0.00    +0.000 A 
ENDROOT
BRANCH   1  13
ATOM     10  C   UNL     1       4.859   4.882  16.255  0.00  0.00    +0.000 A 
ATOM     11  C   UNL     1       5.086   6.250  16.292  0.00  0.00    +0.000 A 
ATOM     12  C   UNL     1       4.374   7.051  17.182  0.00  0.00    +0.000 A 
ATOM     13  C   UNL     1       3.364   6.525  18.019  0.00  0.00    +0.000 A 
ATOM     14  C   UNL     1       3.165   5.138  17.984  0.00  0.00    +0.000 A 
ATOM     15  C   UNL     1       3.909   4.321  17.110  0.00  0.00    +0.000 A 
BRANCH  10  17
ATOM     16  C   UNL     1       6.946   4.588  15.204  0.00  0.00    +0.000 C 
ATOM     17  O   UNL     1       5.580   4.207  15.312  0.00  0.00    +0.000 OA
ENDBRANCH  10  17
ENDBRANCH   1  13
BRANCH   5  18
ATOM     18  C   UNL     1      -0.730  11.341  20.959  0.00  0.00    +0.000 A 
ATOM     19  C   UNL     1      -1.610  11.639  19.941  0.00  0.00    +0.000 A 
ATOM     20  C   UNL     1      -2.172  12.944  20.065  0.00  0.00    +0.000 A 
ATOM     21  C   UNL     1      -1.711  13.597  21.185  0.00  0.00    +0.000 A 
ATOM     22  S   UNL     1      -0.663  12.613  22.108  0.00  0.00    +0.000 S 
ENDBRANCH   5  18
BRANCH   6  23
ATOM     23  N   UNL     1      -0.493   9.355  23.413  0.00  0.00    +0.000 N 
ATOM     24  H   UNL     1       0.073   9.203  24.243  0.00  0.00    +0.000 HD
ATOM     25  H   UNL     1      -1.458   9.057  23.505  0.00  0.00    +0.000 HD
ENDBRANCH   6  23
BRANCH   3  26
ATOM     26  O   UNL     1       1.096  10.872  18.160  0.00  0.00    +0.000 OA
BRANCH  26  27
ATOM     27  C   UNL     1       2.163  11.811  18.329  0.00  0.00    +0.000 C 
BRANCH  27  28
ATOM     28  C   UNL     1       1.857  13.086  19.069  0.00  0.00    +0.000 A 
ATOM     29  C   UNL     1       2.506  13.482  20.238  0.00  0.00    +0.000 A 
ATOM     30  C   UNL     1       2.226  14.735  20.790  0.00  0.00    +0.000 A 
ATOM     31  C   UNL     1       1.302  15.589  20.180  0.00  0.00    +0.000 A 
ATOM     32  C   UNL     1       0.649  15.206  19.012  0.00  0.00    +0.000 A 
ATOM     33  C   UNL     1       0.953  13.971  18.448  0.00  0.00    +0.000 A 
BRANCH  32  34
ATOM     34  O   UNL     1      -0.231  16.108  18.481  0.00  0.00    +0.000 OA
ATOM     35  C   UNL     1      -0.930  16.911  19.432  0.00  0.00    +0.000 C 
ENDBRANCH  32  34
ENDBRANCH  27  28
ENDBRANCH  26  27
ENDBRANCH   3  26
TORSDOF 8
ENDMDL
MODEL 3
REMARK VINA RESULT:      -7.6      1.357      1.785
REMARK  Name = 
REMARK  10 active torsions:
REMARK  status: ('A' for Active; 'I' for Inactive)
REMARK    1  A    between atoms: C_1  and  O_2
REMARK    2  A    between atoms: O_2  and  C_3
REMARK    3  A    between atoms: C_6  and  C_7
REMARK    4  A    between atoms: C_9  and  O_10
REMARK    5  A    between atoms: O_10  and  C_11
REMARK    6  A    between atoms: C_11  and  C_12
REMARK    7  A    between atoms: C_16  and  O_17
REMARK    8  A    between atoms: O_17  and  C_18
REMARK    9  A    between atoms: C_21  and  C_22
REMARK   10  A    between atoms: C_27  and  N_28
REMARK                            x       y       z     vdW  Elec       q    Type
REMARK                         _______ _______ _______ _____ _____    ______ ____
ROOT
ATOM      1  C   UNL     1       2.402   7.577  18.686  0.00  0.00    +0.000 A 
ATOM      2  C   UNL     1       2.025   8.799  18.113  0.00  0.00    +0.000 A 
ATOM      3  C   UNL     1       1.356   9.841  18.788  0.00  0.00    +0.000 A 
ATOM      4  C   UNL     1       0.915   9.570  20.101  0.00  0.00    +0.000 A 
ATOM      5  C   UNL     1       0.163  10.233  21.127  0.00  0.00    +0.000 A 
ATOM      6  C   UNL     1       0.181   9.394  22.228  0.00  0.00    +0.000 A 
ATOM      7  O   UNL     1       0.861   8.257  21.952  0.00  0.00    +0.000 OA
ATOM      8  C   UNL     1       1.282   8.344  20.660  0.00  0.00    +0.000 A 
ATOM      9  C   UNL     1       2.022   7.340  20.011  0.00  0.00    +0.000 A 
ENDROOT
BRANCH   1  13
ATOM     10  C   UNL     1       4.853   4.736  16.558  0.00  0.00    +0.000 A 
ATOM     11  C   UNL     1       3.739   4.319  17.272  0.00  0.00    +0.000 A 
ATOM     12  C   UNL     1       2.909   5.259  17.880  0.00  0.00    +0.000 A 
ATOM     13  C   UNL     1       3.199   6.642  17.853  0.00  0.00    +0.000 A 
ATOM     14  C   UNL     1       4.316   7.045  17.109  0.00  0.00    +0.000 A 
ATOM     15  C   UNL     1       5.136   6.099  16.464  0.00  0.00    +0.000 A 
BRANCH  10  17
ATOM     16  C   UNL     1       6.200   3.988  14.777  0.00  0.00    +0.000 C 
ATOM     17  O   UNL     1       5.617   3.726  16.047  0.00  0.00    +0.000 OA
ENDBRANCH  10  17
ENDBRANCH   1  13
BRANCH   5  18
ATOM     18  C   UNL     1      -0.547  11.554  21.083  0.00  0.00    +0.000 A 
ATOM     19  C   UNL     1      -0.226  12.649  21.858  0.00  0.00    +0.000 A 
ATOM     20  C   UNL     1      -1.101  13.753  21.639  0.00  0.00    +0.000 A 
ATOM     21  C   UNL     1      -2.057  13.470  20.691  0.00  0.00    +0.000 A 
ATOM     22  S   UNL     1      -1.851  11.909  20.028  0.00  0.00    +0.000 S 
ENDBRANCH   5  18
BRANCH   6  23
ATOM     23  N   UNL     1      -0.368   9.459  23.451  0.00  0.00    +0.000 N 
ATOM     24  H   UNL     1      -0.943  10.262  23.688  0.00  0.00    +0.000 HD
ATOM     25  H   UNL     1       0.145   9.067  24.232  0.00  0.00    +0.000 HD
ENDBRANCH   6  23
BRANCH   3  26
ATOM     26  O   UNL     1       1.184  11.099  18.223  0.00  0.00    +0.000 OA
BRANCH  26  27
ATOM     27  C   UNL     1       2.396  11.855  18.121  0.00  0.00    +0.000 C 
BRANCH  27  28
ATOM     28  C   UNL     1       2.313  13.338  18.368  0.00  0.00    +0.000 A 
ATOM     29  C   UNL     1       3.408  14.200  18.307  0.00  0.00    +0.000 A 
ATOM     30  C   UNL     1       3.210  15.576  18.445  0.00  0.00    +0.000 A 
ATOM     31  C   UNL     1       1.925  16.092  18.644  0.00  0.00    +0.000 A 
ATOM     32  C   UNL     1       0.824  15.243  18.705  0.00  0.00    +0.000 A 
ATOM     33  C   UNL     1       1.021  13.876  18.535  0.00  0.00    +0.000 A 
BRANCH  32  34
ATOM     34  O   UNL     1      -0.394  15.836  18.893  0.00  0.00    +0.000 OA
ATOM     35  C   UNL     1      -0.379  17.023  19.683  0.00  0.00    +0.000 C 
ENDBRANCH  32  34
ENDBRANCH  27  28
ENDBRANCH  26  27
ENDBRANCH   3  26
TORSDOF 8
ENDMDL
MODEL 4
REMARK VINA RESULT:      -7.6      1.300      1.414
REMARK  Name = 
REMARK  10 active torsions:
REMARK  status: ('A' for Active; 'I' for Inactive)
REMARK    1  A    between atoms: C_1  and  O_2
REMARK    2  A    between atoms: O_2  and  C_3
REMARK    3  A    between atoms: C_6  and  C_7
REMARK    4  A    between atoms: C_9  and  O_10
REMARK    5  A    between atoms: O_10  and  C_11
REMARK    6  A    between atoms: C_11  and  C_12
REMARK    7  A    between atoms: C_16  and  O_17
REMARK    8  A    between atoms: O_17  and  C_18
REMARK    9  A    between atoms: C_21  and  C_22
REMARK   10  A    between atoms: C_27  and  N_28
REMARK                            x       y       z     vdW  Elec       q    Type
REMARK                         _______ _______ _______ _____ _____    ______ ____
ROOT
ATOM      1  C   UNL     1       2.587   7.384  18.733  0.00  0.00    +0.000 A 
ATOM      2  C   UNL     1       2.171   8.562  18.096  0.00  0.00    +0.000 A 
ATOM      3  C   UNL     1       1.423   9.593  18.703  0.00  0.00    +0.000 A 
ATOM      4  C   UNL     1       0.946   9.350  20.008  0.00  0.00    +0.000 A 
ATOM      5  C   UNL     1       0.121  10.011  20.978  0.00  0.00    +0.000 A 
ATOM      6  C   UNL     1       0.140   9.219  22.113  0.00  0.00    +0.000 A 
ATOM      7  O   UNL     1       0.886   8.109  21.908  0.00  0.00    +0.000 OA
ATOM      8  C   UNL     1       1.353   8.167  20.631  0.00  0.00    +0.000 A 
ATOM      9  C   UNL     1       2.167   7.179  20.051  0.00  0.00    +0.000 A 
ENDROOT
BRANCH   1  13
ATOM     10  C   UNL     1       4.968   4.804  16.226  0.00  0.00    +0.000 A 
ATOM     11  C   UNL     1       5.179   6.175  16.238  0.00  0.00    +0.000 A 
ATOM     12  C   UNL     1       4.461   6.983  17.118  0.00  0.00    +0.000 A 
ATOM     13  C   UNL     1       3.462   6.460  17.969  0.00  0.00    +0.000 A 
ATOM     14  C   UNL     1       3.280   5.071  17.958  0.00  0.00    +0.000 A 
ATOM     15  C   UNL     1       4.028   4.248  17.095  0.00  0.00    +0.000 A 
BRANCH  10  17
ATOM     16  C   UNL     1       6.906   4.745  14.890  0.00  0.00    +0.000 C 
ATOM     17  O   UNL     1       5.692   4.122  15.291  0.00  0.00    +0.000 OA
ENDBRANCH  10  17
ENDBRANCH   1  13
BRANCH   5  18
ATOM     18  C   UNL     1      -0.653  11.291  20.854  0.00  0.00    +0.000 A 
ATOM     19  C   UNL     1      -1.618  11.541  19.902  0.00  0.00    +0.000 A 
ATOM     20  C   UNL     1      -2.152  12.860  19.993  0.00  0.00    +0.000 A 
ATOM     21  C   UNL     1      -1.584  13.573  21.024  0.00  0.00    +0.000 A 
ATOM     22  S   UNL     1      -0.469  12.630  21.910  0.00  0.00    +0.000 S 
ENDBRANCH   5  18
BRANCH   6  23
ATOM     23  N   UNL     1      -0.459   9.302  23.310  0.00  0.00    +0.000 N 
ATOM     24  H   UNL     1       0.083   9.097  24.145  0.00  0.00    +0.000 HD
ATOM     25  H   UNL     1      -1.440   9.058  23.378  0.00  0.00    +0.000 HD
ENDBRANCH   6  23
BRANCH   3  26
ATOM     26  O   UNL     1       1.210  10.816  18.081  0.00  0.00    +0.000 OA
BRANCH  26  27
ATOM     27  C   UNL     1       2.393  11.612  17.954  0.00  0.00    +0.000 C 
BRANCH  27  28
ATOM     28  C   UNL     1       2.268  13.090  18.212  0.00  0.00    +0.000 A 
ATOM     29  C   UNL     1       1.072  13.723  18.548  0.00  0.00    +0.000 A 
ATOM     30  C   UNL     1       1.079  15.082  18.874  0.00  0.00    +0.000 A 
ATOM     31  C   UNL     1       2.275  15.807  18.865  0.00  0.00    +0.000 A 
ATOM     32  C   UNL     1       3.476  15.187  18.534  0.00  0.00    +0.000 A 
ATOM     33  C   UNL     1       3.469  13.827  18.240  0.00  0.00    +0.000 A 
BRANCH  32  34
ATOM     34  O   UNL     1       4.596  15.972  18.560  0.00  0.00    +0.000 OA
ATOM     35  C   UNL     1       4.736  16.795  19.716  0.00  0.00    +0.000 C 
ENDBRANCH  32  34
ENDBRANCH  27  28
ENDBRANCH  26  27
ENDBRANCH   3  26
TORSDOF 8
ENDMDL
MODEL 5
REMARK VINA RESULT:      -7.5      2.935      6.525
REMARK  Name = 
REMARK  10 active torsions:
REMARK  status: ('A' for Active; 'I' for Inactive)
REMARK    1  A    between atoms: C_1  and  O_2
REMARK    2  A    between atoms: O_2  and  C_3
REMARK    3  A    between atoms: C_6  and  C_7
REMARK    4  A    between atoms: C_9  and  O_10
REMARK    5  A    between atoms: O_10  and  C_11
REMARK    6  A    between atoms: C_11  and  C_12
REMARK    7  A    between atoms: C_16  and  O_17
REMARK    8  A    between atoms: O_17  and  C_18
REMARK    9  A    between atoms: C_21  and  C_22
REMARK   10  A    between atoms: C_27  and  N_28
REMARK                            x       y       z     vdW  Elec       q    Type
REMARK                         _______ _______ _______ _____ _____    ______ ____
ROOT
ATOM      1  C   UNL     1       3.586   6.894  17.633  0.00  0.00    +0.000 A 
ATOM      2  C   UNL     1       3.155   6.504  18.909  0.00  0.00    +0.000 A 
ATOM      3  C   UNL     1       2.276   7.241  19.729  0.00  0.00    +0.000 A 
ATOM      4  C   UNL     1       1.917   8.530  19.283  0.00  0.00    +0.000 A 
ATOM      5  C   UNL     1       1.154   9.646  19.762  0.00  0.00    +0.000 A 
ATOM      6  C   UNL     1       1.149  10.583  18.743  0.00  0.00    +0.000 A 
ATOM      7  O   UNL     1       1.873  10.144  17.687  0.00  0.00    +0.000 OA
ATOM      8  C   UNL     1       2.363   8.917  18.017  0.00  0.00    +0.000 A 
ATOM      9  C   UNL     1       3.173   8.145  17.165  0.00  0.00    +0.000 A 
ENDROOT
BRANCH   1  13
ATOM     10  C   UNL     1       5.811   4.165  15.141  0.00  0.00    +0.000 A 
ATOM     11  C   UNL     1       5.874   5.534  14.927  0.00  0.00    +0.000 A 
ATOM     12  C   UNL     1       5.220   6.405  15.796  0.00  0.00    +0.000 A 
ATOM     13  C   UNL     1       4.426   5.938  16.867  0.00  0.00    +0.000 A 
ATOM     14  C   UNL     1       4.393   4.554  17.080  0.00  0.00    +0.000 A 
ATOM     15  C   UNL     1       5.082   3.673  16.225  0.00  0.00    +0.000 A 
BRANCH  10  17
ATOM     16  C   UNL     1       6.010   3.606  12.862  0.00  0.00    +0.000 C 
ATOM     17  O   UNL     1       6.450   3.409  14.200  0.00  0.00    +0.000 OA
ENDBRANCH  10  17
ENDBRANCH   1  13
BRANCH   5  18
ATOM     18  C   UNL     1       0.485   9.841  21.091  0.00  0.00    +0.000 A 
ATOM     19  C   UNL     1       0.822   9.172  22.250  0.00  0.00    +0.000 A 
ATOM     20  C   UNL     1      -0.016   9.523  23.349  0.00  0.00    +0.000 A 
ATOM     21  C   UNL     1      -0.959  10.460  22.997  0.00  0.00    +0.000 A 
ATOM     22  S   UNL     1      -0.786  10.957  21.372  0.00  0.00    +0.000 S 
ENDBRANCH   5  18
BRANCH   6  23
ATOM     23  N   UNL     1       0.636  11.816  18.622  0.00  0.00    +0.000 N 
ATOM     24  H   UNL     1       0.914  12.531  19.288  0.00  0.00    +0.000 HD
ATOM     25  H   UNL     1      -0.311  11.913  18.275  0.00  0.00    +0.000 HD
ENDBRANCH   6  23
BRANCH   3  26
ATOM     26  O   UNL     1       1.734   6.712  20.895  0.00  0.00    +0.000 OA
BRANCH  26  27
ATOM     27  C   UNL     1       0.826   5.629  20.669  0.00  0.00    +0.000 C 
BRANCH  27  28
ATOM     28  C   UNL     1       1.407   4.317  20.215  0.00  0.00    +0.000 A 
ATOM     29  C   UNL     1       1.051   3.677  19.029  0.00  0.00    +0.000 A 
ATOM     30  C   UNL     1       1.726   2.516  18.643  0.00  0.00    +0.000 A 
ATOM     31  C   UNL     1       2.753   1.995  19.437  0.00  0.00    +0.000 A 
ATOM     32  C   UNL     1       3.119   2.626  20.622  0.00  0.00    +0.000 A 
ATOM     33  C   UNL     1       2.466   3.799  20.987  0.00  0.00    +0.000 A 
BRANCH  32  34
ATOM     34  O   UNL     1       4.139   2.051  21.330  0.00  0.00    +0.000 OA
ATOM     35  C   UNL     1       5.025   1.233  20.567  0.00  0.00    +0.000 C 
ENDBRANCH  32  34
ENDBRANCH  27  28
ENDBRANCH  26  27
ENDBRANCH   3  26
TORSDOF 8
ENDMDL
MODEL 6
REMARK VINA RESULT:      -7.5      3.354      6.854
REMARK  Name = 
REMARK  10 active torsions:
REMARK  status: ('A' for Active; 'I' for Inactive)
REMARK    1  A    between atoms: C_1  and  O_2
REMARK    2  A    between atoms: O_2  and  C_3
REMARK    3  A    between atoms: C_6  and  C_7
REMARK    4  A    between atoms: C_9  and  O_10
REMARK    5  A    between atoms: O_10  and  C_11
REMARK    6  A    between atoms: C_11  and  C_12
REMARK    7  A    between atoms: C_16  and  O_17
REMARK    8  A    between atoms: O_17  and  C_18
REMARK    9  A    between atoms: C_21  and  C_22
REMARK   10  A    between atoms: C_27  and  N_28
REMARK                            x       y       z     vdW  Elec       q    Type
REMARK                         _______ _______ _______ _____ _____    ______ ____
ROOT
ATOM      1  C   UNL     1       3.849   6.550  17.344  0.00  0.00    +0.000 A 
ATOM      2  C   UNL     1       3.534   6.096  18.633  0.00  0.00    +0.000 A 
ATOM      3  C   UNL     1       2.644   6.730  19.523  0.00  0.00    +0.000 A 
ATOM      4  C   UNL     1       2.142   7.990  19.132  0.00  0.00    +0.000 A 
ATOM      5  C   UNL     1       1.311   9.021  19.685  0.00  0.00    +0.000 A 
ATOM      6  C   UNL     1       1.159   9.974  18.693  0.00  0.00    +0.000 A 
ATOM      7  O   UNL     1       1.853   9.625  17.585  0.00  0.00    +0.000 OA
ATOM      8  C   UNL     1       2.472   8.443  17.852  0.00  0.00    +0.000 A 
ATOM      9  C   UNL     1       3.295   7.767  16.935  0.00  0.00    +0.000 A 
ENDROOT
BRANCH   1  13
ATOM     10  C   UNL     1       6.146   4.072  14.663  0.00  0.00    +0.000 A 
ATOM     11  C   UNL     1       6.013   5.434  14.433  0.00  0.00    +0.000 A 
ATOM     12  C   UNL     1       5.342   6.233  15.356  0.00  0.00    +0.000 A 
ATOM     13  C   UNL     1       4.723   5.692  16.506  0.00  0.00    +0.000 A 
ATOM     14  C   UNL     1       4.888   4.319  16.731  0.00  0.00    +0.000 A 
ATOM     15  C   UNL     1       5.596   3.514  15.818  0.00  0.00    +0.000 A 
BRANCH  10  17
ATOM     16  C   UNL     1       6.115   3.383  12.411  0.00  0.00    +0.000 C 
ATOM     17  O   UNL     1       6.780   3.383  13.668  0.00  0.00    +0.000 OA
ENDBRANCH  10  17
ENDBRANCH   1  13
BRANCH   5  18
ATOM     18  C   UNL     1       0.710   9.125  21.056  0.00  0.00    +0.000 A 
ATOM     19  C   UNL     1      -0.638   9.037  21.336  0.00  0.00    +0.000 A 
ATOM     20  C   UNL     1      -0.923   9.221  22.721  0.00  0.00    +0.000 A 
ATOM     21  C   UNL     1       0.219   9.430  23.458  0.00  0.00    +0.000 A 
ATOM     22  S   UNL     1       1.624   9.337  22.491  0.00  0.00    +0.000 S 
ENDBRANCH   5  18
BRANCH   6  23
ATOM     23  N   UNL     1       0.528  11.157  18.634  0.00  0.00    +0.000 N 
ATOM     24  H   UNL     1       1.041  11.970  18.303  0.00  0.00    +0.000 HD
ATOM     25  H   UNL     1      -0.178  11.362  19.331  0.00  0.00    +0.000 HD
ENDBRANCH   6  23
BRANCH   3  26
ATOM     26  O   UNL     1       2.225   6.131  20.704  0.00  0.00    +0.000 OA
BRANCH  26  27
ATOM     27  C   UNL     1       1.367   5.002  20.505  0.00  0.00    +0.000 C 
BRANCH  27  28
ATOM     28  C   UNL     1       1.945   3.805  19.799  0.00  0.00    +0.000 A 
ATOM     29  C   UNL     1       1.405   3.249  18.640  0.00  0.00    +0.000 A 
ATOM     30  C   UNL     1       2.076   2.205  17.999  0.00  0.00    +0.000 A 
ATOM     31  C   UNL     1       3.282   1.716  18.512  0.00  0.00    +0.000 A 
ATOM     32  C   UNL     1       3.833   2.264  19.666  0.00  0.00    +0.000 A 
ATOM     33  C   UNL     1       3.178   3.324  20.284  0.00  0.00    +0.000 A 
BRANCH  32  34
ATOM     34  O   UNL     1       5.019   1.729  20.090  0.00  0.00    +0.000 OA
ATOM     35  C   UNL     1       5.016   1.218  21.421  0.00  0.00    +0.000 C 
ENDBRANCH  32  34
ENDBRANCH  27  28
ENDBRANCH  26  27
ENDBRANCH   3  26
TORSDOF 8
ENDMDL
MODEL 7
REMARK VINA RESULT:      -7.4      1.366      1.636
REMARK  Name = 
REMARK  10 active torsions:
REMARK  status: ('A' for Active; 'I' for Inactive)
REMARK    1  A    between atoms: C_1  and  O_2
REMARK    2  A    between atoms: O_2  and  C_3
REMARK    3  A    between atoms: C_6  and  C_7
REMARK    4  A    between atoms: C_9  and  O_10
REMARK    5  A    between atoms: O_10  and  C_11
REMARK    6  A    between atoms: C_11  and  C_12
REMARK    7  A    between atoms: C_16  and  O_17
REMARK    8  A    between atoms: O_17  and  C_18
REMARK    9  A    between atoms: C_21  and  C_22
REMARK   10  A    between atoms: C_27  and  N_28
REMARK                            x       y       z     vdW  Elec       q    Type
REMARK                         _______ _______ _______ _____ _____    ______ ____
ROOT
ATOM      1  C   UNL     1       2.289   7.832  18.784  0.00  0.00    +0.000 A 
ATOM      2  C   UNL     1       1.932   9.058  18.207  0.00  0.00    +0.000 A 
ATOM      3  C   UNL     1       1.258  10.104  18.872  0.00  0.00    +0.000 A 
ATOM      4  C   UNL     1       0.790   9.832  20.175  0.00  0.00    +0.000 A 
ATOM      5  C   UNL     1       0.023  10.498  21.188  0.00  0.00    +0.000 A 
ATOM      6  C   UNL     1       0.015   9.657  22.288  0.00  0.00    +0.000 A 
ATOM      7  O   UNL     1       0.691   8.516  22.021  0.00  0.00    +0.000 OA
ATOM      8  C   UNL     1       1.137   8.602  20.738  0.00  0.00    +0.000 A 
ATOM      9  C   UNL     1       1.881   7.594  20.100  0.00  0.00    +0.000 A 
ENDROOT
BRANCH   1  13
ATOM     10  C   UNL     1       4.769   4.987  16.695  0.00  0.00    +0.000 A 
ATOM     11  C   UNL     1       3.668   4.567  17.426  0.00  0.00    +0.000 A 
ATOM     12  C   UNL     1       2.827   5.506  18.021  0.00  0.00    +0.000 A 
ATOM     13  C   UNL     1       3.094   6.892  17.964  0.00  0.00    +0.000 A 
ATOM     14  C   UNL     1       4.198   7.298  17.202  0.00  0.00    +0.000 A 
ATOM     15  C   UNL     1       5.029   6.353  16.570  0.00  0.00    +0.000 A 
BRANCH  10  17
ATOM     16  C   UNL     1       6.922   4.296  16.037  0.00  0.00    +0.000 C 
ATOM     17  O   UNL     1       5.545   3.979  16.198  0.00  0.00    +0.000 OA
ENDBRANCH  10  17
ENDBRANCH   1  13
BRANCH   5  18
ATOM     18  C   UNL     1      -0.675  11.825  21.134  0.00  0.00    +0.000 A 
ATOM     19  C   UNL     1      -0.375  12.909  21.933  0.00  0.00    +0.000 A 
ATOM     20  C   UNL     1      -1.234  14.021  21.695  0.00  0.00    +0.000 A 
ATOM     21  C   UNL     1      -2.158  13.756  20.711  0.00  0.00    +0.000 A 
ATOM     22  S   UNL     1      -1.939  12.201  20.038  0.00  0.00    +0.000 S 
ENDBRANCH   5  18
BRANCH   6  23
ATOM     23  N   UNL     1      -0.557   9.724  23.499  0.00  0.00    +0.000 N 
ATOM     24  H   UNL     1      -1.298  10.401  23.656  0.00  0.00    +0.000 HD
ATOM     25  H   UNL     1       0.015   9.534  24.314  0.00  0.00    +0.000 HD
ENDBRANCH   6  23
BRANCH   3  26
ATOM     26  O   UNL     1       1.106  11.364  18.306  0.00  0.00    +0.000 OA
BRANCH  26  27
ATOM     27  C   UNL     1       2.339  12.073  18.141  0.00  0.00    +0.000 C 
BRANCH  27  28
ATOM     28  C   UNL     1       2.325  13.558  18.387  0.00  0.00    +0.000 A 
ATOM     29  C   UNL     1       1.212  14.260  18.848  0.00  0.00    +0.000 A 
ATOM     30  C   UNL     1       1.331  15.619  19.149  0.00  0.00    +0.000 A 
ATOM     31  C   UNL     1       2.555  16.277  18.989  0.00  0.00    +0.000 A 
ATOM     32  C   UNL     1       3.674  15.588  18.532  0.00  0.00    +0.000 A 
ATOM     33  C   UNL     1       3.559  14.227  18.264  0.00  0.00    +0.000 A 
BRANCH  32  34
ATOM     34  O   UNL     1       4.830  16.309  18.416  0.00  0.00    +0.000 OA
ATOM     35  C   UNL     1       5.171  17.102  19.551  0.00  0.00    +0.000 C 
ENDBRANCH  32  34
ENDBRANCH  27  28
ENDBRANCH  26  27
ENDBRANCH   3  26
TORSDOF 8
ENDMDL
MODEL 8
REMARK VINA RESULT:      -7.3      1.205      1.825
REMARK  Name = 
REMARK  10 active torsions:
REMARK  status: ('A' for Active; 'I' for Inactive)
REMARK    1  A    between atoms: C_1  and  O_2
REMARK    2  A    between atoms: O_2  and  C_3
REMARK    3  A    between atoms: C_6  and  C_7
REMARK    4  A    between atoms: C_9  and  O_10
REMARK    5  A    between atoms: O_10  and  C_11
REMARK    6  A    between atoms: C_11  and  C_12
REMARK    7  A    between atoms: C_16  and  O_17
REMARK    8  A    between atoms: O_17  and  C_18
REMARK    9  A    between atoms: C_21  and  C_22
REMARK   10  A    between atoms: C_27  and  N_28
REMARK                            x       y       z     vdW  Elec       q    Type
REMARK                         _______ _______ _______ _____ _____    ______ ____
ROOT
ATOM      1  C   UNL     1       2.255   7.804  18.768  0.00  0.00    +0.000 A 
ATOM      2  C   UNL     1       1.890   9.028  18.191  0.00  0.00    +0.000 A 
ATOM      3  C   UNL     1       1.191  10.061  18.851  0.00  0.00    +0.000 A 
ATOM      4  C   UNL     1       0.708   9.776  20.146  0.00  0.00    +0.000 A 
ATOM      5  C   UNL     1      -0.083  10.426  21.151  0.00  0.00    +0.000 A 
ATOM      6  C   UNL     1      -0.096   9.579  22.246  0.00  0.00    +0.000 A 
ATOM      7  O   UNL     1       0.600   8.449  21.984  0.00  0.00    +0.000 OA
ATOM      8  C   UNL     1       1.064   8.548  20.708  0.00  0.00    +0.000 A 
ATOM      9  C   UNL     1       1.831   7.554  20.077  0.00  0.00    +0.000 A 
ENDROOT
BRANCH   1  13
ATOM     10  C   UNL     1       4.829   5.029  16.698  0.00  0.00    +0.000 A 
ATOM     11  C   UNL     1       3.792   4.574  17.499  0.00  0.00    +0.000 A 
ATOM     12  C   UNL     1       2.917   5.484  18.089  0.00  0.00    +0.000 A 
ATOM     13  C   UNL     1       3.085   6.880  17.955  0.00  0.00    +0.000 A 
ATOM     14  C   UNL     1       4.124   7.319  17.123  0.00  0.00    +0.000 A 
ATOM     15  C   UNL     1       4.989   6.401  16.497  0.00  0.00    +0.000 A 
BRANCH  10  17
ATOM     16  C   UNL     1       7.022   4.408  16.105  0.00  0.00    +0.000 C 
ATOM     17  O   UNL     1       5.649   4.051  16.213  0.00  0.00    +0.000 OA
ENDBRANCH  10  17
ENDBRANCH   1  13
BRANCH   5  18
ATOM     18  C   UNL     1      -0.799  11.744  21.094  0.00  0.00    +0.000 A 
ATOM     19  C   UNL     1      -0.583  12.798  21.956  0.00  0.00    +0.000 A 
ATOM     20  C   UNL     1      -1.441  13.906  21.693  0.00  0.00    +0.000 A 
ATOM     21  C   UNL     1      -2.278  13.667  20.628  0.00  0.00    +0.000 A 
ATOM     22  S   UNL     1      -1.978  12.144  19.914  0.00  0.00    +0.000 S 
ENDBRANCH   5  18
BRANCH   6  23
ATOM     23  N   UNL     1      -0.687   9.631  23.450  0.00  0.00    +0.000 N 
ATOM     24  H   UNL     1      -1.127   8.792  23.817  0.00  0.00    +0.000 HD
ATOM     25  H   UNL     1      -1.134  10.496  23.731  0.00  0.00    +0.000 HD
ENDBRANCH   6  23
BRANCH   3  26
ATOM     26  O   UNL     1       1.030  11.322  18.290  0.00  0.00    +0.000 OA
BRANCH  26  27
ATOM     27  C   UNL     1       2.247  12.072  18.201  0.00  0.00    +0.000 C 
BRANCH  27  28
ATOM     28  C   UNL     1       2.357  13.319  19.036  0.00  0.00    +0.000 A 
ATOM     29  C   UNL     1       2.502  13.317  20.423  0.00  0.00    +0.000 A 
ATOM     30  C   UNL     1       2.706  14.524  21.096  0.00  0.00    +0.000 A 
ATOM     31  C   UNL     1       2.763  15.730  20.390  0.00  0.00    +0.000 A 
ATOM     32  C   UNL     1       2.622  15.746  19.005  0.00  0.00    +0.000 A 
ATOM     33  C   UNL     1       2.452  14.538  18.335  0.00  0.00    +0.000 A 
BRANCH  32  34
ATOM     34  O   UNL     1       2.701  16.968  18.397  0.00  0.00    +0.000 OA
ATOM     35  C   UNL     1       2.958  16.937  16.995  0.00  0.00    +0.000 C 
ENDBRANCH  32  34
ENDBRANCH  27  28
ENDBRANCH  26  27
ENDBRANCH   3  26
TORSDOF 8
ENDMDL
MODEL 9
REMARK VINA RESULT:      -7.2      1.313      1.461
REMARK  Name = 
REMARK  10 active torsions:
REMARK  status: ('A' for Active; 'I' for Inactive)
REMARK    1  A    between atoms: C_1  and  O_2
REMARK    2  A    between atoms: O_2  and  C_3
REMARK    3  A    between atoms: C_6  and  C_7
REMARK    4  A    between atoms: C_9  and  O_10
REMARK    5  A    between atoms: O_10  and  C_11
REMARK    6  A    between atoms: C_11  and  C_12
REMARK    7  A    between atoms: C_16  and  O_17
REMARK    8  A    between atoms: O_17  and  C_18
REMARK    9  A    between atoms: C_21  and  C_22
REMARK   10  A    between atoms: C_27  and  N_28
REMARK                            x       y       z     vdW  Elec       q    Type
REMARK                         _______ _______ _______ _____ _____    ______ ____
ROOT
ATOM      1  C   UNL     1       2.424   7.643  18.902  0.00  0.00    +0.000 A 
ATOM      2  C   UNL     1       2.041   8.844  18.289  0.00  0.00    +0.000 A 
ATOM      3  C   UNL     1       1.307   9.876  18.911  0.00  0.00    +0.000 A 
ATOM      4  C   UNL     1       0.807   9.612  20.203  0.00  0.00    +0.000 A 
ATOM      5  C   UNL     1      -0.018  10.267  21.178  0.00  0.00    +0.000 A 
ATOM      6  C   UNL     1      -0.032   9.447  22.292  0.00  0.00    +0.000 A 
ATOM      7  O   UNL     1       0.695   8.327  22.071  0.00  0.00    +0.000 OA
ATOM      8  C   UNL     1       1.180   8.406  20.802  0.00  0.00    +0.000 A 
ATOM      9  C   UNL     1       1.982   7.415  20.209  0.00  0.00    +0.000 A 
ENDROOT
BRANCH   1  13
ATOM     10  C   UNL     1       4.776   5.065  16.367  0.00  0.00    +0.000 A 
ATOM     11  C   UNL     1       4.985   6.436  16.375  0.00  0.00    +0.000 A 
ATOM     12  C   UNL     1       4.278   7.243  17.263  0.00  0.00    +0.000 A 
ATOM     13  C   UNL     1       3.291   6.720  18.127  0.00  0.00    +0.000 A 
ATOM     14  C   UNL     1       3.110   5.330  18.121  0.00  0.00    +0.000 A 
ATOM     15  C   UNL     1       3.849   4.507  17.248  0.00  0.00    +0.000 A 
BRANCH  10  17
ATOM     16  C   UNL     1       6.776   4.913  15.133  0.00  0.00    +0.000 C 
ATOM     17  O   UNL     1       5.489   4.382  15.423  0.00  0.00    +0.000 OA
ENDBRANCH  10  17
ENDBRANCH   1  13
BRANCH   5  18
ATOM     18  C   UNL     1      -0.763  11.565  21.074  0.00  0.00    +0.000 A 
ATOM     19  C   UNL     1      -0.717  12.578  22.009  0.00  0.00    +0.000 A 
ATOM     20  C   UNL     1      -1.564  13.675  21.672  0.00  0.00    +0.000 A 
ATOM     21  C   UNL     1      -2.221  13.469  20.481  0.00  0.00    +0.000 A 
ATOM     22  S   UNL     1      -1.763  11.995  19.749  0.00  0.00    +0.000 S 
ENDBRANCH   5  18
BRANCH   6  23
ATOM     23  N   UNL     1      -0.645   9.514  23.484  0.00  0.00    +0.000 N 
ATOM     24  H   UNL     1      -1.471   8.944  23.643  0.00  0.00    +0.000 HD
ATOM     25  H   UNL     1      -0.647  10.399  23.977  0.00  0.00    +0.000 HD
ENDBRANCH   6  23
BRANCH   3  26
ATOM     26  O   UNL     1       1.128  11.119  18.316  0.00  0.00    +0.000 OA
BRANCH  26  27
ATOM     27  C   UNL     1       2.351  11.823  18.073  0.00  0.00    +0.000 C 
BRANCH  27  28
ATOM     28  C   UNL     1       2.575  13.107  18.827  0.00  0.00    +0.000 A 
ATOM     29  C   UNL     1       2.236  13.292  20.167  0.00  0.00    +0.000 A 
ATOM     30  C   UNL     1       2.583  14.485  20.806  0.00  0.00    +0.000 A 
ATOM     31  C   UNL     1       3.264  15.490  20.112  0.00  0.00    +0.000 A 
ATOM     32  C   UNL     1       3.610  15.317  18.775  0.00  0.00    +0.000 A 
ATOM     33  C   UNL     1       3.291  14.115  18.151  0.00  0.00    +0.000 A 
BRANCH  32  34
ATOM     34  O   UNL     1       4.283  16.348  18.180  0.00  0.00    +0.000 OA
ATOM     35  C   UNL     1       5.426  16.821  18.889  0.00  0.00    +0.000 C 
ENDBRANCH  32  34
ENDBRANCH  27  28
ENDBRANCH  26  27
ENDBRANCH   3  26
TORSDOF 8
ENDMDL
