MODEL 1
REMARK VINA RESULT:      -7.5      0.000      0.000
REMARK  Name = 
REMARK  7 active torsions:
REMARK  status: ('A' for Active; 'I' for Inactive)
REMARK    1  A    between atoms: C_1  and  C_2
REMARK    2  A    between atoms: C_2  and  C_3
REMARK    3  A    between atoms: C_2  and  O_4
REMARK    4  A    between atoms: O_4  and  C_5
REMARK    5  A    between atoms: C_8  and  C_9
REMARK    6  A    between atoms: C_9  and  C_10
REMARK    7  A    between atoms: C_13  and  N_14
REMARK                            x       y       z     vdW  Elec       q    Type
REMARK                         _______ _______ _______ _____ _____    ______ ____
ROOT
ATOM      1  C   UNL     1       1.091   9.485  18.910  0.00  0.00    +0.000 A 
ATOM      2  C   UNL     1       1.798   8.811  17.908  0.00  0.00    +0.000 A 
ATOM      3  C   UNL     1       2.475   7.617  18.194  0.00  0.00    +0.000 A 
ATOM      4  C   UNL     1       2.475   7.074  19.486  0.00  0.00    +0.000 A 
ATOM      5  C   UNL     1       1.693   7.711  20.458  0.00  0.00    +0.000 A 
ATOM      6  C   UNL     1       1.016   8.902  20.177  0.00  0.00    +0.000 A 
ENDROOT
BRANCH   4   7
ATOM      7  N   UNL     1       3.223   5.906  19.752  0.00  0.00    +0.000 N 
ATOM      8  C   UNL     1       2.767   4.627  19.631  0.00  0.00    +0.000 C 
ATOM      9  N   UNL     1       1.611   4.190  19.222  0.00  0.00    +0.000 NA
ATOM     10  C   UNL     1       1.697   2.715  19.348  0.00  0.00    +0.000 C 
ATOM     11  C   UNL     1       3.182   2.403  19.515  0.00  0.00    +0.000 C 
ATOM     12  N   UNL     1       3.690   3.677  19.987  0.00  0.00    +0.000 N 
ATOM     13  H   UNL     1       3.907   6.026  20.485  0.00  0.00    +0.000 HD
ATOM     14  H   UNL     1       4.637   3.887  19.698  0.00  0.00    +0.000 HD
ENDBRANCH   4   7
BRANCH   1  15
ATOM     15  C   UNL     1       0.476  10.839  18.649  0.00  0.00    +0.000 C 
BRANCH  15  19
ATOM     16  C   UNL     1      -3.778  11.018  17.856  0.00  0.00    +0.000 A 
ATOM     17  C   UNL     1      -3.195  11.851  18.805  0.00  0.00    +0.000 A 
ATOM     18  C   UNL     1      -1.825  11.771  19.076  0.00  0.00    +0.000 A 
ATOM     19  C   UNL     1      -1.014  10.850  18.408  0.00  0.00    +0.000 A 
ATOM     20  C   UNL     1      -1.606   9.979  17.485  0.00  0.00    +0.000 A 
ATOM     21  C   UNL     1      -2.978  10.067  17.211  0.00  0.00    +0.000 A 
BRANCH  16  22
ATOM     22  O   UNL     1      -5.091  11.029  17.472  0.00  0.00    +0.000 OA
BRANCH  22  24
ATOM     23  C   UNL     1      -7.083  12.328  17.726  0.00  0.00    +0.000 C 
ATOM     24  C   UNL     1      -6.082  11.418  18.435  0.00  0.00    +0.000 C 
ATOM     25  C   UNL     1      -6.790  10.179  18.975  0.00  0.00    +0.000 C 
ENDBRANCH  22  24
ENDBRANCH  16  22
ENDBRANCH  15  19
ENDBRANCH   1  15
TORSDOF 5
ENDMDL
MODEL 2
REMARK VINA RESULT:      -7.4      4.770      9.279
REMARK  Name = 
REMARK  7 active torsions:
REMARK  status: ('A' for Active; 'I' for Inactive)
REMARK    1  A    between atoms: C_1  and  C_2
REMARK    2  A    between atoms: C_2  and  C_3
REMARK    3  A    between atoms: C_2  and  O_4
REMARK    4  A    between atoms: O_4  and  C_5
REMARK    5  A    between atoms: C_8  and  C_9
REMARK    6  A    between atoms: C_9  and  C_10
REMARK    7  A    between atoms: C_13  and  N_14
REMARK                            x       y       z     vdW  Elec       q    Type
REMARK                         _______ _______ _______ _____ _____    ______ ____
ROOT
ATOM      1  C   UNL     1       2.428   7.161  19.384  0.00  0.00    +0.000 A 
ATOM      2  C   UNL     1       2.454   7.659  18.077  0.00  0.00    +0.000 A 
ATOM      3  C   UNL     1       1.734   8.814  17.740  0.00  0.00    +0.000 A 
ATOM      4  C   UNL     1       0.961   9.492  18.693  0.00  0.00    +0.000 A 
ATOM      5  C   UNL     1       1.012   9.033  20.016  0.00  0.00    +0.000 A 
ATOM      6  C   UNL     1       1.729   7.882  20.356  0.00  0.00    +0.000 A 
ENDROOT
BRANCH   4   7
ATOM      7  N   UNL     1       0.195  10.612  18.302  0.00  0.00    +0.000 N 
ATOM      8  C   UNL     1      -1.128  10.594  17.974  0.00  0.00    +0.000 C 
ATOM      9  N   UNL     1      -1.975   9.605  17.982  0.00  0.00    +0.000 NA
ATOM     10  C   UNL     1      -3.245  10.190  17.492  0.00  0.00    +0.000 C 
ATOM     11  C   UNL     1      -3.065  11.703  17.586  0.00  0.00    +0.000 C 
ATOM     12  N   UNL     1      -1.619  11.817  17.596  0.00  0.00    +0.000 N 
ATOM     13  H   UNL     1       0.729  11.307  17.800  0.00  0.00    +0.000 HD
ATOM     14  H   UNL     1      -1.260  12.595  18.135  0.00  0.00    +0.000 HD
ENDBRANCH   4   7
BRANCH   1  15
ATOM     15  C   UNL     1       3.084   5.846  19.726  0.00  0.00    +0.000 C 
BRANCH  15  19
ATOM     16  C   UNL     1       5.336   4.133  16.447  0.00  0.00    +0.000 A 
ATOM     17  C   UNL     1       4.007   3.781  16.658  0.00  0.00    +0.000 A 
ATOM     18  C   UNL     1       3.292   4.317  17.734  0.00  0.00    +0.000 A 
ATOM     19  C   UNL     1       3.896   5.210  18.624  0.00  0.00    +0.000 A 
ATOM     20  C   UNL     1       5.247   5.530  18.440  0.00  0.00    +0.000 A 
ATOM     21  C   UNL     1       5.958   4.997  17.357  0.00  0.00    +0.000 A 
BRANCH  16  22
ATOM     22  O   UNL     1       6.127   3.712  15.412  0.00  0.00    +0.000 OA
BRANCH  22  24
ATOM     23  C   UNL     1       7.416   5.050  13.906  0.00  0.00    +0.000 C 
ATOM     24  C   UNL     1       6.050   4.417  14.164  0.00  0.00    +0.000 C 
ATOM     25  C   UNL     1       5.703   3.442  13.042  0.00  0.00    +0.000 C 
ENDBRANCH  22  24
ENDBRANCH  16  22
ENDBRANCH  15  19
ENDBRANCH   1  15
TORSDOF 5
ENDMDL
MODEL 3
REMARK VINA RESULT:      -7.3      0.398      1.078
REMARK  Name = 
REMARK  7 active torsions:
REMARK  status: ('A' for Active; 'I' for Inactive)
REMARK    1  A    between atoms: C_1  and  C_2
REMARK    2  A    between atoms: C_2  and  C_3
REMARK    3  A    between atoms: C_2  and  O_4
REMARK    4  A    between atoms: O_4  and  C_5
REMARK    5  A    between atoms: C_8  and  C_9
REMARK    6  A    between atoms: C_9  and  C_10
REMARK    7  A    between atoms: C_13  and  N_14
REMARK                            x       y       z     vdW  Elec       q    Type
REMARK                         _______ _______ _______ _____ _____    ______ ____
ROOT
ATOM      1  C   UNL     1       1.065   9.503  18.915  0.00  0.00    +0.000 A 
ATOM      2  C   UNL     1       1.791   8.821  17.931  0.00  0.00    +0.000 A 
ATOM      3  C   UNL     1       2.442   7.617  18.232  0.00  0.00    +0.000 A 
ATOM      4  C   UNL     1       2.398   7.070  19.522  0.00  0.00    +0.000 A 
ATOM      5  C   UNL     1       1.599   7.716  20.474  0.00  0.00    +0.000 A 
ATOM      6  C   UNL     1       0.947   8.917  20.178  0.00  0.00    +0.000 A 
ENDROOT
BRANCH   4   7
ATOM      7  N   UNL     1       3.122   5.891  19.805  0.00  0.00    +0.000 N 
ATOM      8  C   UNL     1       2.713   4.621  19.521  0.00  0.00    +0.000 C 
ATOM      9  N   UNL     1       1.638   4.209  18.913  0.00  0.00    +0.000 NA
ATOM     10  C   UNL     1       1.733   2.730  18.937  0.00  0.00    +0.000 C 
ATOM     11  C   UNL     1       3.183   2.416  19.297  0.00  0.00    +0.000 C 
ATOM     12  N   UNL     1       3.592   3.654  19.934  0.00  0.00    +0.000 N 
ATOM     13  H   UNL     1       3.688   5.958  20.637  0.00  0.00    +0.000 HD
ATOM     14  H   UNL     1       4.567   3.893  19.805  0.00  0.00    +0.000 HD
ENDBRANCH   4   7
BRANCH   1  15
ATOM     15  C   UNL     1       0.478  10.865  18.641  0.00  0.00    +0.000 C 
BRANCH  15  19
ATOM     16  C   UNL     1      -3.780  10.804  17.852  0.00  0.00    +0.000 A 
ATOM     17  C   UNL     1      -2.916   9.958  17.164  0.00  0.00    +0.000 A 
ATOM     18  C   UNL     1      -1.539  10.000  17.404  0.00  0.00    +0.000 A 
ATOM     19  C   UNL     1      -0.998  10.896  18.331  0.00  0.00    +0.000 A 
ATOM     20  C   UNL     1      -1.861  11.779  18.992  0.00  0.00    +0.000 A 
ATOM     21  C   UNL     1      -3.241  11.729  18.755  0.00  0.00    +0.000 A 
BRANCH  16  22
ATOM     22  O   UNL     1      -5.144  10.829  17.739  0.00  0.00    +0.000 OA
BRANCH  22  24
ATOM     23  C   UNL     1      -6.391  12.778  17.136  0.00  0.00    +0.000 C 
ATOM     24  C   UNL     1      -5.856  11.942  18.298  0.00  0.00    +0.000 C 
ATOM     25  C   UNL     1      -7.010  11.436  19.158  0.00  0.00    +0.000 C 
ENDBRANCH  22  24
ENDBRANCH  16  22
ENDBRANCH  15  19
ENDBRANCH   1  15
TORSDOF 5
ENDMDL
MODEL 4
REMARK VINA RESULT:      -7.2      0.669      1.561
REMARK  Name = 
REMARK  7 active torsions:
REMARK  status: ('A' for Active; 'I' for Inactive)
REMARK    1  A    between atoms: C_1  and  C_2
REMARK    2  A    between atoms: C_2  and  C_3
REMARK    3  A    between atoms: C_2  and  O_4
REMARK    4  A    between atoms: O_4  and  C_5
REMARK    5  A    between atoms: C_8  and  C_9
REMARK    6  A    between atoms: C_9  and  C_10
REMARK    7  A    between atoms: C_13  and  N_14
REMARK                            x       y       z     vdW  Elec       q    Type
REMARK                         _______ _______ _______ _____ _____    ______ ____
ROOT
ATOM      1  C   UNL     1       1.003   9.974  19.143  0.00  0.00    +0.000 A 
ATOM      2  C   UNL     1       0.838   9.408  20.412  0.00  0.00    +0.000 A 
ATOM      3  C   UNL     1       1.398   8.159  20.714  0.00  0.00    +0.000 A 
ATOM      4  C   UNL     1       2.123   7.437  19.755  0.00  0.00    +0.000 A 
ATOM      5  C   UNL     1       2.353   8.052  18.517  0.00  0.00    +0.000 A 
ATOM      6  C   UNL     1       1.798   9.298  18.213  0.00  0.00    +0.000 A 
ENDROOT
BRANCH   4   7
ATOM      7  N   UNL     1       2.614   6.152  20.073  0.00  0.00    +0.000 N 
ATOM      8  C   UNL     1       2.469   5.034  19.307  0.00  0.00    +0.000 C 
ATOM      9  N   UNL     1       1.911   4.893  18.138  0.00  0.00    +0.000 NA
ATOM     10  C   UNL     1       2.027   3.446  17.837  0.00  0.00    +0.000 C 
ATOM     11  C   UNL     1       3.057   2.901  18.822  0.00  0.00    +0.000 C 
ATOM     12  N   UNL     1       3.012   3.907  19.866  0.00  0.00    +0.000 N 
ATOM     13  H   UNL     1       2.634   5.965  21.065  0.00  0.00    +0.000 HD
ATOM     14  H   UNL     1       3.892   4.061  20.342  0.00  0.00    +0.000 HD
ENDBRANCH   4   7
BRANCH   1  15
ATOM     15  C   UNL     1       0.291  11.250  18.764  0.00  0.00    +0.000 C 
BRANCH  15  19
ATOM     16  C   UNL     1      -3.887  10.691  17.771  0.00  0.00    +0.000 A 
ATOM     17  C   UNL     1      -2.907   9.877  17.212  0.00  0.00    +0.000 A 
ATOM     18  C   UNL     1      -1.557  10.078  17.516  0.00  0.00    +0.000 A 
ATOM     19  C   UNL     1      -1.160  11.104  18.379  0.00  0.00    +0.000 A 
ATOM     20  C   UNL     1      -2.141  11.953  18.907  0.00  0.00    +0.000 A 
ATOM     21  C   UNL     1      -3.493  11.744  18.606  0.00  0.00    +0.000 A 
BRANCH  16  22
ATOM     22  O   UNL     1      -5.238  10.569  17.587  0.00  0.00    +0.000 OA
BRANCH  22  24
ATOM     23  C   UNL     1      -7.070  12.056  17.972  0.00  0.00    +0.000 C 
ATOM     24  C   UNL     1      -6.114  11.054  18.615  0.00  0.00    +0.000 C 
ATOM     25  C   UNL     1      -6.897   9.891  19.216  0.00  0.00    +0.000 C 
ENDBRANCH  22  24
ENDBRANCH  16  22
ENDBRANCH  15  19
ENDBRANCH   1  15
TORSDOF 5
ENDMDL
MODEL 5
REMARK VINA RESULT:      -7.2      4.362      8.743
REMARK  Name = 
REMARK  7 active torsions:
REMARK  status: ('A' for Active; 'I' for Inactive)
REMARK    1  A    between atoms: C_1  and  C_2
REMARK    2  A    between atoms: C_2  and  C_3
REMARK    3  A    between atoms: C_2  and  O_4
REMARK    4  A    between atoms: O_4  and  C_5
REMARK    5  A    between atoms: C_8  and  C_9
REMARK    6  A    between atoms: C_9  and  C_10
REMARK    7  A    between atoms: C_13  and  N_14
REMARK                            x       y       z     vdW  Elec       q    Type
REMARK                         _______ _______ _______ _____ _____    ______ ____
ROOT
ATOM      1  C   UNL     1       0.032  10.577  18.284  0.00  0.00    +0.000 A 
ATOM      2  C   UNL     1      -0.489  11.819  18.666  0.00  0.00    +0.000 A 
ATOM      3  C   UNL     1      -1.771  12.210  18.257  0.00  0.00    +0.000 A 
ATOM      4  C   UNL     1      -2.559  11.381  17.446  0.00  0.00    +0.000 A 
ATOM      5  C   UNL     1      -2.061  10.107  17.143  0.00  0.00    +0.000 A 
ATOM      6  C   UNL     1      -0.783   9.713  17.550  0.00  0.00    +0.000 A 
ENDROOT
BRANCH   4   7
ATOM      7  N   UNL     1      -3.818  11.836  16.998  0.00  0.00    +0.000 N 
ATOM      8  C   UNL     1      -5.009  11.623  17.627  0.00  0.00    +0.000 C 
ATOM      9  N   UNL     1      -5.260  11.022  18.754  0.00  0.00    +0.000 NA
ATOM     10  C   UNL     1      -6.735  11.074  18.891  0.00  0.00    +0.000 C 
ATOM     11  C   UNL     1      -7.206  12.117  17.880  0.00  0.00    +0.000 C 
ATOM     12  N   UNL     1      -6.087  12.144  16.958  0.00  0.00    +0.000 N 
ATOM     13  H   UNL     1      -3.893  11.883  15.992  0.00  0.00    +0.000 HD
ATOM     14  H   UNL     1      -5.915  13.044  16.529  0.00  0.00    +0.000 HD
ENDBRANCH   4   7
BRANCH   1  15
ATOM     15  C   UNL     1       1.460  10.205  18.602  0.00  0.00    +0.000 C 
BRANCH  15  19
ATOM     16  C   UNL     1       2.292   6.137  19.833  0.00  0.00    +0.000 A 
ATOM     17  C   UNL     1       2.568   6.559  18.537  0.00  0.00    +0.000 A 
ATOM     18  C   UNL     1       2.273   7.867  18.137  0.00  0.00    +0.000 A 
ATOM     19  C   UNL     1       1.689   8.775  19.024  0.00  0.00    +0.000 A 
ATOM     20  C   UNL     1       1.368   8.338  20.316  0.00  0.00    +0.000 A 
ATOM     21  C   UNL     1       1.672   7.030  20.716  0.00  0.00    +0.000 A 
BRANCH  16  22
ATOM     22  O   UNL     1       2.571   4.903  20.356  0.00  0.00    +0.000 OA
BRANCH  22  24
ATOM     23  C   UNL     1       3.502   2.832  19.608  0.00  0.00    +0.000 C 
ATOM     24  C   UNL     1       2.277   3.743  19.564  0.00  0.00    +0.000 C 
ATOM     25  C   UNL     1       1.063   3.020  20.141  0.00  0.00    +0.000 C 
ENDBRANCH  22  24
ENDBRANCH  16  22
ENDBRANCH  15  19
ENDBRANCH   1  15
TORSDOF 5
ENDMDL
MODEL 6
REMARK VINA RESULT:      -7.1      0.698      1.075
REMARK  Name = 
REMARK  7 active torsions:
REMARK  status: ('A' for Active; 'I' for Inactive)
REMARK    1  A    between atoms: C_1  and  C_2
REMARK    2  A    between atoms: C_2  and  C_3
REMARK    3  A    between atoms: C_2  and  O_4
REMARK    4  A    between atoms: O_4  and  C_5
REMARK    5  A    between atoms: C_8  and  C_9
REMARK    6  A    between atoms: C_9  and  C_10
REMARK    7  A    between atoms: C_13  and  N_14
REMARK                            x       y       z     vdW  Elec       q    Type
REMARK                         _______ _______ _______ _____ _____    ______ ____
ROOT
ATOM      1  C   UNL     1       1.284   9.496  18.903  0.00  0.00    +0.000 A 
ATOM      2  C   UNL     1       1.957   8.714  17.957  0.00  0.00    +0.000 A 
ATOM      3  C   UNL     1       2.488   7.466  18.312  0.00  0.00    +0.000 A 
ATOM      4  C   UNL     1       2.374   6.974  19.620  0.00  0.00    +0.000 A 
ATOM      5  C   UNL     1       1.625   7.727  20.534  0.00  0.00    +0.000 A 
ATOM      6  C   UNL     1       1.093   8.971  20.184  0.00  0.00    +0.000 A 
ENDROOT
BRANCH   4   7
ATOM      7  N   UNL     1       2.980   5.744  19.957  0.00  0.00    +0.000 N 
ATOM      8  C   UNL     1       2.496   4.509  19.644  0.00  0.00    +0.000 C 
ATOM      9  N   UNL     1       1.441   4.177  18.957  0.00  0.00    +0.000 NA
ATOM     10  C   UNL     1       1.417   2.695  18.989  0.00  0.00    +0.000 C 
ATOM     11  C   UNL     1       2.807   2.272  19.457  0.00  0.00    +0.000 C 
ATOM     12  N   UNL     1       3.263   3.478  20.123  0.00  0.00    +0.000 N 
ATOM     13  H   UNL     1       3.486   5.772  20.830  0.00  0.00    +0.000 HD
ATOM     14  H   UNL     1       4.260   3.640  20.067  0.00  0.00    +0.000 HD
ENDBRANCH   4   7
BRANCH   1  15
ATOM     15  C   UNL     1       0.831  10.897  18.571  0.00  0.00    +0.000 C 
BRANCH  15  19
ATOM     16  C   UNL     1      -3.377  11.839  18.976  0.00  0.00    +0.000 A 
ATOM     17  C   UNL     1      -2.442  12.357  19.866  0.00  0.00    +0.000 A 
ATOM     18  C   UNL     1      -1.088  12.029  19.746  0.00  0.00    +0.000 A 
ATOM     19  C   UNL     1      -0.644  11.169  18.738  0.00  0.00    +0.000 A 
ATOM     20  C   UNL     1      -1.589  10.610  17.868  0.00  0.00    +0.000 A 
ATOM     21  C   UNL     1      -2.944  10.947  17.987  0.00  0.00    +0.000 A 
BRANCH  16  22
ATOM     22  O   UNL     1      -4.717  12.117  18.961  0.00  0.00    +0.000 OA
BRANCH  22  24
ATOM     23  C   UNL     1      -6.557  10.649  18.539  0.00  0.00    +0.000 C 
ATOM     24  C   UNL     1      -5.517  11.569  17.903  0.00  0.00    +0.000 C 
ATOM     25  C   UNL     1      -6.208  12.697  17.142  0.00  0.00    +0.000 C 
ENDBRANCH  22  24
ENDBRANCH  16  22
ENDBRANCH  15  19
ENDBRANCH   1  15
TORSDOF 5
ENDMDL
MODEL 7
REMARK VINA RESULT:      -7.1      4.355      8.568
REMARK  Name = 
REMARK  7 active torsions:
REMARK  status: ('A' for Active; 'I' for Inactive)
REMARK    1  A    between atoms: C_1  and  C_2
REMARK    2  A    between atoms: C_2  and  C_3
REMARK    3  A    between atoms: C_2  and  O_4
REMARK    4  A    between atoms: O_4  and  C_5
REMARK    5  A    between atoms: C_8  and  C_9
REMARK    6  A    between atoms: C_9  and  C_10
REMARK    7  A    between atoms: C_13  and  N_14
REMARK                            x       y       z     vdW  Elec       q    Type
REMARK                         _______ _______ _______ _____ _____    ______ ____
ROOT
ATOM      1  C   UNL     1       0.082  10.746  18.635  0.00  0.00    +0.000 A 
ATOM      2  C   UNL     1      -0.704   9.796  17.973  0.00  0.00    +0.000 A 
ATOM      3  C   UNL     1      -1.938  10.157  17.413  0.00  0.00    +0.000 A 
ATOM      4  C   UNL     1      -2.424  11.468  17.512  0.00  0.00    +0.000 A 
ATOM      5  C   UNL     1      -1.590  12.427  18.101  0.00  0.00    +0.000 A 
ATOM      6  C   UNL     1      -0.359  12.072  18.660  0.00  0.00    +0.000 A 
ENDROOT
BRANCH   4   7
ATOM      7  N   UNL     1      -3.701  11.779  16.995  0.00  0.00    +0.000 N 
ATOM      8  C   UNL     1      -4.884  11.619  17.653  0.00  0.00    +0.000 C 
ATOM      9  N   UNL     1      -5.113  11.206  18.866  0.00  0.00    +0.000 NA
ATOM     10  C   UNL     1      -6.590  11.209  18.996  0.00  0.00    +0.000 C 
ATOM     11  C   UNL     1      -7.103  12.042  17.824  0.00  0.00    +0.000 C 
ATOM     12  N   UNL     1      -5.981  11.967  16.908  0.00  0.00    +0.000 N 
ATOM     13  H   UNL     1      -3.772  11.651  15.996  0.00  0.00    +0.000 HD
ATOM     14  H   UNL     1      -5.850  12.788  16.332  0.00  0.00    +0.000 HD
ENDBRANCH   4   7
BRANCH   1  15
ATOM     15  C   UNL     1       1.342  10.341  19.360  0.00  0.00    +0.000 C 
BRANCH  15  19
ATOM     16  C   UNL     1       2.241   6.116  19.681  0.00  0.00    +0.000 A 
ATOM     17  C   UNL     1       2.534   6.820  18.518  0.00  0.00    +0.000 A 
ATOM     18  C   UNL     1       2.218   8.178  18.409  0.00  0.00    +0.000 A 
ATOM     19  C   UNL     1       1.595   8.856  19.461  0.00  0.00    +0.000 A 
ATOM     20  C   UNL     1       1.257   8.139  20.616  0.00  0.00    +0.000 A 
ATOM     21  C   UNL     1       1.582   6.780  20.724  0.00  0.00    +0.000 A 
BRANCH  16  22
ATOM     22  O   UNL     1       2.537   4.803  19.925  0.00  0.00    +0.000 OA
BRANCH  22  24
ATOM     23  C   UNL     1       0.936   3.077  19.507  0.00  0.00    +0.000 C 
ATOM     24  C   UNL     1       1.548   3.987  20.570  0.00  0.00    +0.000 C 
ATOM     25  C   UNL     1       2.204   3.149  21.664  0.00  0.00    +0.000 C 
ENDBRANCH  22  24
ENDBRANCH  16  22
ENDBRANCH  15  19
ENDBRANCH   1  15
TORSDOF 5
ENDMDL
MODEL 8
REMARK VINA RESULT:      -7.0      4.849      9.444
REMARK  Name = 
REMARK  7 active torsions:
REMARK  status: ('A' for Active; 'I' for Inactive)
REMARK    1  A    between atoms: C_1  and  C_2
REMARK    2  A    between atoms: C_2  and  C_3
REMARK    3  A    between atoms: C_2  and  O_4
REMARK    4  A    between atoms: O_4  and  C_5
REMARK    5  A    between atoms: C_8  and  C_9
REMARK    6  A    between atoms: C_9  and  C_10
REMARK    7  A    between atoms: C_13  and  N_14
REMARK                            x       y       z     vdW  Elec       q    Type
REMARK                         _______ _______ _______ _____ _____    ______ ____
ROOT
ATOM      1  C   UNL     1       2.652   6.917  19.354  0.00  0.00    +0.000 A 
ATOM      2  C   UNL     1       1.915   7.581  20.343  0.00  0.00    +0.000 A 
ATOM      3  C   UNL     1       1.195   8.743  20.035  0.00  0.00    +0.000 A 
ATOM      4  C   UNL     1       1.202   9.280  18.740  0.00  0.00    +0.000 A 
ATOM      5  C   UNL     1       1.872   8.560  17.742  0.00  0.00    +0.000 A 
ATOM      6  C   UNL     1       2.591   7.400  18.045  0.00  0.00    +0.000 A 
ENDROOT
BRANCH   4   7
ATOM      7  N   UNL     1       0.519  10.489  18.482  0.00  0.00    +0.000 N 
ATOM      8  C   UNL     1      -0.793  10.600  18.128  0.00  0.00    +0.000 C 
ATOM      9  N   UNL     1      -1.700   9.676  17.992  0.00  0.00    +0.000 NA
ATOM     10  C   UNL     1      -2.917  10.402  17.556  0.00  0.00    +0.000 C 
ATOM     11  C   UNL     1      -2.645  11.875  17.849  0.00  0.00    +0.000 C 
ATOM     12  N   UNL     1      -1.195  11.892  17.902  0.00  0.00    +0.000 N 
ATOM     13  H   UNL     1       1.109  11.206  18.085  0.00  0.00    +0.000 HD
ATOM     14  H   UNL     1      -0.804  12.568  18.545  0.00  0.00    +0.000 HD
ENDBRANCH   4   7
BRANCH   1  15
ATOM     15  C   UNL     1       3.540   5.748  19.703  0.00  0.00    +0.000 C 
BRANCH  15  19
ATOM     16  C   UNL     1       5.657   4.110  16.299  0.00  0.00    +0.000 A 
ATOM     17  C   UNL     1       4.385   3.657  16.631  0.00  0.00    +0.000 A 
ATOM     18  C   UNL     1       3.716   4.171  17.747  0.00  0.00    +0.000 A 
ATOM     19  C   UNL     1       4.311   5.142  18.557  0.00  0.00    +0.000 A 
ATOM     20  C   UNL     1       5.610   5.567  18.250  0.00  0.00    +0.000 A 
ATOM     21  C   UNL     1       6.274   5.056  17.127  0.00  0.00    +0.000 A 
BRANCH  16  22
ATOM     22  O   UNL     1       6.394   3.720  15.213  0.00  0.00    +0.000 OA
BRANCH  22  24
ATOM     23  C   UNL     1       7.590   5.108  13.677  0.00  0.00    +0.000 C 
ATOM     24  C   UNL     1       6.246   4.452  13.988  0.00  0.00    +0.000 C 
ATOM     25  C   UNL     1       5.854   3.498  12.862  0.00  0.00    +0.000 C 
ENDBRANCH  22  24
ENDBRANCH  16  22
ENDBRANCH  15  19
ENDBRANCH   1  15
TORSDOF 5
ENDMDL
MODEL 9
REMARK VINA RESULT:      -7.0      4.310      8.481
REMARK  Name = 
REMARK  7 active torsions:
REMARK  status: ('A' for Active; 'I' for Inactive)
REMARK    1  A    between atoms: C_1  and  C_2
REMARK    2  A    between atoms: C_2  and  C_3
REMARK    3  A    between atoms: C_2  and  O_4
REMARK    4  A    between atoms: O_4  and  C_5
REMARK    5  A    between atoms: C_8  and  C_9
REMARK    6  A    between atoms: C_9  and  C_10
REMARK    7  A    between atoms: C_13  and  N_14
REMARK                            x       y       z     vdW  Elec       q    Type
REMARK                         _______ _______ _______ _____ _____    ______ ____
ROOT
ATOM      1  C   UNL     1       0.472  10.368  18.539  0.00  0.00    +0.000 A 
ATOM      2  C   UNL     1       0.341  11.301  19.573  0.00  0.00    +0.000 A 
ATOM      3  C   UNL     1      -0.879  11.958  19.790  0.00  0.00    +0.000 A 
ATOM      4  C   UNL     1      -1.991  11.711  18.974  0.00  0.00    +0.000 A 
ATOM      5  C   UNL     1      -1.872  10.713  17.998  0.00  0.00    +0.000 A 
ATOM      6  C   UNL     1      -0.658  10.055  17.779  0.00  0.00    +0.000 A 
ENDROOT
BRANCH   4   7
ATOM      7  N   UNL     1      -3.183  12.440  19.179  0.00  0.00    +0.000 N 
ATOM      8  C   UNL     1      -4.433  12.036  18.817  0.00  0.00    +0.000 C 
ATOM      9  N   UNL     1      -4.821  10.922  18.265  0.00  0.00    +0.000 NA
ATOM     10  C   UNL     1      -6.284  11.080  18.080  0.00  0.00    +0.000 C 
ATOM     11  C   UNL     1      -6.683  12.265  18.955  0.00  0.00    +0.000 C 
ATOM     12  N   UNL     1      -5.413  12.951  19.103  0.00  0.00    +0.000 N 
ATOM     13  H   UNL     1      -3.053  13.440  19.141  0.00  0.00    +0.000 HD
ATOM     14  H   UNL     1      -5.292  13.430  19.986  0.00  0.00    +0.000 HD
ENDBRANCH   4   7
BRANCH   1  15
ATOM     15  C   UNL     1       1.813   9.759  18.209  0.00  0.00    +0.000 C 
BRANCH  15  19
ATOM     16  C   UNL     1       2.256   5.672  19.570  0.00  0.00    +0.000 A 
ATOM     17  C   UNL     1       1.832   6.670  20.441  0.00  0.00    +0.000 A 
ATOM     18  C   UNL     1       1.716   7.993  20.003  0.00  0.00    +0.000 A 
ATOM     19  C   UNL     1       2.030   8.344  18.687  0.00  0.00    +0.000 A 
ATOM     20  C   UNL     1       2.500   7.349  17.821  0.00  0.00    +0.000 A 
ATOM     21  C   UNL     1       2.608   6.023  18.261  0.00  0.00    +0.000 A 
BRANCH  16  22
ATOM     22  O   UNL     1       2.369   4.340  19.864  0.00  0.00    +0.000 OA
BRANCH  22  24
ATOM     23  C   UNL     1       0.917   2.637  19.020  0.00  0.00    +0.000 C 
ATOM     24  C   UNL     1       1.176   3.605  20.173  0.00  0.00    +0.000 C 
ATOM     25  C   UNL     1       1.370   2.832  21.475  0.00  0.00    +0.000 C 
ENDBRANCH  22  24
ENDBRANCH  16  22
ENDBRANCH  15  19
ENDBRANCH   1  15
TORSDOF 5
ENDMDL
