MODEL 1
REMARK VINA RESULT:      -7.9      0.000      0.000
REMARK  Name = 
REMARK  6 active torsions:
REMARK  status: ('A' for Active; 'I' for Inactive)
REMARK    1  A    between atoms: C_2  and  C_3
REMARK    2  A    between atoms: C_3  and  S_4
REMARK    3  A    between atoms: S_4  and  C_5
REMARK    4  A    between atoms: N_9  and  C_10
REMARK    5  A    between atoms: N_17  and  C_18
REMARK    6  A    between atoms: C_22  and  C_23
REMARK                            x       y       z     vdW  Elec       q    Type
REMARK                         _______ _______ _______ _____ _____    ______ ____
ROOT
ATOM      1  O   UNL     1       6.506   6.620  16.422  0.00  0.00    +0.000 OA
ATOM      2  C   UNL     1       6.846   5.473  16.710  0.00  0.00    +0.000 C 
ATOM      3  N   UNL     1       7.136   4.472  15.792  0.00  0.00    +0.000 N 
ATOM      4  H   UNL     1       7.504   3.608  16.174  0.00  0.00    +0.000 HD
ENDROOT
BRANCH   3   5
ATOM      5  C   UNL     1       7.043   4.561  14.384  0.00  0.00    +0.000 A 
ATOM      6  C   UNL     1       7.963   5.255  13.596  0.00  0.00    +0.000 A 
ATOM      7  C   UNL     1       7.850   5.270  12.204  0.00  0.00    +0.000 A 
ATOM      8  C   UNL     1       6.814   4.584  11.579  0.00  0.00    +0.000 A 
ATOM      9  C   UNL     1       5.863   3.894  12.343  0.00  0.00    +0.000 A 
ATOM     10  C   UNL     1       5.978   3.906  13.750  0.00  0.00    +0.000 A 
BRANCH   9  11
ATOM     11  C   UNL     1       4.750   3.128  11.674  0.00  0.00    +0.000 C 
ATOM     12  F   UNL     1       3.658   2.942  12.464  0.00  0.00    +0.000 F 
ATOM     13  F   UNL     1       4.295   3.750  10.551  0.00  0.00    +0.000 F 
ATOM     14  F   UNL     1       5.138   1.884  11.278  0.00  0.00    +0.000 F 
ENDBRANCH   9  11
ENDBRANCH   3   5
BRANCH   2  15
ATOM     15  C   UNL     1       7.113   5.114  18.168  0.00  0.00    +0.000 C 
BRANCH  15  16
ATOM     16  S   UNL     1       5.699   5.491  19.236  0.00  0.00    +0.000 S 
BRANCH  16  17
ATOM     17  C   UNL     1       4.395   4.754  18.344  0.00  0.00    +0.000 A 
ATOM     18  N   UNL     1       4.502   3.573  17.772  0.00  0.00    +0.000 NA
ATOM     19  C   UNL     1       3.241   3.253  17.355  0.00  0.00    +0.000 A 
ATOM     20  C   UNL     1       2.355   4.251  17.676  0.00  0.00    +0.000 A 
ATOM     21  N   UNL     1       3.096   5.257  18.277  0.00  0.00    +0.000 N 
BRANCH  21  22
ATOM     22  C   UNL     1       2.565   6.516  18.689  0.00  0.00    +0.000 A 
ATOM     23  C   UNL     1       2.139   6.693  20.016  0.00  0.00    +0.000 A 
ATOM     24  C   UNL     1       1.613   7.922  20.429  0.00  0.00    +0.000 A 
ATOM     25  C   UNL     1       1.499   8.971  19.521  0.00  0.00    +0.000 A 
ATOM     26 CL   UNL     1       0.848  10.479  20.028  0.00  0.00    +0.000 Cl
ATOM     27  C   UNL     1       1.901   8.802  18.201  0.00  0.00    +0.000 A 
ATOM     28  C   UNL     1       2.424   7.574  17.783  0.00  0.00    +0.000 A 
ENDBRANCH  21  22
ENDBRANCH  16  17
ENDBRANCH  15  16
ENDBRANCH   2  15
TORSDOF 6
ENDMDL
MODEL 2
REMARK VINA RESULT:      -7.8      6.939      8.436
REMARK  Name = 
REMARK  6 active torsions:
REMARK  status: ('A' for Active; 'I' for Inactive)
REMARK    1  A    between atoms: C_2  and  C_3
REMARK    2  A    between atoms: C_3  and  S_4
REMARK    3  A    between atoms: S_4  and  C_5
REMARK    4  A    between atoms: N_9  and  C_10
REMARK    5  A    between atoms: N_17  and  C_18
REMARK    6  A    between atoms: C_22  and  C_23
REMARK                            x       y       z     vdW  Elec       q    Type
REMARK                         _______ _______ _______ _____ _____    ______ ____
ROOT
ATOM      1  O   UNL     1       8.936   8.300  19.159  0.00  0.00    +0.000 OA
ATOM      2  C   UNL     1       8.335   8.859  18.241  0.00  0.00    +0.000 C 
ATOM      3  N   UNL     1       8.574  10.155  17.802  0.00  0.00    +0.000 N 
ATOM      4  H   UNL     1       8.073  10.444  16.969  0.00  0.00    +0.000 HD
ENDROOT
BRANCH   3   5
ATOM      5  C   UNL     1       9.493  11.079  18.350  0.00  0.00    +0.000 A 
ATOM      6  C   UNL     1      10.680  11.448  17.716  0.00  0.00    +0.000 A 
ATOM      7  C   UNL     1      11.529  12.404  18.280  0.00  0.00    +0.000 A 
ATOM      8  C   UNL     1      11.198  13.008  19.489  0.00  0.00    +0.000 A 
ATOM      9  C   UNL     1      10.022  12.644  20.159  0.00  0.00    +0.000 A 
ATOM     10  C   UNL     1       9.186  11.662  19.587  0.00  0.00    +0.000 A 
BRANCH   9  11
ATOM     11  C   UNL     1       9.642  13.311  21.457  0.00  0.00    +0.000 C 
ATOM     12  F   UNL     1       9.595  12.460  22.519  0.00  0.00    +0.000 F 
ATOM     13  F   UNL     1      10.515  14.296  21.809  0.00  0.00    +0.000 F 
ATOM     14  F   UNL     1       8.417  13.903  21.400  0.00  0.00    +0.000 F 
ENDBRANCH   9  11
ENDBRANCH   3   5
BRANCH   2  15
ATOM     15  C   UNL     1       7.338   8.064  17.405  0.00  0.00    +0.000 C 
BRANCH  15  16
ATOM     16  S   UNL     1       7.317   6.308  17.852  0.00  0.00    +0.000 S 
BRANCH  16  17
ATOM     17  C   UNL     1       6.708   5.592  16.383  0.00  0.00    +0.000 A 
ATOM     18  N   UNL     1       7.404   5.559  15.266  0.00  0.00    +0.000 NA
ATOM     19  C   UNL     1       6.696   4.757  14.416  0.00  0.00    +0.000 A 
ATOM     20  C   UNL     1       5.553   4.298  15.023  0.00  0.00    +0.000 A 
ATOM     21  N   UNL     1       5.521   4.868  16.286  0.00  0.00    +0.000 N 
BRANCH  21  22
ATOM     22  C   UNL     1       4.450   4.712  17.215  0.00  0.00    +0.000 A 
ATOM     23  C   UNL     1       4.223   3.463  17.815  0.00  0.00    +0.000 A 
ATOM     24  C   UNL     1       3.172   3.298  18.725  0.00  0.00    +0.000 A 
ATOM     25  C   UNL     1       2.340   4.372  19.030  0.00  0.00    +0.000 A 
ATOM     26 CL   UNL     1       1.047   4.167  20.143  0.00  0.00    +0.000 Cl
ATOM     27  C   UNL     1       2.544   5.608  18.428  0.00  0.00    +0.000 A 
ATOM     28  C   UNL     1       3.590   5.777  17.516  0.00  0.00    +0.000 A 
ENDBRANCH  21  22
ENDBRANCH  16  17
ENDBRANCH  15  16
ENDBRANCH   2  15
TORSDOF 6
ENDMDL
MODEL 3
REMARK VINA RESULT:      -7.7      3.871      4.984
REMARK  Name = 
REMARK  6 active torsions:
REMARK  status: ('A' for Active; 'I' for Inactive)
REMARK    1  A    between atoms: C_2  and  C_3
REMARK    2  A    between atoms: C_3  and  S_4
REMARK    3  A    between atoms: S_4  and  C_5
REMARK    4  A    between atoms: N_9  and  C_10
REMARK    5  A    between atoms: N_17  and  C_18
REMARK    6  A    between atoms: C_22  and  C_23
REMARK                            x       y       z     vdW  Elec       q    Type
REMARK                         _______ _______ _______ _____ _____    ______ ____
ROOT
ATOM      1  O   UNL     1       4.191   1.867  18.535  0.00  0.00    +0.000 OA
ATOM      2  C   UNL     1       3.353   2.440  17.839  0.00  0.00    +0.000 C 
ATOM      3  N   UNL     1       3.628   3.455  16.931  0.00  0.00    +0.000 N 
ATOM      4  H   UNL     1       2.852   3.759  16.353  0.00  0.00    +0.000 HD
ENDROOT
BRANCH   3   5
ATOM      5  C   UNL     1       4.886   4.050  16.681  0.00  0.00    +0.000 A 
ATOM      6  C   UNL     1       5.415   4.215  15.400  0.00  0.00    +0.000 A 
ATOM      7  C   UNL     1       6.642   4.854  15.207  0.00  0.00    +0.000 A 
ATOM      8  C   UNL     1       7.356   5.342  16.296  0.00  0.00    +0.000 A 
ATOM      9  C   UNL     1       6.860   5.174  17.595  0.00  0.00    +0.000 A 
ATOM     10  C   UNL     1       5.630   4.507  17.777  0.00  0.00    +0.000 A 
BRANCH   9  11
ATOM     11  C   UNL     1       7.615   5.721  18.781  0.00  0.00    +0.000 C 
ATOM     12  F   UNL     1       8.104   6.977  18.591  0.00  0.00    +0.000 F 
ATOM     13  F   UNL     1       6.841   5.790  19.901  0.00  0.00    +0.000 F 
ATOM     14  F   UNL     1       8.686   4.952  19.118  0.00  0.00    +0.000 F 
ENDBRANCH   9  11
ENDBRANCH   3   5
BRANCH   2  15
ATOM     15  C   UNL     1       1.912   1.941  17.838  0.00  0.00    +0.000 C 
BRANCH  15  16
ATOM     16  S   UNL     1       0.758   3.183  18.476  0.00  0.00    +0.000 S 
BRANCH  16  17
ATOM     17  C   UNL     1       1.394   3.447  20.078  0.00  0.00    +0.000 A 
ATOM     18  N   UNL     1       1.515   2.481  20.964  0.00  0.00    +0.000 NA
ATOM     19  C   UNL     1       2.224   3.020  22.000  0.00  0.00    +0.000 A 
ATOM     20  C   UNL     1       2.536   4.332  21.742  0.00  0.00    +0.000 A 
ATOM     21  N   UNL     1       1.964   4.641  20.518  0.00  0.00    +0.000 N 
BRANCH  21  22
ATOM     22  C   UNL     1       1.983   5.936  19.921  0.00  0.00    +0.000 A 
ATOM     23  C   UNL     1       2.518   6.103  18.633  0.00  0.00    +0.000 A 
ATOM     24  C   UNL     1       2.546   7.370  18.040  0.00  0.00    +0.000 A 
ATOM     25  C   UNL     1       2.053   8.474  18.731  0.00  0.00    +0.000 A 
ATOM     26 CL   UNL     1       2.093  10.030  18.003  0.00  0.00    +0.000 Cl
ATOM     27  C   UNL     1       1.539   8.324  20.013  0.00  0.00    +0.000 A 
ATOM     28  C   UNL     1       1.511   7.060  20.612  0.00  0.00    +0.000 A 
ENDBRANCH  21  22
ENDBRANCH  16  17
ENDBRANCH  15  16
ENDBRANCH   2  15
TORSDOF 6
ENDMDL
MODEL 4
REMARK VINA RESULT:      -7.7      0.995      1.550
REMARK  Name = 
REMARK  6 active torsions:
REMARK  status: ('A' for Active; 'I' for Inactive)
REMARK    1  A    between atoms: C_2  and  C_3
REMARK    2  A    between atoms: C_3  and  S_4
REMARK    3  A    between atoms: S_4  and  C_5
REMARK    4  A    between atoms: N_9  and  C_10
REMARK    5  A    between atoms: N_17  and  C_18
REMARK    6  A    between atoms: C_22  and  C_23
REMARK                            x       y       z     vdW  Elec       q    Type
REMARK                         _______ _______ _______ _____ _____    ______ ____
ROOT
ATOM      1  O   UNL     1       7.634   4.500  17.094  0.00  0.00    +0.000 OA
ATOM      2  C   UNL     1       6.589   5.144  17.012  0.00  0.00    +0.000 C 
ATOM      3  N   UNL     1       5.887   5.382  15.836  0.00  0.00    +0.000 N 
ATOM      4  H   UNL     1       4.989   5.840  15.937  0.00  0.00    +0.000 HD
ENDROOT
BRANCH   3   5
ATOM      5  C   UNL     1       6.263   4.989  14.531  0.00  0.00    +0.000 A 
ATOM      6  C   UNL     1       7.533   5.214  13.997  0.00  0.00    +0.000 A 
ATOM      7  C   UNL     1       7.865   4.760  12.719  0.00  0.00    +0.000 A 
ATOM      8  C   UNL     1       6.930   4.069  11.956  0.00  0.00    +0.000 A 
ATOM      9  C   UNL     1       5.641   3.844  12.456  0.00  0.00    +0.000 A 
ATOM     10  C   UNL     1       5.312   4.328  13.741  0.00  0.00    +0.000 A 
BRANCH   9  11
ATOM     11  C   UNL     1       4.627   3.075  11.648  0.00  0.00    +0.000 C 
ATOM     12  F   UNL     1       5.035   1.824  11.300  0.00  0.00    +0.000 F 
ATOM     13  F   UNL     1       3.450   2.909  12.314  0.00  0.00    +0.000 F 
ATOM     14  F   UNL     1       4.307   3.699  10.481  0.00  0.00    +0.000 F 
ENDBRANCH   9  11
ENDBRANCH   3   5
BRANCH   2  15
ATOM     15  C   UNL     1       5.901   5.622  18.286  0.00  0.00    +0.000 C 
BRANCH  15  16
ATOM     16  S   UNL     1       5.351   4.244  19.325  0.00  0.00    +0.000 S 
BRANCH  16  17
ATOM     17  C   UNL     1       3.925   3.721  18.469  0.00  0.00    +0.000 A 
ATOM     18  N   UNL     1       3.869   2.584  17.807  0.00  0.00    +0.000 NA
ATOM     19  C   UNL     1       2.559   2.431  17.451  0.00  0.00    +0.000 A 
ATOM     20  C   UNL     1       1.808   3.489  17.901  0.00  0.00    +0.000 A 
ATOM     21  N   UNL     1       2.688   4.361  18.524  0.00  0.00    +0.000 N 
BRANCH  21  22
ATOM     22  C   UNL     1       2.323   5.632  19.059  0.00  0.00    +0.000 A 
ATOM     23  C   UNL     1       2.465   6.787  18.273  0.00  0.00    +0.000 A 
ATOM     24  C   UNL     1       2.114   8.039  18.790  0.00  0.00    +0.000 A 
ATOM     25  C   UNL     1       1.633   8.145  20.092  0.00  0.00    +0.000 A 
ATOM     26 CL   UNL     1       1.207   9.684  20.728  0.00  0.00    +0.000 Cl
ATOM     27  C   UNL     1       1.505   7.011  20.886  0.00  0.00    +0.000 A 
ATOM     28  C   UNL     1       1.857   5.758  20.375  0.00  0.00    +0.000 A 
ENDBRANCH  21  22
ENDBRANCH  16  17
ENDBRANCH  15  16
ENDBRANCH   2  15
TORSDOF 6
ENDMDL
MODEL 5
REMARK VINA RESULT:      -7.7      6.920      8.573
REMARK  Name = 
REMARK  6 active torsions:
REMARK  status: ('A' for Active; 'I' for Inactive)
REMARK    1  A    between atoms: C_2  and  C_3
REMARK    2  A    between atoms: C_3  and  S_4
REMARK    3  A    between atoms: S_4  and  C_5
REMARK    4  A    between atoms: N_9  and  C_10
REMARK    5  A    between atoms: N_17  and  C_18
REMARK    6  A    between atoms: C_22  and  C_23
REMARK                            x       y       z     vdW  Elec       q    Type
REMARK                         _______ _______ _______ _____ _____    ______ ____
ROOT
ATOM      1  O   UNL     1       7.726   9.702  17.388  0.00  0.00    +0.000 OA
ATOM      2  C   UNL     1       8.265   8.877  18.126  0.00  0.00    +0.000 C 
ATOM      3  N   UNL     1       9.142   9.182  19.159  0.00  0.00    +0.000 N 
ATOM      4  H   UNL     1       9.425   8.407  19.748  0.00  0.00    +0.000 HD
ENDROOT
BRANCH   3   5
ATOM      5  C   UNL     1       9.617  10.465  19.515  0.00  0.00    +0.000 A 
ATOM      6  C   UNL     1      10.508  11.199  18.729  0.00  0.00    +0.000 A 
ATOM      7  C   UNL     1      10.908  12.483  19.105  0.00  0.00    +0.000 A 
ATOM      8  C   UNL     1      10.417  13.055  20.275  0.00  0.00    +0.000 A 
ATOM      9  C   UNL     1       9.537  12.336  21.095  0.00  0.00    +0.000 A 
ATOM     10  C   UNL     1       9.159  11.031  20.713  0.00  0.00    +0.000 A 
BRANCH   9  11
ATOM     11  C   UNL     1       8.981  12.956  22.352  0.00  0.00    +0.000 C 
ATOM     12  F   UNL     1       9.037  12.139  23.439  0.00  0.00    +0.000 F 
ATOM     13  F   UNL     1       9.643  14.093  22.706  0.00  0.00    +0.000 F 
ATOM     14  F   UNL     1       7.673  13.313  22.223  0.00  0.00    +0.000 F 
ENDBRANCH   9  11
ENDBRANCH   3   5
BRANCH   2  15
ATOM     15  C   UNL     1       7.867   7.408  18.025  0.00  0.00    +0.000 C 
BRANCH  15  16
ATOM     16  S   UNL     1       6.122   7.200  17.584  0.00  0.00    +0.000 S 
BRANCH  16  17
ATOM     17  C   UNL     1       6.197   5.794  16.557  0.00  0.00    +0.000 A 
ATOM     18  N   UNL     1       7.048   5.685  15.559  0.00  0.00    +0.000 NA
ATOM     19  C   UNL     1       6.947   4.393  15.129  0.00  0.00    +0.000 A 
ATOM     20  C   UNL     1       6.020   3.705  15.873  0.00  0.00    +0.000 A 
ATOM     21  N   UNL     1       5.488   4.613  16.775  0.00  0.00    +0.000 N 
BRANCH  21  22
ATOM     22  C   UNL     1       4.427   4.322  17.684  0.00  0.00    +0.000 A 
ATOM     23  C   UNL     1       4.693   3.603  18.861  0.00  0.00    +0.000 A 
ATOM     24  C   UNL     1       3.659   3.309  19.756  0.00  0.00    +0.000 A 
ATOM     25  C   UNL     1       2.358   3.717  19.476  0.00  0.00    +0.000 A 
ATOM     26 CL   UNL     1       1.087   3.350  20.574  0.00  0.00    +0.000 Cl
ATOM     27  C   UNL     1       2.079   4.413  18.306  0.00  0.00    +0.000 A 
ATOM     28  C   UNL     1       3.109   4.707  17.406  0.00  0.00    +0.000 A 
ENDBRANCH  21  22
ENDBRANCH  16  17
ENDBRANCH  15  16
ENDBRANCH   2  15
TORSDOF 6
ENDMDL
MODEL 6
REMARK VINA RESULT:      -7.6      1.309      1.629
REMARK  Name = 
REMARK  6 active torsions:
REMARK  status: ('A' for Active; 'I' for Inactive)
REMARK    1  A    between atoms: C_2  and  C_3
REMARK    2  A    between atoms: C_3  and  S_4
REMARK    3  A    between atoms: S_4  and  C_5
REMARK    4  A    between atoms: N_9  and  C_10
REMARK    5  A    between atoms: N_17  and  C_18
REMARK    6  A    between atoms: C_22  and  C_23
REMARK                            x       y       z     vdW  Elec       q    Type
REMARK                         _______ _______ _______ _____ _____    ______ ____
ROOT
ATOM      1  O   UNL     1       8.019   4.493  17.095  0.00  0.00    +0.000 OA
ATOM      2  C   UNL     1       6.791   4.515  17.187  0.00  0.00    +0.000 C 
ATOM      3  N   UNL     1       5.910   4.485  16.113  0.00  0.00    +0.000 N 
ATOM      4  H   UNL     1       4.926   4.403  16.345  0.00  0.00    +0.000 HD
ENDROOT
BRANCH   3   5
ATOM      5  C   UNL     1       6.247   4.482  14.740  0.00  0.00    +0.000 A 
ATOM      6  C   UNL     1       7.429   5.031  14.239  0.00  0.00    +0.000 A 
ATOM      7  C   UNL     1       7.734   4.958  12.878  0.00  0.00    +0.000 A 
ATOM      8  C   UNL     1       6.860   4.329  11.997  0.00  0.00    +0.000 A 
ATOM      9  C   UNL     1       5.657   3.786  12.467  0.00  0.00    +0.000 A 
ATOM     10  C   UNL     1       5.352   3.887  13.841  0.00  0.00    +0.000 A 
BRANCH   9  11
ATOM     11  C   UNL     1       4.714   3.081  11.524  0.00  0.00    +0.000 C 
ATOM     12  F   UNL     1       4.567   3.705  10.324  0.00  0.00    +0.000 F 
ATOM     13  F   UNL     1       5.123   1.813  11.236  0.00  0.00    +0.000 F 
ATOM     14  F   UNL     1       3.459   2.958  12.037  0.00  0.00    +0.000 F 
ENDBRANCH   9  11
ENDBRANCH   3   5
BRANCH   2  15
ATOM     15  C   UNL     1       6.141   4.432  18.563  0.00  0.00    +0.000 C 
BRANCH  15  16
ATOM     16  S   UNL     1       5.133   5.891  18.933  0.00  0.00    +0.000 S 
BRANCH  16  17
ATOM     17  C   UNL     1       3.684   5.152  19.560  0.00  0.00    +0.000 A 
ATOM     18  N   UNL     1       3.636   3.894  19.947  0.00  0.00    +0.000 NA
ATOM     19  C   UNL     1       2.420   3.743  20.552  0.00  0.00    +0.000 A 
ATOM     20  C   UNL     1       1.718   4.923  20.532  0.00  0.00    +0.000 A 
ATOM     21  N   UNL     1       2.504   5.837  19.849  0.00  0.00    +0.000 N 
BRANCH  21  22
ATOM     22  C   UNL     1       2.104   7.170  19.533  0.00  0.00    +0.000 A 
ATOM     23  C   UNL     1       1.529   7.980  20.526  0.00  0.00    +0.000 A 
ATOM     24  C   UNL     1       1.129   9.287  20.225  0.00  0.00    +0.000 A 
ATOM     25  C   UNL     1       1.289   9.785  18.935  0.00  0.00    +0.000 A 
ATOM     26 CL   UNL     1       0.792  11.388  18.565  0.00  0.00    +0.000 Cl
ATOM     27  C   UNL     1       1.840   8.986  17.939  0.00  0.00    +0.000 A 
ATOM     28  C   UNL     1       2.239   7.678  18.234  0.00  0.00    +0.000 A 
ENDBRANCH  21  22
ENDBRANCH  16  17
ENDBRANCH  15  16
ENDBRANCH   2  15
TORSDOF 6
ENDMDL
MODEL 7
REMARK VINA RESULT:      -7.6      5.870      8.242
REMARK  Name = 
REMARK  6 active torsions:
REMARK  status: ('A' for Active; 'I' for Inactive)
REMARK    1  A    between atoms: C_2  and  C_3
REMARK    2  A    between atoms: C_3  and  S_4
REMARK    3  A    between atoms: S_4  and  C_5
REMARK    4  A    between atoms: N_9  and  C_10
REMARK    5  A    between atoms: N_17  and  C_18
REMARK    6  A    between atoms: C_22  and  C_23
REMARK                            x       y       z     vdW  Elec       q    Type
REMARK                         _______ _______ _______ _____ _____    ______ ____
ROOT
ATOM      1  O   UNL     1      -0.342   7.831  21.351  0.00  0.00    +0.000 OA
ATOM      2  C   UNL     1       0.785   8.278  21.559  0.00  0.00    +0.000 C 
ATOM      3  N   UNL     1       1.950   7.819  20.957  0.00  0.00    +0.000 N 
ATOM      4  H   UNL     1       2.792   8.352  21.147  0.00  0.00    +0.000 HD
ENDROOT
BRANCH   3   5
ATOM      5  C   UNL     1       2.068   6.737  20.054  0.00  0.00    +0.000 A 
ATOM      6  C   UNL     1       2.646   6.853  18.789  0.00  0.00    +0.000 A 
ATOM      7  C   UNL     1       2.780   5.739  17.956  0.00  0.00    +0.000 A 
ATOM      8  C   UNL     1       2.341   4.490  18.381  0.00  0.00    +0.000 A 
ATOM      9  C   UNL     1       1.740   4.345  19.639  0.00  0.00    +0.000 A 
ATOM     10  C   UNL     1       1.590   5.483  20.460  0.00  0.00    +0.000 A 
BRANCH   9  11
ATOM     11  C   UNL     1       1.282   2.991  20.119  0.00  0.00    +0.000 C 
ATOM     12  F   UNL     1       0.195   2.510  19.456  0.00  0.00    +0.000 F 
ATOM     13  F   UNL     1       2.249   2.040  19.986  0.00  0.00    +0.000 F 
ATOM     14  F   UNL     1       0.942   2.993  21.438  0.00  0.00    +0.000 F 
ENDBRANCH   9  11
ENDBRANCH   3   5
BRANCH   2  15
ATOM     15  C   UNL     1       0.951   9.517  22.432  0.00  0.00    +0.000 C 
BRANCH  15  16
ATOM     16  S   UNL     1      -0.418  10.686  22.228  0.00  0.00    +0.000 S 
BRANCH  16  17
ATOM     17  C   UNL     1       0.255  11.797  21.065  0.00  0.00    +0.000 A 
ATOM     18  N   UNL     1       1.473  12.286  21.170  0.00  0.00    +0.000 NA
ATOM     19  C   UNL     1       1.707  12.941  19.994  0.00  0.00    +0.000 A 
ATOM     20  C   UNL     1       0.618  12.850  19.163  0.00  0.00    +0.000 A 
ATOM     21  N   UNL     1      -0.353  12.151  19.861  0.00  0.00    +0.000 N 
BRANCH  21  22
ATOM     22  C   UNL     1      -1.676  11.909  19.383  0.00  0.00    +0.000 A 
ATOM     23  C   UNL     1      -1.880  11.020  18.315  0.00  0.00    +0.000 A 
ATOM     24  C   UNL     1      -3.173  10.779  17.836  0.00  0.00    +0.000 A 
ATOM     25  C   UNL     1      -4.261  11.431  18.409  0.00  0.00    +0.000 A 
ATOM     26 CL   UNL     1      -5.847  11.139  17.816  0.00  0.00    +0.000 Cl
ATOM     27  C   UNL     1      -4.069  12.327  19.454  0.00  0.00    +0.000 A 
ATOM     28  C   UNL     1      -2.779  12.573  19.935  0.00  0.00    +0.000 A 
ENDBRANCH  21  22
ENDBRANCH  16  17
ENDBRANCH  15  16
ENDBRANCH   2  15
TORSDOF 6
ENDMDL
MODEL 8
REMARK VINA RESULT:      -7.6      4.744      7.396
REMARK  Name = 
REMARK  6 active torsions:
REMARK  status: ('A' for Active; 'I' for Inactive)
REMARK    1  A    between atoms: C_2  and  C_3
REMARK    2  A    between atoms: C_3  and  S_4
REMARK    3  A    between atoms: S_4  and  C_5
REMARK    4  A    between atoms: N_9  and  C_10
REMARK    5  A    between atoms: N_17  and  C_18
REMARK    6  A    between atoms: C_22  and  C_23
REMARK                            x       y       z     vdW  Elec       q    Type
REMARK                         _______ _______ _______ _____ _____    ______ ____
ROOT
ATOM      1  O   UNL     1       1.781   8.879  19.032  0.00  0.00    +0.000 OA
ATOM      2  C   UNL     1       1.720   8.285  20.109  0.00  0.00    +0.000 C 
ATOM      3  N   UNL     1       2.101   6.965  20.316  0.00  0.00    +0.000 N 
ATOM      4  H   UNL     1       2.091   6.643  21.277  0.00  0.00    +0.000 HD
ENDROOT
BRANCH   3   5
ATOM      5  C   UNL     1       2.569   6.055  19.340  0.00  0.00    +0.000 A 
ATOM      6  C   UNL     1       3.587   6.358  18.435  0.00  0.00    +0.000 A 
ATOM      7  C   UNL     1       4.044   5.404  17.522  0.00  0.00    +0.000 A 
ATOM      8  C   UNL     1       3.489   4.128  17.507  0.00  0.00    +0.000 A 
ATOM      9  C   UNL     1       2.452   3.800  18.390  0.00  0.00    +0.000 A 
ATOM     10  C   UNL     1       1.986   4.782  19.291  0.00  0.00    +0.000 A 
BRANCH   9  11
ATOM     11  C   UNL     1       1.861   2.413  18.398  0.00  0.00    +0.000 C 
ATOM     12  F   UNL     1       0.500   2.395  18.395  0.00  0.00    +0.000 F 
ATOM     13  F   UNL     1       2.245   1.680  17.315  0.00  0.00    +0.000 F 
ATOM     14  F   UNL     1       2.239   1.691  19.488  0.00  0.00    +0.000 F 
ENDBRANCH   9  11
ENDBRANCH   3   5
BRANCH   2  15
ATOM     15  C   UNL     1       1.328   9.053  21.366  0.00  0.00    +0.000 C 
BRANCH  15  16
ATOM     16  S   UNL     1      -0.468   9.145  21.582  0.00  0.00    +0.000 S 
BRANCH  16  17
ATOM     17  C   UNL     1      -0.714  10.869  21.655  0.00  0.00    +0.000 A 
ATOM     18  N   UNL     1      -0.369  11.594  22.699  0.00  0.00    +0.000 NA
ATOM     19  C   UNL     1      -0.526  12.894  22.311  0.00  0.00    +0.000 A 
ATOM     20  C   UNL     1      -0.974  12.962  21.014  0.00  0.00    +0.000 A 
ATOM     21  N   UNL     1      -1.147  11.655  20.588  0.00  0.00    +0.000 N 
BRANCH  21  22
ATOM     22  C   UNL     1      -1.682  11.283  19.318  0.00  0.00    +0.000 A 
ATOM     23  C   UNL     1      -2.919  11.804  18.903  0.00  0.00    +0.000 A 
ATOM     24  C   UNL     1      -3.454  11.442  17.662  0.00  0.00    +0.000 A 
ATOM     25  C   UNL     1      -2.767  10.555  16.838  0.00  0.00    +0.000 A 
ATOM     26 CL   UNL     1      -3.428  10.107  15.316  0.00  0.00    +0.000 Cl
ATOM     27  C   UNL     1      -1.550  10.019  17.247  0.00  0.00    +0.000 A 
ATOM     28  C   UNL     1      -1.013  10.375  18.488  0.00  0.00    +0.000 A 
ENDBRANCH  21  22
ENDBRANCH  16  17
ENDBRANCH  15  16
ENDBRANCH   2  15
TORSDOF 6
ENDMDL
MODEL 9
REMARK VINA RESULT:      -7.6      6.897      8.293
REMARK  Name = 
REMARK  6 active torsions:
REMARK  status: ('A' for Active; 'I' for Inactive)
REMARK    1  A    between atoms: C_2  and  C_3
REMARK    2  A    between atoms: C_3  and  S_4
REMARK    3  A    between atoms: S_4  and  C_5
REMARK    4  A    between atoms: N_9  and  C_10
REMARK    5  A    between atoms: N_17  and  C_18
REMARK    6  A    between atoms: C_22  and  C_23
REMARK                            x       y       z     vdW  Elec       q    Type
REMARK                         _______ _______ _______ _____ _____    ______ ____
ROOT
ATOM      1  O   UNL     1       8.904   8.470  19.116  0.00  0.00    +0.000 OA
ATOM      2  C   UNL     1       8.288   8.989  18.185  0.00  0.00    +0.000 C 
ATOM      3  N   UNL     1       8.440  10.303  17.760  0.00  0.00    +0.000 N 
ATOM      4  H   UNL     1       7.941  10.560  16.916  0.00  0.00    +0.000 HD
ENDROOT
BRANCH   3   5
ATOM      5  C   UNL     1       9.270  11.290  18.340  0.00  0.00    +0.000 A 
ATOM      6  C   UNL     1      10.307  10.996  19.227  0.00  0.00    +0.000 A 
ATOM      7  C   UNL     1      11.128  12.006  19.733  0.00  0.00    +0.000 A 
ATOM      8  C   UNL     1      10.925  13.329  19.353  0.00  0.00    +0.000 A 
ATOM      9  C   UNL     1       9.881  13.658  18.479  0.00  0.00    +0.000 A 
ATOM     10  C   UNL     1       9.045  12.629  17.993  0.00  0.00    +0.000 A 
BRANCH   9  11
ATOM     11  C   UNL     1       9.667  15.086  18.042  0.00  0.00    +0.000 C 
ATOM     12  F   UNL     1       9.885  16.001  19.025  0.00  0.00    +0.000 F 
ATOM     13  F   UNL     1      10.489  15.441  17.015  0.00  0.00    +0.000 F 
ATOM     14  F   UNL     1       8.400  15.311  17.598  0.00  0.00    +0.000 F 
ENDBRANCH   9  11
ENDBRANCH   3   5
BRANCH   2  15
ATOM     15  C   UNL     1       7.377   8.127  17.316  0.00  0.00    +0.000 C 
BRANCH  15  16
ATOM     16  S   UNL     1       7.327   6.405  17.876  0.00  0.00    +0.000 S 
BRANCH  16  17
ATOM     17  C   UNL     1       6.744   5.600  16.443  0.00  0.00    +0.000 A 
ATOM     18  N   UNL     1       7.451   5.519  15.335  0.00  0.00    +0.000 NA
ATOM     19  C   UNL     1       6.764   4.660  14.525  0.00  0.00    +0.000 A 
ATOM     20  C   UNL     1       5.624   4.214  15.146  0.00  0.00    +0.000 A 
ATOM     21  N   UNL     1       5.570   4.851  16.375  0.00  0.00    +0.000 N 
BRANCH  21  22
ATOM     22  C   UNL     1       4.493   4.727  17.303  0.00  0.00    +0.000 A 
ATOM     23  C   UNL     1       4.251   3.494  17.931  0.00  0.00    +0.000 A 
ATOM     24  C   UNL     1       3.195   3.361  18.839  0.00  0.00    +0.000 A 
ATOM     25  C   UNL     1       2.371   4.450  19.115  0.00  0.00    +0.000 A 
ATOM     26 CL   UNL     1       1.071   4.283  20.226  0.00  0.00    +0.000 Cl
ATOM     27  C   UNL     1       2.590   5.670  18.486  0.00  0.00    +0.000 A 
ATOM     28  C   UNL     1       3.643   5.807  17.575  0.00  0.00    +0.000 A 
ENDBRANCH  21  22
ENDBRANCH  16  17
ENDBRANCH  15  16
ENDBRANCH   2  15
TORSDOF 6
ENDMDL
