MODEL 1
REMARK VINA RESULT:      -7.5      0.000      0.000
REMARK  Name = 
REMARK  4 active torsions:
REMARK  status: ('A' for Active; 'I' for Inactive)
REMARK    1  A    between atoms: C_1  and  O_2
REMARK    2  A    between atoms: O_2  and  C_3
REMARK    3  A    between atoms: C_13  and  C_14
REMARK    4  A    between atoms: C_14  and  C_15
REMARK                            x       y       z     vdW  Elec       q    Type
REMARK                         _______ _______ _______ _____ _____    ______ ____
ROOT
ATOM      1  C   UNL     1       2.147   5.970  20.042  0.00  0.00    +0.000 A 
ATOM      2  C   UNL     1       1.116   5.220  20.633  0.00  0.00    +0.000 A 
ATOM      3  C   UNL     1       1.220   3.842  20.747  0.00  0.00    +0.000 A 
ATOM      4  C   UNL     1       2.340   3.207  20.235  0.00  0.00    +0.000 A 
ATOM      5  C   UNL     1       3.385   3.949  19.650  0.00  0.00    +0.000 A 
ATOM      6  C   UNL     1       3.352   5.358  19.595  0.00  0.00    +0.000 A 
ATOM      7  N   UNL     1       4.485   6.179  19.428  0.00  0.00    +0.000 N 
ATOM      8  C   UNL     1       5.516   5.985  18.404  0.00  0.00    +0.000 C 
ATOM      9  C   UNL     1       6.259   4.610  18.399  0.00  0.00    +0.000 C 
ATOM     10  C   UNL     1       7.105   4.451  17.140  0.00  0.00    +0.000 C 
ATOM     11  C   UNL     1       5.971   4.196  16.168  0.00  0.00    +0.000 C 
ATOM     12  C   UNL     1       4.953   3.610  16.834  0.00  0.00    +0.000 C 
ATOM     13  N   UNL     1       5.284   3.545  18.168  0.00  0.00    +0.000 N 
ATOM     14  C   UNL     1       4.556   3.150  19.268  0.00  0.00    +0.000 C 
ATOM     15  O   UNL     1       4.955   2.265  20.026  0.00  0.00    +0.000 OA
ATOM     16  H   UNL     1       4.881   6.397  20.341  0.00  0.00    +0.000 HD
ENDROOT
BRANCH  11  17
ATOM     17  C   UNL     1       6.068   4.839  14.841  0.00  0.00    +0.000 C 
ATOM     18  C   UNL     1       6.214   3.963  13.627  0.00  0.00    +0.000 C 
ATOM     19  O   UNL     1       5.829   6.041  14.730  0.00  0.00    +0.000 OA
ENDBRANCH  11  17
BRANCH   1  21
ATOM     20  C   UNL     1       1.333   7.951  21.017  0.00  0.00    +0.000 C 
ATOM     21  O   UNL     1       2.039   7.344  19.933  0.00  0.00    +0.000 OA
ENDBRANCH   1  21
TORSDOF 2
ENDMDL
MODEL 2
REMARK VINA RESULT:      -7.0      1.847      2.298
REMARK  Name = 
REMARK  4 active torsions:
REMARK  status: ('A' for Active; 'I' for Inactive)
REMARK    1  A    between atoms: C_1  and  O_2
REMARK    2  A    between atoms: O_2  and  C_3
REMARK    3  A    between atoms: C_13  and  C_14
REMARK    4  A    between atoms: C_14  and  C_15
REMARK                            x       y       z     vdW  Elec       q    Type
REMARK                         _______ _______ _______ _____ _____    ______ ____
ROOT
ATOM      1  C   UNL     1       2.678   6.653  18.241  0.00  0.00    +0.000 A 
ATOM      2  C   UNL     1       2.132   6.136  19.430  0.00  0.00    +0.000 A 
ATOM      3  C   UNL     1       2.777   5.122  20.121  0.00  0.00    +0.000 A 
ATOM      4  C   UNL     1       3.950   4.596  19.604  0.00  0.00    +0.000 A 
ATOM      5  C   UNL     1       4.512   5.112  18.421  0.00  0.00    +0.000 A 
ATOM      6  C   UNL     1       3.929   6.200  17.738  0.00  0.00    +0.000 A 
ATOM      7  N   UNL     1       4.612   7.032  16.827  0.00  0.00    +0.000 N 
ATOM      8  C   UNL     1       5.448   6.555  15.722  0.00  0.00    +0.000 C 
ATOM      9  C   UNL     1       6.651   5.627  16.091  0.00  0.00    +0.000 C 
ATOM     10  C   UNL     1       7.264   5.004  14.842  0.00  0.00    +0.000 C 
ATOM     11  C   UNL     1       6.168   3.996  14.562  0.00  0.00    +0.000 C 
ATOM     12  C   UNL     1       5.585   3.656  15.732  0.00  0.00    +0.000 C 
ATOM     13  N   UNL     1       6.137   4.418  16.735  0.00  0.00    +0.000 N 
ATOM     14  C   UNL     1       5.817   4.538  18.068  0.00  0.00    +0.000 C 
ATOM     15  O   UNL     1       6.649   4.343  18.954  0.00  0.00    +0.000 OA
ATOM     16  H   UNL     1       5.044   7.804  17.335  0.00  0.00    +0.000 HD
ENDROOT
BRANCH  11  17
ATOM     17  C   UNL     1       5.782   3.800  13.149  0.00  0.00    +0.000 C 
ATOM     18  C   UNL     1       6.869   3.658  12.121  0.00  0.00    +0.000 C 
ATOM     19  O   UNL     1       4.608   3.558  12.869  0.00  0.00    +0.000 OA
ENDBRANCH  11  17
BRANCH   1  21
ATOM     20  C   UNL     1       1.877   8.865  18.320  0.00  0.00    +0.000 C 
ATOM     21  O   UNL     1       2.032   7.666  17.557  0.00  0.00    +0.000 OA
ENDBRANCH   1  21
TORSDOF 2
ENDMDL
MODEL 3
REMARK VINA RESULT:      -6.9      1.827      3.840
REMARK  Name = 
REMARK  4 active torsions:
REMARK  status: ('A' for Active; 'I' for Inactive)
REMARK    1  A    between atoms: C_1  and  O_2
REMARK    2  A    between atoms: O_2  and  C_3
REMARK    3  A    between atoms: C_13  and  C_14
REMARK    4  A    between atoms: C_14  and  C_15
REMARK                            x       y       z     vdW  Elec       q    Type
REMARK                         _______ _______ _______ _____ _____    ______ ____
ROOT
ATOM      1  C   UNL     1       4.054   2.361  20.304  0.00  0.00    +0.000 A 
ATOM      2  C   UNL     1       3.116   2.411  21.350  0.00  0.00    +0.000 A 
ATOM      3  C   UNL     1       2.106   3.360  21.348  0.00  0.00    +0.000 A 
ATOM      4  C   UNL     1       2.056   4.287  20.319  0.00  0.00    +0.000 A 
ATOM      5  C   UNL     1       2.984   4.240  19.261  0.00  0.00    +0.000 A 
ATOM      6  C   UNL     1       3.971   3.236  19.186  0.00  0.00    +0.000 A 
ATOM      7  N   UNL     1       4.642   2.860  18.004  0.00  0.00    +0.000 N 
ATOM      8  C   UNL     1       5.267   3.794  17.064  0.00  0.00    +0.000 C 
ATOM      9  C   UNL     1       4.345   4.889  16.434  0.00  0.00    +0.000 C 
ATOM     10  C   UNL     1       5.168   5.935  15.691  0.00  0.00    +0.000 C 
ATOM     11  C   UNL     1       5.721   6.654  16.905  0.00  0.00    +0.000 C 
ATOM     12  C   UNL     1       4.837   6.535  17.918  0.00  0.00    +0.000 C 
ATOM     13  N   UNL     1       3.804   5.726  17.505  0.00  0.00    +0.000 N 
ATOM     14  C   UNL     1       2.727   5.206  18.185  0.00  0.00    +0.000 C 
ATOM     15  O   UNL     1       1.570   5.394  17.808  0.00  0.00    +0.000 OA
ATOM     16  H   UNL     1       4.110   2.131  17.532  0.00  0.00    +0.000 HD
ENDROOT
BRANCH  11  17
ATOM     17  C   UNL     1       7.136   7.077  16.846  0.00  0.00    +0.000 C 
ATOM     18  C   UNL     1       7.636   8.055  17.873  0.00  0.00    +0.000 C 
ATOM     19  O   UNL     1       7.917   6.483  16.104  0.00  0.00    +0.000 OA
ENDBRANCH  11  17
BRANCH   1  21
ATOM     20  C   UNL     1       5.438   0.984  21.621  0.00  0.00    +0.000 C 
ATOM     21  O   UNL     1       5.058   1.409  20.310  0.00  0.00    +0.000 OA
ENDBRANCH   1  21
TORSDOF 2
ENDMDL
MODEL 4
REMARK VINA RESULT:      -6.7      1.804      2.135
REMARK  Name = 
REMARK  4 active torsions:
REMARK  status: ('A' for Active; 'I' for Inactive)
REMARK    1  A    between atoms: C_1  and  O_2
REMARK    2  A    between atoms: O_2  and  C_3
REMARK    3  A    between atoms: C_13  and  C_14
REMARK    4  A    between atoms: C_14  and  C_15
REMARK                            x       y       z     vdW  Elec       q    Type
REMARK                         _______ _______ _______ _____ _____    ______ ____
ROOT
ATOM      1  C   UNL     1       2.870   7.311  18.160  0.00  0.00    +0.000 A 
ATOM      2  C   UNL     1       1.968   6.900  19.157  0.00  0.00    +0.000 A 
ATOM      3  C   UNL     1       2.175   5.720  19.855  0.00  0.00    +0.000 A 
ATOM      4  C   UNL     1       3.266   4.929  19.530  0.00  0.00    +0.000 A 
ATOM      5  C   UNL     1       4.182   5.335  18.541  0.00  0.00    +0.000 A 
ATOM      6  C   UNL     1       4.050   6.570  17.872  0.00  0.00    +0.000 A 
ATOM      7  N   UNL     1       5.100   7.235  17.205  0.00  0.00    +0.000 N 
ATOM      8  C   UNL     1       6.012   6.608  16.245  0.00  0.00    +0.000 C 
ATOM      9  C   UNL     1       6.838   5.380  16.749  0.00  0.00    +0.000 C 
ATOM     10  C   UNL     1       7.536   4.678  15.589  0.00  0.00    +0.000 C 
ATOM     11  C   UNL     1       6.313   4.008  14.995  0.00  0.00    +0.000 C 
ATOM     12  C   UNL     1       5.423   3.778  15.984  0.00  0.00    +0.000 C 
ATOM     13  N   UNL     1       5.913   4.320  17.149  0.00  0.00    +0.000 N 
ATOM     14  C   UNL     1       5.350   4.456  18.397  0.00  0.00    +0.000 C 
ATOM     15  O   UNL     1       5.893   4.007  19.407  0.00  0.00    +0.000 OA
ATOM     16  H   UNL     1       5.586   7.841  17.865  0.00  0.00    +0.000 HD
ENDROOT
BRANCH  11  17
ATOM     17  C   UNL     1       6.209   3.989  13.521  0.00  0.00    +0.000 C 
ATOM     18  C   UNL     1       4.917   3.541  12.898  0.00  0.00    +0.000 C 
ATOM     19  O   UNL     1       7.089   4.521  12.844  0.00  0.00    +0.000 OA
ENDBRANCH  11  17
BRANCH   1  21
ATOM     20  C   UNL     1       1.510   9.216  17.909  0.00  0.00    +0.000 C 
ATOM     21  O   UNL     1       2.660   8.490  17.469  0.00  0.00    +0.000 OA
ENDBRANCH   1  21
TORSDOF 2
ENDMDL
MODEL 5
REMARK VINA RESULT:      -6.6      1.718      5.848
REMARK  Name = 
REMARK  4 active torsions:
REMARK  status: ('A' for Active; 'I' for Inactive)
REMARK    1  A    between atoms: C_1  and  O_2
REMARK    2  A    between atoms: O_2  and  C_3
REMARK    3  A    between atoms: C_13  and  C_14
REMARK    4  A    between atoms: C_14  and  C_15
REMARK                            x       y       z     vdW  Elec       q    Type
REMARK                         _______ _______ _______ _____ _____    ______ ____
ROOT
ATOM      1  C   UNL     1       5.862   4.807  15.446  0.00  0.00    +0.000 A 
ATOM      2  C   UNL     1       6.725   5.884  15.176  0.00  0.00    +0.000 A 
ATOM      3  C   UNL     1       7.272   6.627  16.211  0.00  0.00    +0.000 A 
ATOM      4  C   UNL     1       6.926   6.319  17.517  0.00  0.00    +0.000 A 
ATOM      5  C   UNL     1       6.071   5.236  17.800  0.00  0.00    +0.000 A 
ATOM      6  C   UNL     1       5.565   4.405  16.778  0.00  0.00    +0.000 A 
ATOM      7  N   UNL     1       5.074   3.099  16.978  0.00  0.00    +0.000 N 
ATOM      8  C   UNL     1       4.109   2.717  18.012  0.00  0.00    +0.000 C 
ATOM      9  C   UNL     1       4.503   3.015  19.495  0.00  0.00    +0.000 C 
ATOM     10  C   UNL     1       3.315   2.810  20.428  0.00  0.00    +0.000 C 
ATOM     11  C   UNL     1       2.547   4.061  20.053  0.00  0.00    +0.000 C 
ATOM     12  C   UNL     1       3.427   5.007  19.660  0.00  0.00    +0.000 C 
ATOM     13  N   UNL     1       4.688   4.457  19.656  0.00  0.00    +0.000 N 
ATOM     14  C   UNL     1       5.898   4.957  19.231  0.00  0.00    +0.000 C 
ATOM     15  O   UNL     1       6.876   5.010  19.977  0.00  0.00    +0.000 OA
ATOM     16  H   UNL     1       5.843   2.435  16.900  0.00  0.00    +0.000 HD
ENDROOT
BRANCH  11  17
ATOM     17  C   UNL     1       1.080   3.935  19.926  0.00  0.00    +0.000 C 
ATOM     18  C   UNL     1       0.521   2.726  19.228  0.00  0.00    +0.000 C 
ATOM     19  O   UNL     1       0.349   4.698  20.557  0.00  0.00    +0.000 OA
ENDBRANCH  11  17
BRANCH   1  21
ATOM     20  C   UNL     1       6.241   3.816  13.344  0.00  0.00    +0.000 C 
ATOM     21  O   UNL     1       5.322   4.068  14.409  0.00  0.00    +0.000 OA
ENDBRANCH   1  21
TORSDOF 2
ENDMDL
MODEL 6
REMARK VINA RESULT:      -6.4      1.977      3.687
REMARK  Name = 
REMARK  4 active torsions:
REMARK  status: ('A' for Active; 'I' for Inactive)
REMARK    1  A    between atoms: C_1  and  O_2
REMARK    2  A    between atoms: O_2  and  C_3
REMARK    3  A    between atoms: C_13  and  C_14
REMARK    4  A    between atoms: C_14  and  C_15
REMARK                            x       y       z     vdW  Elec       q    Type
REMARK                         _______ _______ _______ _____ _____    ______ ____
ROOT
ATOM      1  C   UNL     1       2.247   2.439  19.581  0.00  0.00    +0.000 A 
ATOM      2  C   UNL     1       1.709   2.325  20.875  0.00  0.00    +0.000 A 
ATOM      3  C   UNL     1       1.597   3.438  21.694  0.00  0.00    +0.000 A 
ATOM      4  C   UNL     1       2.059   4.661  21.235  0.00  0.00    +0.000 A 
ATOM      5  C   UNL     1       2.590   4.790  19.937  0.00  0.00    +0.000 A 
ATOM      6  C   UNL     1       2.639   3.697  19.046  0.00  0.00    +0.000 A 
ATOM      7  N   UNL     1       2.748   3.812  17.645  0.00  0.00    +0.000 N 
ATOM      8  C   UNL     1       3.723   4.656  16.948  0.00  0.00    +0.000 C 
ATOM      9  C   UNL     1       3.700   6.184  17.275  0.00  0.00    +0.000 C 
ATOM     10  C   UNL     1       4.918   6.887  16.687  0.00  0.00    +0.000 C 
ATOM     11  C   UNL     1       5.944   6.372  17.675  0.00  0.00    +0.000 C 
ATOM     12  C   UNL     1       5.330   6.140  18.855  0.00  0.00    +0.000 C 
ATOM     13  N   UNL     1       3.982   6.368  18.699  0.00  0.00    +0.000 N 
ATOM     14  C   UNL     1       2.920   6.167  19.551  0.00  0.00    +0.000 C 
ATOM     15  O   UNL     1       2.149   7.078  19.852  0.00  0.00    +0.000 OA
ATOM     16  H   UNL     1       1.816   3.879  17.239  0.00  0.00    +0.000 HD
ENDROOT
BRANCH  11  17
ATOM     17  C   UNL     1       7.262   5.982  17.132  0.00  0.00    +0.000 C 
ATOM     18  C   UNL     1       7.734   4.569  17.337  0.00  0.00    +0.000 C 
ATOM     19  O   UNL     1       7.850   6.741  16.361  0.00  0.00    +0.000 OA
ENDBRANCH  11  17
BRANCH   1  21
ATOM     20  C   UNL     1       3.703   0.954  18.478  0.00  0.00    +0.000 C 
ATOM     21  O   UNL     1       2.353   1.326  18.767  0.00  0.00    +0.000 OA
ENDBRANCH   1  21
TORSDOF 2
ENDMDL
MODEL 7
REMARK VINA RESULT:      -6.3      2.332      2.702
REMARK  Name = 
REMARK  4 active torsions:
REMARK  status: ('A' for Active; 'I' for Inactive)
REMARK    1  A    between atoms: C_1  and  O_2
REMARK    2  A    between atoms: O_2  and  C_3
REMARK    3  A    between atoms: C_13  and  C_14
REMARK    4  A    between atoms: C_14  and  C_15
REMARK                            x       y       z     vdW  Elec       q    Type
REMARK                         _______ _______ _______ _____ _____    ______ ____
ROOT
ATOM      1  C   UNL     1       2.593   3.324  18.783  0.00  0.00    +0.000 A 
ATOM      2  C   UNL     1       2.628   2.441  19.877  0.00  0.00    +0.000 A 
ATOM      3  C   UNL     1       3.782   2.297  20.631  0.00  0.00    +0.000 A 
ATOM      4  C   UNL     1       4.916   3.006  20.270  0.00  0.00    +0.000 A 
ATOM      5  C   UNL     1       4.891   3.901  19.183  0.00  0.00    +0.000 A 
ATOM      6  C   UNL     1       3.711   4.138  18.447  0.00  0.00    +0.000 A 
ATOM      7  N   UNL     1       3.479   5.279  17.652  0.00  0.00    +0.000 N 
ATOM      8  C   UNL     1       4.417   5.815  16.662  0.00  0.00    +0.000 C 
ATOM      9  C   UNL     1       5.840   6.211  17.176  0.00  0.00    +0.000 C 
ATOM     10  C   UNL     1       6.780   6.501  16.011  0.00  0.00    +0.000 C 
ATOM     11  C   UNL     1       6.997   5.068  15.567  0.00  0.00    +0.000 C 
ATOM     12  C   UNL     1       6.867   4.259  16.640  0.00  0.00    +0.000 C 
ATOM     13  N   UNL     1       6.495   5.022  17.722  0.00  0.00    +0.000 N 
ATOM     14  C   UNL     1       6.128   4.670  19.001  0.00  0.00    +0.000 C 
ATOM     15  O   UNL     1       6.706   5.124  19.988  0.00  0.00    +0.000 OA
ATOM     16  H   UNL     1       3.061   6.010  18.227  0.00  0.00    +0.000 HD
ENDROOT
BRANCH  11  17
ATOM     17  C   UNL     1       7.027   4.815  14.111  0.00  0.00    +0.000 C 
ATOM     18  C   UNL     1       6.028   3.854  13.529  0.00  0.00    +0.000 C 
ATOM     19  O   UNL     1       7.716   5.530  13.385  0.00  0.00    +0.000 OA
ENDBRANCH  11  17
BRANCH   1  21
ATOM     20  C   UNL     1       0.323   2.743  18.560  0.00  0.00    +0.000 C 
ATOM     21  O   UNL     1       1.439   3.466  18.035  0.00  0.00    +0.000 OA
ENDBRANCH   1  21
TORSDOF 2
ENDMDL
MODEL 8
REMARK VINA RESULT:      -6.2      2.107      5.884
REMARK  Name = 
REMARK  4 active torsions:
REMARK  status: ('A' for Active; 'I' for Inactive)
REMARK    1  A    between atoms: C_1  and  O_2
REMARK    2  A    between atoms: O_2  and  C_3
REMARK    3  A    between atoms: C_13  and  C_14
REMARK    4  A    between atoms: C_14  and  C_15
REMARK                            x       y       z     vdW  Elec       q    Type
REMARK                         _______ _______ _______ _____ _____    ______ ____
ROOT
ATOM      1  C   UNL     1       6.683   5.097  17.397  0.00  0.00    +0.000 A 
ATOM      2  C   UNL     1       7.063   5.513  16.109  0.00  0.00    +0.000 A 
ATOM      3  C   UNL     1       6.199   6.259  15.324  0.00  0.00    +0.000 A 
ATOM      4  C   UNL     1       4.937   6.559  15.810  0.00  0.00    +0.000 A 
ATOM      5  C   UNL     1       4.548   6.157  17.102  0.00  0.00    +0.000 A 
ATOM      6  C   UNL     1       5.431   5.471  17.962  0.00  0.00    +0.000 A 
ATOM      7  N   UNL     1       5.295   5.406  19.363  0.00  0.00    +0.000 N 
ATOM      8  C   UNL     1       4.058   5.062  20.069  0.00  0.00    +0.000 C 
ATOM      9  C   UNL     1       2.807   5.956  19.784  0.00  0.00    +0.000 C 
ATOM     10  C   UNL     1       1.546   5.335  20.374  0.00  0.00    +0.000 C 
ATOM     11  C   UNL     1       1.374   4.226  19.355  0.00  0.00    +0.000 C 
ATOM     12  C   UNL     1       1.897   4.635  18.179  0.00  0.00    +0.000 C 
ATOM     13  N   UNL     1       2.476   5.869  18.363  0.00  0.00    +0.000 N 
ATOM     14  C   UNL     1       3.231   6.654  17.522  0.00  0.00    +0.000 C 
ATOM     15  O   UNL     1       2.914   7.815  17.259  0.00  0.00    +0.000 OA
ATOM     16  H   UNL     1       5.775   6.200  19.785  0.00  0.00    +0.000 HD
ENDROOT
BRANCH  11  17
ATOM     17  C   UNL     1       0.956   2.904  19.866  0.00  0.00    +0.000 C 
ATOM     18  C   UNL     1       1.246   2.565  21.302  0.00  0.00    +0.000 C 
ATOM     19  O   UNL     1       0.213   2.198  19.185  0.00  0.00    +0.000 OA
ENDBRANCH  11  17
BRANCH   1  21
ATOM     20  C   UNL     1       8.314   5.143  19.094  0.00  0.00    +0.000 C 
ATOM     21  O   UNL     1       7.550   4.355  18.178  0.00  0.00    +0.000 OA
ENDBRANCH   1  21
TORSDOF 2
ENDMDL
MODEL 9
REMARK VINA RESULT:      -5.9      9.199     13.091
REMARK  Name = 
REMARK  4 active torsions:
REMARK  status: ('A' for Active; 'I' for Inactive)
REMARK    1  A    between atoms: C_1  and  O_2
REMARK    2  A    between atoms: O_2  and  C_3
REMARK    3  A    between atoms: C_13  and  C_14
REMARK    4  A    between atoms: C_14  and  C_15
REMARK                            x       y       z     vdW  Elec       q    Type
REMARK                         _______ _______ _______ _____ _____    ______ ____
ROOT
ATOM      1  C   UNL     1      -2.164  11.279  18.937  0.00  0.00    +0.000 A 
ATOM      2  C   UNL     1      -1.944  10.382  17.877  0.00  0.00    +0.000 A 
ATOM      3  C   UNL     1      -2.966  10.066  16.995  0.00  0.00    +0.000 A 
ATOM      4  C   UNL     1      -4.222  10.617  17.194  0.00  0.00    +0.000 A 
ATOM      5  C   UNL     1      -4.452  11.525  18.246  0.00  0.00    +0.000 A 
ATOM      6  C   UNL     1      -3.415  11.936  19.110  0.00  0.00    +0.000 A 
ATOM      7  N   UNL     1      -3.440  13.111  19.887  0.00  0.00    +0.000 N 
ATOM      8  C   UNL     1      -4.556  13.528  20.739  0.00  0.00    +0.000 C 
ATOM      9  C   UNL     1      -5.946  13.713  20.047  0.00  0.00    +0.000 C 
ATOM     10  C   UNL     1      -7.053  13.889  21.081  0.00  0.00    +0.000 C 
ATOM     11  C   UNL     1      -7.125  12.449  21.544  0.00  0.00    +0.000 C 
ATOM     12  C   UNL     1      -6.756  11.647  20.522  0.00  0.00    +0.000 C 
ATOM     13  N   UNL     1      -6.361  12.436  19.467  0.00  0.00    +0.000 N 
ATOM     14  C   UNL     1      -5.795  12.118  18.253  0.00  0.00    +0.000 C 
ATOM     15  O   UNL     1      -6.304  12.470  17.189  0.00  0.00    +0.000 OA
ATOM     16  H   UNL     1      -3.058  13.883  19.342  0.00  0.00    +0.000 HD
ENDROOT
BRANCH  11  17
ATOM     17  C   UNL     1      -7.299  12.218  22.993  0.00  0.00    +0.000 C 
ATOM     18  C   UNL     1      -7.001  13.346  23.941  0.00  0.00    +0.000 C 
ATOM     19  O   UNL     1      -7.868  11.197  23.381  0.00  0.00    +0.000 OA
ENDBRANCH  11  17
BRANCH   1  21
ATOM     20  C   UNL     1       0.102  11.875  19.163  0.00  0.00    +0.000 C 
ATOM     21  O   UNL     1      -1.141  11.593  19.812  0.00  0.00    +0.000 OA
ENDBRANCH   1  21
TORSDOF 2
ENDMDL
