MODEL 1
REMARK VINA RESULT:      -7.2      0.000      0.000
REMARK  Name = 
REMARK  6 active torsions:
REMARK  status: ('A' for Active; 'I' for Inactive)
REMARK    1  A    between atoms: C_1  and  C_2
REMARK    2  A    between atoms: C_2  and  C_3
REMARK    3  A    between atoms: C_2  and  N_5
REMARK    4  A    between atoms: C_3  and  O_4
REMARK    5  A    between atoms: N_8  and  C_9
REMARK    6  A    between atoms: C_16  and  C_17
REMARK                            x       y       z     vdW  Elec       q    Type
REMARK                         _______ _______ _______ _____ _____    ______ ____
ROOT
ATOM      1  N   UNL     1       1.042  13.490  20.655  0.00  0.00    +0.000 N 
ATOM      2  C   UNL     1       0.551  14.774  21.014  0.00  0.00    +0.000 A 
ATOM      3  O   UNL     1       0.879  15.853  20.550  0.00  0.00    +0.000 OA
ATOM      4  N   UNL     1      -0.395  14.571  22.024  0.00  0.00    +0.000 N 
ATOM      5  C   UNL     1      -1.089  15.602  22.744  0.00  0.00    +0.000 C 
ATOM      6  C   UNL     1      -0.536  13.204  22.241  0.00  0.00    +0.000 A 
ATOM      7  C   UNL     1      -1.368  12.548  23.105  0.00  0.00    +0.000 A 
ATOM      8  N   UNL     1      -1.383  11.208  23.151  0.00  0.00    +0.000 NA
ATOM      9  C   UNL     1      -0.560  10.530  22.321  0.00  0.00    +0.000 A 
ATOM     10  C   UNL     1      -0.638   9.158  22.396  0.00  0.00    +0.000 A 
ATOM     11  C   UNL     1       0.139   8.353  21.577  0.00  0.00    +0.000 A 
ATOM     12  C   UNL     1       0.996   8.949  20.664  0.00  0.00    +0.000 A 
ATOM     13  N   UNL     1       1.127  10.305  20.577  0.00  0.00    +0.000 NA
ATOM     14  C   UNL     1       0.353  11.096  21.390  0.00  0.00    +0.000 A 
ATOM     15  C   UNL     1       0.331  12.498  21.399  0.00  0.00    +0.000 A 
ENDROOT
BRANCH  12  16
ATOM     16  C   UNL     1       1.797   8.077  19.758  0.00  0.00    +0.000 A 
ATOM     17  C   UNL     1       2.159   8.525  18.529  0.00  0.00    +0.000 A 
ATOM     18  N   UNL     1       2.953   7.790  17.667  0.00  0.00    +0.000 N 
ATOM     19  C   UNL     1       3.414   6.553  18.025  0.00  0.00    +0.000 A 
ATOM     20  N   UNL     1       4.173   5.706  17.382  0.00  0.00    +0.000 NA
ATOM     21  N   UNL     1       4.353   4.522  18.224  0.00  0.00    +0.000 NA
ATOM     22  C   UNL     1       3.693   4.711  19.329  0.00  0.00    +0.000 A 
ATOM     23  C   UNL     1       3.041   6.000  19.330  0.00  0.00    +0.000 A 
ATOM     24  C   UNL     1       2.264   6.717  20.146  0.00  0.00    +0.000 A 
ATOM     25  H   UNL     1       3.201   8.165  16.761  0.00  0.00    +0.000 HD
ENDBRANCH  12  16
BRANCH   1  27
ATOM     26  C   UNL     1       3.289  14.228  19.899  0.00  0.00    +0.000 C 
ATOM     27  C   UNL     1       2.106  13.267  19.675  0.00  0.00    +0.000 C 
BRANCH  27  28
ATOM     28  C   UNL     1       1.599  13.436  18.232  0.00  0.00    +0.000 C 
BRANCH  28  29
ATOM     29  O   UNL     1       2.388  12.694  17.306  0.00  0.00    +0.000 OA
ATOM     30  H   UNL     1       2.356  11.766  17.592  0.00  0.00    +0.000 HD
ENDBRANCH  28  29
ENDBRANCH  27  28
ENDBRANCH   1  27
TORSDOF 4
ENDMDL
MODEL 2
REMARK VINA RESULT:      -6.8      1.060      1.078
REMARK  Name = 
REMARK  6 active torsions:
REMARK  status: ('A' for Active; 'I' for Inactive)
REMARK    1  A    between atoms: C_1  and  C_2
REMARK    2  A    between atoms: C_2  and  C_3
REMARK    3  A    between atoms: C_2  and  N_5
REMARK    4  A    between atoms: C_3  and  O_4
REMARK    5  A    between atoms: N_8  and  C_9
REMARK    6  A    between atoms: C_16  and  C_17
REMARK                            x       y       z     vdW  Elec       q    Type
REMARK                         _______ _______ _______ _____ _____    ______ ____
ROOT
ATOM      1  N   UNL     1      -0.123  13.626  20.334  0.00  0.00    +0.000 N 
ATOM      2  C   UNL     1      -0.808  14.825  20.663  0.00  0.00    +0.000 A 
ATOM      3  O   UNL     1      -0.810  15.877  20.044  0.00  0.00    +0.000 OA
ATOM      4  N   UNL     1      -1.494  14.578  21.857  0.00  0.00    +0.000 N 
ATOM      5  C   UNL     1      -2.256  15.540  22.603  0.00  0.00    +0.000 C 
ATOM      6  C   UNL     1      -1.294  13.252  22.224  0.00  0.00    +0.000 A 
ATOM      7  C   UNL     1      -1.797  12.566  23.295  0.00  0.00    +0.000 A 
ATOM      8  N   UNL     1      -1.513  11.267  23.467  0.00  0.00    +0.000 NA
ATOM      9  C   UNL     1      -0.723  10.659  22.556  0.00  0.00    +0.000 A 
ATOM     10  C   UNL     1      -0.487   9.320  22.772  0.00  0.00    +0.000 A 
ATOM     11  C   UNL     1       0.288   8.580  21.893  0.00  0.00    +0.000 A 
ATOM     12  C   UNL     1       0.820   9.206  20.774  0.00  0.00    +0.000 A 
ATOM     13  N   UNL     1       0.636  10.537  20.537  0.00  0.00    +0.000 NA
ATOM     14  C   UNL     1      -0.134  11.263  21.412  0.00  0.00    +0.000 A 
ATOM     15  C   UNL     1      -0.458  12.622  21.294  0.00  0.00    +0.000 A 
ENDROOT
BRANCH  12  16
ATOM     16  C   UNL     1       1.616   8.394  19.811  0.00  0.00    +0.000 A 
ATOM     17  C   UNL     1       1.898   8.886  18.578  0.00  0.00    +0.000 A 
ATOM     18  N   UNL     1       2.685   8.210  17.662  0.00  0.00    +0.000 N 
ATOM     19  C   UNL     1       3.219   6.988  17.968  0.00  0.00    +0.000 A 
ATOM     20  N   UNL     1       3.986   6.193  17.270  0.00  0.00    +0.000 NA
ATOM     21  N   UNL     1       4.261   5.001  18.073  0.00  0.00    +0.000 NA
ATOM     22  C   UNL     1       3.646   5.134  19.212  0.00  0.00    +0.000 A 
ATOM     23  C   UNL     1       2.936   6.389  19.275  0.00  0.00    +0.000 A 
ATOM     24  C   UNL     1       2.165   7.049  20.143  0.00  0.00    +0.000 A 
ATOM     25  H   UNL     1       2.871   8.617  16.755  0.00  0.00    +0.000 HD
ENDBRANCH  12  16
BRANCH   1  27
ATOM     26  C   UNL     1       1.983  14.435  19.294  0.00  0.00    +0.000 C 
ATOM     27  C   UNL     1       0.773  13.486  19.185  0.00  0.00    +0.000 C 
BRANCH  27  28
ATOM     28  C   UNL     1       0.047  13.763  17.856  0.00  0.00    +0.000 C 
BRANCH  28  29
ATOM     29  O   UNL     1      -1.051  12.875  17.661  0.00  0.00    +0.000 OA
ATOM     30  H   UNL     1      -1.615  12.950  18.449  0.00  0.00    +0.000 HD
ENDBRANCH  28  29
ENDBRANCH  27  28
ENDBRANCH   1  27
TORSDOF 4
ENDMDL
MODEL 3
REMARK VINA RESULT:      -6.7      1.074      1.499
REMARK  Name = 
REMARK  6 active torsions:
REMARK  status: ('A' for Active; 'I' for Inactive)
REMARK    1  A    between atoms: C_1  and  C_2
REMARK    2  A    between atoms: C_2  and  C_3
REMARK    3  A    between atoms: C_2  and  N_5
REMARK    4  A    between atoms: C_3  and  O_4
REMARK    5  A    between atoms: N_8  and  C_9
REMARK    6  A    between atoms: C_16  and  C_17
REMARK                            x       y       z     vdW  Elec       q    Type
REMARK                         _______ _______ _______ _____ _____    ______ ____
ROOT
ATOM      1  N   UNL     1       1.068  13.859  20.519  0.00  0.00    +0.000 N 
ATOM      2  C   UNL     1       0.699  15.228  20.607  0.00  0.00    +0.000 A 
ATOM      3  O   UNL     1       1.121  16.158  19.939  0.00  0.00    +0.000 OA
ATOM      4  N   UNL     1      -0.254  15.320  21.627  0.00  0.00    +0.000 N 
ATOM      5  C   UNL     1      -0.846  16.533  22.117  0.00  0.00    +0.000 C 
ATOM      6  C   UNL     1      -0.517  14.043  22.112  0.00  0.00    +0.000 A 
ATOM      7  C   UNL     1      -1.399  13.652  23.082  0.00  0.00    +0.000 A 
ATOM      8  N   UNL     1      -1.536  12.356  23.396  0.00  0.00    +0.000 NA
ATOM      9  C   UNL     1      -0.785  11.453  22.729  0.00  0.00    +0.000 A 
ATOM     10  C   UNL     1      -0.986  10.137  23.077  0.00  0.00    +0.000 A 
ATOM     11  C   UNL     1      -0.293   9.117  22.446  0.00  0.00    +0.000 A 
ATOM     12  C   UNL     1       0.609   9.436  21.440  0.00  0.00    +0.000 A 
ATOM     13  N   UNL     1       0.862  10.729  21.084  0.00  0.00    +0.000 NA
ATOM     14  C   UNL     1       0.170  11.734  21.713  0.00  0.00    +0.000 A 
ATOM     15  C   UNL     1       0.276  13.106  21.439  0.00  0.00    +0.000 A 
ENDROOT
BRANCH  12  16
ATOM     16  C   UNL     1       1.319   8.331  20.737  0.00  0.00    +0.000 A 
ATOM     17  C   UNL     1       1.329   7.083  21.269  0.00  0.00    +0.000 A 
ATOM     18  N   UNL     1       1.916   6.001  20.636  0.00  0.00    +0.000 N 
ATOM     19  C   UNL     1       2.528   6.151  19.421  0.00  0.00    +0.000 A 
ATOM     20  N   UNL     1       3.125   5.279  18.653  0.00  0.00    +0.000 NA
ATOM     21  N   UNL     1       3.614   5.977  17.463  0.00  0.00    +0.000 NA
ATOM     22  C   UNL     1       3.292   7.233  17.573  0.00  0.00    +0.000 A 
ATOM     23  C   UNL     1       2.573   7.478  18.801  0.00  0.00    +0.000 A 
ATOM     24  C   UNL     1       2.012   8.514  19.431  0.00  0.00    +0.000 A 
ATOM     25  H   UNL     1       1.896   5.088  21.069  0.00  0.00    +0.000 HD
ENDBRANCH  12  16
BRANCH   1  27
ATOM     26  C   UNL     1       3.408  14.152  19.740  0.00  0.00    +0.000 C 
ATOM     27  C   UNL     1       2.100  13.348  19.616  0.00  0.00    +0.000 C 
BRANCH  27  28
ATOM     28  C   UNL     1       1.640  13.377  18.147  0.00  0.00    +0.000 C 
BRANCH  28  29
ATOM     29  O   UNL     1       2.407  12.490  17.337  0.00  0.00    +0.000 OA
ATOM     30  H   UNL     1       2.268  12.763  16.415  0.00  0.00    +0.000 HD
ENDBRANCH  28  29
ENDBRANCH  27  28
ENDBRANCH   1  27
TORSDOF 4
ENDMDL
MODEL 4
REMARK VINA RESULT:      -6.6      3.735      9.006
REMARK  Name = 
REMARK  6 active torsions:
REMARK  status: ('A' for Active; 'I' for Inactive)
REMARK    1  A    between atoms: C_1  and  C_2
REMARK    2  A    between atoms: C_2  and  C_3
REMARK    3  A    between atoms: C_2  and  N_5
REMARK    4  A    between atoms: C_3  and  O_4
REMARK    5  A    between atoms: N_8  and  C_9
REMARK    6  A    between atoms: C_16  and  C_17
REMARK                            x       y       z     vdW  Elec       q    Type
REMARK                         _______ _______ _______ _____ _____    ______ ____
ROOT
ATOM      1  N   UNL     1       2.958   4.186  19.452  0.00  0.00    +0.000 N 
ATOM      2  C   UNL     1       3.526   3.034  18.845  0.00  0.00    +0.000 A 
ATOM      3  O   UNL     1       3.446   1.877  19.223  0.00  0.00    +0.000 OA
ATOM      4  N   UNL     1       4.215   3.478  17.712  0.00  0.00    +0.000 N 
ATOM      5  C   UNL     1       5.011   2.662  16.838  0.00  0.00    +0.000 C 
ATOM      6  C   UNL     1       4.028   4.850  17.581  0.00  0.00    +0.000 A 
ATOM      7  C   UNL     1       4.484   5.696  16.608  0.00  0.00    +0.000 A 
ATOM      8  N   UNL     1       4.171   6.999  16.635  0.00  0.00    +0.000 NA
ATOM      9  C   UNL     1       3.393   7.449  17.644  0.00  0.00    +0.000 A 
ATOM     10  C   UNL     1       3.085   8.790  17.605  0.00  0.00    +0.000 A 
ATOM     11  C   UNL     1       2.274   9.364  18.571  0.00  0.00    +0.000 A 
ATOM     12  C   UNL     1       1.760   8.564  19.582  0.00  0.00    +0.000 A 
ATOM     13  N   UNL     1       2.064   7.237  19.676  0.00  0.00    +0.000 NA
ATOM     14  C   UNL     1       2.867   6.675  18.714  0.00  0.00    +0.000 A 
ATOM     15  C   UNL     1       3.240   5.325  18.636  0.00  0.00    +0.000 A 
ENDROOT
BRANCH  12  16
ATOM     16  C   UNL     1       0.854   9.180  20.593  0.00  0.00    +0.000 A 
ATOM     17  C   UNL     1       0.253   8.404  21.529  0.00  0.00    +0.000 A 
ATOM     18  N   UNL     1      -0.548   8.922  22.532  0.00  0.00    +0.000 N 
ATOM     19  C   UNL     1      -0.774  10.268  22.619  0.00  0.00    +0.000 A 
ATOM     20  N   UNL     1      -1.475  10.962  23.476  0.00  0.00    +0.000 NA
ATOM     21  N   UNL     1      -1.387  12.374  23.103  0.00  0.00    +0.000 NA
ATOM     22  C   UNL     1      -0.642  12.463  22.039  0.00  0.00    +0.000 A 
ATOM     23  C   UNL     1      -0.172  11.162  21.626  0.00  0.00    +0.000 A 
ATOM     24  C   UNL     1       0.589  10.645  20.657  0.00  0.00    +0.000 A 
ATOM     25  H   UNL     1      -0.974   8.305  23.210  0.00  0.00    +0.000 HD
ENDBRANCH  12  16
BRANCH   1  27
ATOM     26  C   UNL     1       2.681   3.014  21.624  0.00  0.00    +0.000 C 
ATOM     27  C   UNL     1       2.211   4.162  20.710  0.00  0.00    +0.000 C 
BRANCH  27  28
ATOM     28  C   UNL     1       0.697   4.018  20.474  0.00  0.00    +0.000 C 
BRANCH  28  29
ATOM     29  O   UNL     1       0.382   2.800  19.804  0.00  0.00    +0.000 OA
ATOM     30  H   UNL     1      -0.569   2.649  19.931  0.00  0.00    +0.000 HD
ENDBRANCH  28  29
ENDBRANCH  27  28
ENDBRANCH   1  27
TORSDOF 4
ENDMDL
MODEL 5
REMARK VINA RESULT:      -6.6      2.712      2.919
REMARK  Name = 
REMARK  6 active torsions:
REMARK  status: ('A' for Active; 'I' for Inactive)
REMARK    1  A    between atoms: C_1  and  C_2
REMARK    2  A    between atoms: C_2  and  C_3
REMARK    3  A    between atoms: C_2  and  N_5
REMARK    4  A    between atoms: C_3  and  O_4
REMARK    5  A    between atoms: N_8  and  C_9
REMARK    6  A    between atoms: C_16  and  C_17
REMARK                            x       y       z     vdW  Elec       q    Type
REMARK                         _______ _______ _______ _____ _____    ______ ____
ROOT
ATOM      1  N   UNL     1      -2.259  11.620  19.567  0.00  0.00    +0.000 N 
ATOM      2  C   UNL     1      -3.357  12.472  19.860  0.00  0.00    +0.000 A 
ATOM      3  O   UNL     1      -4.164  12.943  19.076  0.00  0.00    +0.000 OA
ATOM      4  N   UNL     1      -3.342  12.681  21.243  0.00  0.00    +0.000 N 
ATOM      5  C   UNL     1      -4.226  13.548  21.972  0.00  0.00    +0.000 C 
ATOM      6  C   UNL     1      -2.310  11.933  21.800  0.00  0.00    +0.000 A 
ATOM      7  C   UNL     1      -1.946  11.805  23.112  0.00  0.00    +0.000 A 
ATOM      8  N   UNL     1      -0.929  11.004  23.462  0.00  0.00    +0.000 NA
ATOM      9  C   UNL     1      -0.282  10.329  22.488  0.00  0.00    +0.000 A 
ATOM     10  C   UNL     1       0.736   9.504  22.910  0.00  0.00    +0.000 A 
ATOM     11  C   UNL     1       1.458   8.741  22.007  0.00  0.00    +0.000 A 
ATOM     12  C   UNL     1       1.135   8.807  20.659  0.00  0.00    +0.000 A 
ATOM     13  N   UNL     1       0.154   9.633  20.193  0.00  0.00    +0.000 NA
ATOM     14  C   UNL     1      -0.558  10.386  21.094  0.00  0.00    +0.000 A 
ATOM     15  C   UNL     1      -1.621  11.248  20.791  0.00  0.00    +0.000 A 
ENDROOT
BRANCH  12  16
ATOM     16  C   UNL     1       1.887   7.951  19.699  0.00  0.00    +0.000 A 
ATOM     17  C   UNL     1       2.243   8.442  18.485  0.00  0.00    +0.000 A 
ATOM     18  N   UNL     1       2.996   7.721  17.574  0.00  0.00    +0.000 N 
ATOM     19  C   UNL     1       3.419   6.453  17.867  0.00  0.00    +0.000 A 
ATOM     20  N   UNL     1       4.136   5.611  17.172  0.00  0.00    +0.000 NA
ATOM     21  N   UNL     1       4.289   4.385  17.956  0.00  0.00    +0.000 NA
ATOM     22  C   UNL     1       3.656   4.545  19.081  0.00  0.00    +0.000 A 
ATOM     23  C   UNL     1       3.051   5.854  19.153  0.00  0.00    +0.000 A 
ATOM     24  C   UNL     1       2.313   6.559  20.016  0.00  0.00    +0.000 A 
ATOM     25  H   UNL     1       3.240   8.129  16.682  0.00  0.00    +0.000 HD
ENDBRANCH  12  16
BRANCH   1  27
ATOM     26  C   UNL     1      -1.180  12.359  17.456  0.00  0.00    +0.000 C 
ATOM     27  C   UNL     1      -1.879  11.214  18.214  0.00  0.00    +0.000 C 
BRANCH  27  28
ATOM     28  C   UNL     1      -3.095  10.749  17.393  0.00  0.00    +0.000 C 
BRANCH  28  29
ATOM     29  O   UNL     1      -3.472  11.714  16.415  0.00  0.00    +0.000 OA
ATOM     30  H   UNL     1      -3.952  11.235  15.720  0.00  0.00    +0.000 HD
ENDBRANCH  28  29
ENDBRANCH  27  28
ENDBRANCH   1  27
TORSDOF 4
ENDMDL
MODEL 6
REMARK VINA RESULT:      -6.6      3.468      8.138
REMARK  Name = 
REMARK  6 active torsions:
REMARK  status: ('A' for Active; 'I' for Inactive)
REMARK    1  A    between atoms: C_1  and  C_2
REMARK    2  A    between atoms: C_2  and  C_3
REMARK    3  A    between atoms: C_2  and  N_5
REMARK    4  A    between atoms: C_3  and  O_4
REMARK    5  A    between atoms: N_8  and  C_9
REMARK    6  A    between atoms: C_16  and  C_17
REMARK                            x       y       z     vdW  Elec       q    Type
REMARK                         _______ _______ _______ _____ _____    ______ ____
ROOT
ATOM      1  N   UNL     1       4.548   5.694  18.088  0.00  0.00    +0.000 N 
ATOM      2  C   UNL     1       5.155   4.409  18.102  0.00  0.00    +0.000 A 
ATOM      3  O   UNL     1       6.132   4.040  17.471  0.00  0.00    +0.000 OA
ATOM      4  N   UNL     1       4.407   3.624  18.986  0.00  0.00    +0.000 N 
ATOM      5  C   UNL     1       4.612   2.227  19.249  0.00  0.00    +0.000 C 
ATOM      6  C   UNL     1       3.410   4.411  19.553  0.00  0.00    +0.000 A 
ATOM      7  C   UNL     1       2.473   4.075  20.491  0.00  0.00    +0.000 A 
ATOM      8  N   UNL     1       1.603   4.990  20.942  0.00  0.00    +0.000 NA
ATOM      9  C   UNL     1       1.681   6.246  20.451  0.00  0.00    +0.000 A 
ATOM     10  C   UNL     1       0.780   7.146  20.970  0.00  0.00    +0.000 A 
ATOM     11  C   UNL     1       0.778   8.471  20.563  0.00  0.00    +0.000 A 
ATOM     12  C   UNL     1       1.712   8.889  19.626  0.00  0.00    +0.000 A 
ATOM     13  N   UNL     1       2.604   8.024  19.062  0.00  0.00    +0.000 NA
ATOM     14  C   UNL     1       2.601   6.713  19.472  0.00  0.00    +0.000 A 
ATOM     15  C   UNL     1       3.474   5.709  19.030  0.00  0.00    +0.000 A 
ENDROOT
BRANCH  12  16
ATOM     16  C   UNL     1       1.731  10.324  19.225  0.00  0.00    +0.000 A 
ATOM     17  C   UNL     1       2.308  10.695  18.054  0.00  0.00    +0.000 A 
ATOM     18  N   UNL     1       2.303  12.000  17.595  0.00  0.00    +0.000 N 
ATOM     19  C   UNL     1       1.707  12.994  18.322  0.00  0.00    +0.000 A 
ATOM     20  N   UNL     1       1.577  14.271  18.077  0.00  0.00    +0.000 NA
ATOM     21  N   UNL     1       0.858  14.881  19.196  0.00  0.00    +0.000 NA
ATOM     22  C   UNL     1       0.591  13.945  20.060  0.00  0.00    +0.000 A 
ATOM     23  C   UNL     1       1.084  12.666  19.608  0.00  0.00    +0.000 A 
ATOM     24  C   UNL     1       1.107  11.403  20.042  0.00  0.00    +0.000 A 
ATOM     25  H   UNL     1       2.744  12.230  16.714  0.00  0.00    +0.000 HD
ENDBRANCH  12  16
BRANCH   1  27
ATOM     26  C   UNL     1       4.899   6.420  15.739  0.00  0.00    +0.000 C 
ATOM     27  C   UNL     1       4.988   6.795  17.231  0.00  0.00    +0.000 C 
BRANCH  27  28
ATOM     28  C   UNL     1       6.431   7.225  17.547  0.00  0.00    +0.000 C 
BRANCH  28  29
ATOM     29  O   UNL     1       7.362   6.669  16.623  0.00  0.00    +0.000 OA
ATOM     30  H   UNL     1       7.836   5.964  17.094  0.00  0.00    +0.000 HD
ENDBRANCH  28  29
ENDBRANCH  27  28
ENDBRANCH   1  27
TORSDOF 4
ENDMDL
MODEL 7
REMARK VINA RESULT:      -6.5      3.818      4.318
REMARK  Name = 
REMARK  6 active torsions:
REMARK  status: ('A' for Active; 'I' for Inactive)
REMARK    1  A    between atoms: C_1  and  C_2
REMARK    2  A    between atoms: C_2  and  C_3
REMARK    3  A    between atoms: C_2  and  N_5
REMARK    4  A    between atoms: C_3  and  O_4
REMARK    5  A    between atoms: N_8  and  C_9
REMARK    6  A    between atoms: C_16  and  C_17
REMARK                            x       y       z     vdW  Elec       q    Type
REMARK                         _______ _______ _______ _____ _____    ______ ____
ROOT
ATOM      1  N   UNL     1      -4.121  11.692  18.462  0.00  0.00    +0.000 N 
ATOM      2  C   UNL     1      -5.391  12.321  18.562  0.00  0.00    +0.000 A 
ATOM      3  O   UNL     1      -6.370  12.138  17.858  0.00  0.00    +0.000 OA
ATOM      4  N   UNL     1      -5.311  13.213  19.637  0.00  0.00    +0.000 N 
ATOM      5  C   UNL     1      -6.340  14.124  20.051  0.00  0.00    +0.000 C 
ATOM      6  C   UNL     1      -4.056  13.095  20.226  0.00  0.00    +0.000 A 
ATOM      7  C   UNL     1      -3.551  13.744  21.319  0.00  0.00    +0.000 A 
ATOM      8  N   UNL     1      -2.314  13.472  21.761  0.00  0.00    +0.000 NA
ATOM      9  C   UNL     1      -1.589  12.543  21.101  0.00  0.00    +0.000 A 
ATOM     10  C   UNL     1      -0.338  12.289  21.616  0.00  0.00    +0.000 A 
ATOM     11  C   UNL     1       0.492  11.339  21.041  0.00  0.00    +0.000 A 
ATOM     12  C   UNL     1       0.040  10.629  19.937  0.00  0.00    +0.000 A 
ATOM     13  N   UNL     1      -1.181  10.870  19.377  0.00  0.00    +0.000 NA
ATOM     14  C   UNL     1      -1.997  11.812  19.952  0.00  0.00    +0.000 A 
ATOM     15  C   UNL     1      -3.292  12.149  19.532  0.00  0.00    +0.000 A 
ENDROOT
BRANCH  12  16
ATOM     16  C   UNL     1       0.920   9.579  19.351  0.00  0.00    +0.000 A 
ATOM     17  C   UNL     1       1.429   9.738  18.103  0.00  0.00    +0.000 A 
ATOM     18  N   UNL     1       2.302   8.832  17.527  0.00  0.00    +0.000 N 
ATOM     19  C   UNL     1       2.693   7.711  18.207  0.00  0.00    +0.000 A 
ATOM     20  N   UNL     1       3.504   6.745  17.865  0.00  0.00    +0.000 NA
ATOM     21  N   UNL     1       3.563   5.785  18.969  0.00  0.00    +0.000 NA
ATOM     22  C   UNL     1       2.785   6.217  19.918  0.00  0.00    +0.000 A 
ATOM     23  C   UNL     1       2.164   7.467  19.552  0.00  0.00    +0.000 A 
ATOM     24  C   UNL     1       1.313   8.346  20.089  0.00  0.00    +0.000 A 
ATOM     25  H   UNL     1       2.658   8.993  16.594  0.00  0.00    +0.000 HD
ENDBRANCH  12  16
BRANCH   1  27
ATOM     26  C   UNL     1      -3.341   9.378  18.010  0.00  0.00    +0.000 C 
ATOM     27  C   UNL     1      -3.765  10.734  17.415  0.00  0.00    +0.000 C 
BRANCH  27  28
ATOM     28  C   UNL     1      -2.627  11.259  16.522  0.00  0.00    +0.000 C 
BRANCH  28  29
ATOM     29  O   UNL     1      -3.098  11.628  15.229  0.00  0.00    +0.000 OA
ATOM     30  H   UNL     1      -3.943  12.087  15.360  0.00  0.00    +0.000 HD
ENDBRANCH  28  29
ENDBRANCH  27  28
ENDBRANCH   1  27
TORSDOF 4
ENDMDL
MODEL 8
REMARK VINA RESULT:      -6.5      3.845      4.524
REMARK  Name = 
REMARK  6 active torsions:
REMARK  status: ('A' for Active; 'I' for Inactive)
REMARK    1  A    between atoms: C_1  and  C_2
REMARK    2  A    between atoms: C_2  and  C_3
REMARK    3  A    between atoms: C_2  and  N_5
REMARK    4  A    between atoms: C_3  and  O_4
REMARK    5  A    between atoms: N_8  and  C_9
REMARK    6  A    between atoms: C_16  and  C_17
REMARK                            x       y       z     vdW  Elec       q    Type
REMARK                         _______ _______ _______ _____ _____    ______ ____
ROOT
ATOM      1  N   UNL     1      -4.138  11.920  18.422  0.00  0.00    +0.000 N 
ATOM      2  C   UNL     1      -5.378  12.587  18.229  0.00  0.00    +0.000 A 
ATOM      3  O   UNL     1      -6.147  12.473  17.288  0.00  0.00    +0.000 OA
ATOM      4  N   UNL     1      -5.559  13.421  19.337  0.00  0.00    +0.000 N 
ATOM      5  C   UNL     1      -6.643  14.345  19.524  0.00  0.00    +0.000 C 
ATOM      6  C   UNL     1      -4.502  13.232  20.220  0.00  0.00    +0.000 A 
ATOM      7  C   UNL     1      -4.282  13.808  21.441  0.00  0.00    +0.000 A 
ATOM      8  N   UNL     1      -3.207  13.472  22.169  0.00  0.00    +0.000 NA
ATOM      9  C   UNL     1      -2.355  12.553  21.666  0.00  0.00    +0.000 A 
ATOM     10  C   UNL     1      -1.284  12.231  22.469  0.00  0.00    +0.000 A 
ATOM     11  C   UNL     1      -0.354  11.283  22.073  0.00  0.00    +0.000 A 
ATOM     12  C   UNL     1      -0.521  10.645  20.852  0.00  0.00    +0.000 A 
ATOM     13  N   UNL     1      -1.550  10.954  20.012  0.00  0.00    +0.000 NA
ATOM     14  C   UNL     1      -2.468  11.894  20.411  0.00  0.00    +0.000 A 
ATOM     15  C   UNL     1      -3.604  12.295  19.693  0.00  0.00    +0.000 A 
ENDROOT
BRANCH  12  16
ATOM     16  C   UNL     1       0.460   9.596  20.453  0.00  0.00    +0.000 A 
ATOM     17  C   UNL     1       0.801   8.617  21.328  0.00  0.00    +0.000 A 
ATOM     18  N   UNL     1       1.656   7.580  20.998  0.00  0.00    +0.000 N 
ATOM     19  C   UNL     1       2.207   7.500  19.748  0.00  0.00    +0.000 A 
ATOM     20  N   UNL     1       3.016   6.616  19.227  0.00  0.00    +0.000 NA
ATOM     21  N   UNL     1       3.303   7.015  17.848  0.00  0.00    +0.000 NA
ATOM     22  C   UNL     1       2.657   8.119  17.607  0.00  0.00    +0.000 A 
ATOM     23  C   UNL     1       1.898   8.538  18.761  0.00  0.00    +0.000 A 
ATOM     24  C   UNL     1       1.080   9.539  19.099  0.00  0.00    +0.000 A 
ATOM     25  H   UNL     1       1.880   6.870  21.682  0.00  0.00    +0.000 HD
ENDBRANCH  12  16
BRANCH   1  27
ATOM     26  C   UNL     1      -3.525   9.556  17.974  0.00  0.00    +0.000 C 
ATOM     27  C   UNL     1      -3.544  11.004  17.448  0.00  0.00    +0.000 C 
BRANCH  27  28
ATOM     28  C   UNL     1      -2.107  11.414  17.080  0.00  0.00    +0.000 C 
BRANCH  28  29
ATOM     29  O   UNL     1      -1.228  10.292  17.056  0.00  0.00    +0.000 OA
ATOM     30  H   UNL     1      -1.395   9.824  16.222  0.00  0.00    +0.000 HD
ENDBRANCH  28  29
ENDBRANCH  27  28
ENDBRANCH   1  27
TORSDOF 4
ENDMDL
MODEL 9
REMARK VINA RESULT:      -6.3      2.369      4.118
REMARK  Name = 
REMARK  6 active torsions:
REMARK  status: ('A' for Active; 'I' for Inactive)
REMARK    1  A    between atoms: C_1  and  C_2
REMARK    2  A    between atoms: C_2  and  C_3
REMARK    3  A    between atoms: C_2  and  N_5
REMARK    4  A    between atoms: C_3  and  O_4
REMARK    5  A    between atoms: N_8  and  C_9
REMARK    6  A    between atoms: C_16  and  C_17
REMARK                            x       y       z     vdW  Elec       q    Type
REMARK                         _______ _______ _______ _____ _____    ______ ____
ROOT
ATOM      1  N   UNL     1       0.210  11.142  21.529  0.00  0.00    +0.000 N 
ATOM      2  C   UNL     1      -0.008  12.497  21.896  0.00  0.00    +0.000 A 
ATOM      3  O   UNL     1      -0.518  12.918  22.921  0.00  0.00    +0.000 OA
ATOM      4  N   UNL     1       0.475  13.278  20.841  0.00  0.00    +0.000 N 
ATOM      5  C   UNL     1       0.387  14.708  20.745  0.00  0.00    +0.000 C 
ATOM      6  C   UNL     1       1.034  12.441  19.881  0.00  0.00    +0.000 A 
ATOM      7  C   UNL     1       1.652  12.767  18.705  0.00  0.00    +0.000 A 
ATOM      8  N   UNL     1       2.160  11.810  17.915  0.00  0.00    +0.000 NA
ATOM      9  C   UNL     1       2.048  10.524  18.313  0.00  0.00    +0.000 A 
ATOM     10  C   UNL     1       2.610   9.590  17.474  0.00  0.00    +0.000 A 
ATOM     11  C   UNL     1       2.582   8.240  17.786  0.00  0.00    +0.000 A 
ATOM     12  C   UNL     1       1.985   7.836  18.972  0.00  0.00    +0.000 A 
ATOM     13  N   UNL     1       1.389   8.725  19.818  0.00  0.00    +0.000 NA
ATOM     14  C   UNL     1       1.423  10.060  19.503  0.00  0.00    +0.000 A 
ATOM     15  C   UNL     1       0.901  11.105  20.279  0.00  0.00    +0.000 A 
ENDROOT
BRANCH  12  16
ATOM     16  C   UNL     1       1.996   6.387  19.322  0.00  0.00    +0.000 A 
ATOM     17  C   UNL     1       1.821   5.997  20.610  0.00  0.00    +0.000 A 
ATOM     18  N   UNL     1       1.758   4.668  20.991  0.00  0.00    +0.000 N 
ATOM     19  C   UNL     1       1.876   3.670  20.062  0.00  0.00    +0.000 A 
ATOM     20  N   UNL     1       1.835   2.371  20.196  0.00  0.00    +0.000 NA
ATOM     21  N   UNL     1       2.025   1.769  18.876  0.00  0.00    +0.000 NA
ATOM     22  C   UNL     1       2.173   2.731  18.013  0.00  0.00    +0.000 A 
ATOM     23  C   UNL     1       2.089   4.021  18.656  0.00  0.00    +0.000 A 
ATOM     24  C   UNL     1       2.159   5.309  18.306  0.00  0.00    +0.000 A 
ATOM     25  H   UNL     1       1.624   4.425  21.963  0.00  0.00    +0.000 HD
ENDBRANCH  12  16
BRANCH   1  27
ATOM     26  C   UNL     1      -1.481  10.330  23.156  0.00  0.00    +0.000 C 
ATOM     27  C   UNL     1      -0.220   9.999  22.335  0.00  0.00    +0.000 C 
BRANCH  27  28
ATOM     28  C   UNL     1       0.885   9.527  23.296  0.00  0.00    +0.000 C 
BRANCH  28  29
ATOM     29  O   UNL     1       2.058   9.124  22.594  0.00  0.00    +0.000 OA
ATOM     30  H   UNL     1       2.678   8.782  23.258  0.00  0.00    +0.000 HD
ENDBRANCH  28  29
ENDBRANCH  27  28
ENDBRANCH   1  27
TORSDOF 4
ENDMDL
