MODEL 1
REMARK VINA RESULT:      -7.7      0.000      0.000
REMARK  Name = 
REMARK  9 active torsions:
REMARK  status: ('A' for Active; 'I' for Inactive)
REMARK    1  A    between atoms: C_1  and  C_2
REMARK    2  A    between atoms: C_2  and  C_3
REMARK    3  A    between atoms: C_3  and  S_4
REMARK    4  A    between atoms: S_4  and  C_5
REMARK    5  A    between atoms: N_8  and  C_9
REMARK    6  A    between atoms: N_8  and  C_10
REMARK    7  A    between atoms: C_13  and  C_14
REMARK    8  A    between atoms: N_16  and  C_17
REMARK    9  A    between atoms: C_24  and  O_25
REMARK                            x       y       z     vdW  Elec       q    Type
REMARK                         _______ _______ _______ _____ _____    ______ ____
ROOT
ATOM      1  C   UNL     1       2.557   7.486  18.309  0.00  0.00    +0.000 C 
ATOM      2  O   UNL     1       3.654   7.516  17.754  0.00  0.00    +0.000 OA
ATOM      3  N   UNL     1       1.934   6.291  18.622  0.00  0.00    +0.000 N 
ATOM      4  H   UNL     1       0.992   6.295  18.996  0.00  0.00    +0.000 HD
ENDROOT
BRANCH   3   5
ATOM      5  C   UNL     1       2.625   5.015  18.415  0.00  0.00    +0.000 C 
ATOM      6  C   UNL     1       3.358   4.503  19.677  0.00  0.00    +0.000 C 
ATOM      7  C   UNL     1       2.362   4.008  20.744  0.00  0.00    +0.000 C 
ATOM      8  C   UNL     1       1.486   2.881  20.174  0.00  0.00    +0.000 C 
ATOM      9  C   UNL     1       0.715   3.425  18.959  0.00  0.00    +0.000 C 
ATOM     10  C   UNL     1       1.696   3.902  17.870  0.00  0.00    +0.000 C 
ATOM     11  C   UNL     1       2.582   2.715  17.448  0.00  0.00    +0.000 C 
ATOM     12  C   UNL     1       3.372   2.186  18.661  0.00  0.00    +0.000 C 
ATOM     13  C   UNL     1       2.379   1.708  19.733  0.00  0.00    +0.000 C 
ATOM     14  C   UNL     1       4.242   3.311  19.254  0.00  0.00    +0.000 C 
BRANCH  12  15
ATOM     15  O   UNL     1       4.216   1.116  18.265  0.00  0.00    +0.000 OA
ATOM     16  H   UNL     1       4.362   1.183  17.306  0.00  0.00    +0.000 HD
ENDBRANCH  12  15
ENDBRANCH   3   5
BRANCH   1  25
ATOM     17  C   UNL     1       1.402   9.132  19.949  0.00  0.00    +0.000 A 
ATOM     18  N   UNL     1       1.021  10.403  20.232  0.00  0.00    +0.000 NA
ATOM     19  C   UNL     1       1.097  11.344  19.280  0.00  0.00    +0.000 A 
ATOM     20  N   UNL     1       0.671  12.633  19.587  0.00  0.00    +0.000 N 
ATOM     21  C   UNL     1       0.682  13.583  18.483  0.00  0.00    +0.000 C 
ATOM     22  C   UNL     1       1.211  13.143  20.842  0.00  0.00    +0.000 C 
ATOM     23  N   UNL     1       1.507  11.052  18.041  0.00  0.00    +0.000 NA
ATOM     24  C   UNL     1       1.933   9.789  17.802  0.00  0.00    +0.000 A 
ATOM     25  C   UNL     1       1.947   8.770  18.735  0.00  0.00    +0.000 A 
BRANCH  17  26
ATOM     26  S   UNL     1       1.088   7.975  21.284  0.00  0.00    +0.000 S 
BRANCH  26  27
ATOM     27  C   UNL     1      -0.508   8.649  21.890  0.00  0.00    +0.000 C 
BRANCH  27  29
ATOM     28  C   UNL     1      -1.084  10.843  23.082  0.00  0.00    +0.000 C 
ATOM     29  C   UNL     1      -0.353   9.509  23.145  0.00  0.00    +0.000 C 
ENDBRANCH  27  29
ENDBRANCH  26  27
ENDBRANCH  17  26
ENDBRANCH   1  25
TORSDOF 6
ENDMDL
MODEL 2
REMARK VINA RESULT:      -7.4      2.305      3.115
REMARK  Name = 
REMARK  9 active torsions:
REMARK  status: ('A' for Active; 'I' for Inactive)
REMARK    1  A    between atoms: C_1  and  C_2
REMARK    2  A    between atoms: C_2  and  C_3
REMARK    3  A    between atoms: C_3  and  S_4
REMARK    4  A    between atoms: S_4  and  C_5
REMARK    5  A    between atoms: N_8  and  C_9
REMARK    6  A    between atoms: N_8  and  C_10
REMARK    7  A    between atoms: C_13  and  C_14
REMARK    8  A    between atoms: N_16  and  C_17
REMARK    9  A    between atoms: C_24  and  O_25
REMARK                            x       y       z     vdW  Elec       q    Type
REMARK                         _______ _______ _______ _____ _____    ______ ____
ROOT
ATOM      1  C   UNL     1       2.420   7.558  18.245  0.00  0.00    +0.000 C 
ATOM      2  O   UNL     1       1.688   6.574  18.145  0.00  0.00    +0.000 OA
ATOM      3  N   UNL     1       3.741   7.525  17.833  0.00  0.00    +0.000 N 
ATOM      4  H   UNL     1       4.344   8.320  18.010  0.00  0.00    +0.000 HD
ENDROOT
BRANCH   3   5
ATOM      5  C   UNL     1       4.276   6.348  17.144  0.00  0.00    +0.000 C 
ATOM      6  C   UNL     1       5.524   6.655  16.284  0.00  0.00    +0.000 C 
ATOM      7  C   UNL     1       6.757   6.938  17.162  0.00  0.00    +0.000 C 
ATOM      8  C   UNL     1       7.052   5.733  18.071  0.00  0.00    +0.000 C 
ATOM      9  C   UNL     1       5.827   5.481  18.964  0.00  0.00    +0.000 C 
ATOM     10  C   UNL     1       4.587   5.172  18.103  0.00  0.00    +0.000 C 
ATOM     11  C   UNL     1       4.881   3.929  17.241  0.00  0.00    +0.000 C 
ATOM     12  C   UNL     1       6.096   4.191  16.329  0.00  0.00    +0.000 C 
ATOM     13  C   UNL     1       7.322   4.490  17.205  0.00  0.00    +0.000 C 
ATOM     14  C   UNL     1       5.820   5.409  15.424  0.00  0.00    +0.000 C 
BRANCH  12  15
ATOM     15  O   UNL     1       6.344   3.060  15.509  0.00  0.00    +0.000 OA
ATOM     16  H   UNL     1       7.140   3.237  14.979  0.00  0.00    +0.000 HD
ENDBRANCH  12  15
ENDBRANCH   3   5
BRANCH   1  25
ATOM     17  C   UNL     1       1.306   9.149  19.964  0.00  0.00    +0.000 A 
ATOM     18  N   UNL     1       0.942  10.411  20.302  0.00  0.00    +0.000 NA
ATOM     19  C   UNL     1       1.012  11.388  19.386  0.00  0.00    +0.000 A 
ATOM     20  N   UNL     1       0.603  12.668  19.749  0.00  0.00    +0.000 N 
ATOM     21  C   UNL     1       0.606  13.660  18.682  0.00  0.00    +0.000 C 
ATOM     22  C   UNL     1       1.166  13.124  21.014  0.00  0.00    +0.000 C 
ATOM     23  N   UNL     1       1.399  11.141  18.130  0.00  0.00    +0.000 NA
ATOM     24  C   UNL     1       1.810   9.885  17.836  0.00  0.00    +0.000 A 
ATOM     25  C   UNL     1       1.828   8.830  18.729  0.00  0.00    +0.000 A 
BRANCH  17  26
ATOM     26  S   UNL     1       1.001   7.944  21.259  0.00  0.00    +0.000 S 
BRANCH  26  27
ATOM     27  C   UNL     1      -0.533   8.657  21.970  0.00  0.00    +0.000 C 
BRANCH  27  29
ATOM     28  C   UNL     1      -1.158  10.829  23.177  0.00  0.00    +0.000 C 
ATOM     29  C   UNL     1      -0.263   9.597  23.146  0.00  0.00    +0.000 C 
ENDBRANCH  27  29
ENDBRANCH  26  27
ENDBRANCH  17  26
ENDBRANCH   1  25
TORSDOF 6
ENDMDL
MODEL 3
REMARK VINA RESULT:      -7.3      1.697      3.292
REMARK  Name = 
REMARK  9 active torsions:
REMARK  status: ('A' for Active; 'I' for Inactive)
REMARK    1  A    between atoms: C_1  and  C_2
REMARK    2  A    between atoms: C_2  and  C_3
REMARK    3  A    between atoms: C_3  and  S_4
REMARK    4  A    between atoms: S_4  and  C_5
REMARK    5  A    between atoms: N_8  and  C_9
REMARK    6  A    between atoms: N_8  and  C_10
REMARK    7  A    between atoms: C_13  and  C_14
REMARK    8  A    between atoms: N_16  and  C_17
REMARK    9  A    between atoms: C_24  and  O_25
REMARK                            x       y       z     vdW  Elec       q    Type
REMARK                         _______ _______ _______ _____ _____    ______ ____
ROOT
ATOM      1  C   UNL     1       1.926   7.497  19.961  0.00  0.00    +0.000 C 
ATOM      2  O   UNL     1       2.775   7.622  19.079  0.00  0.00    +0.000 OA
ATOM      3  N   UNL     1       1.710   6.285  20.593  0.00  0.00    +0.000 N 
ATOM      4  H   UNL     1       0.944   6.189  21.251  0.00  0.00    +0.000 HD
ENDROOT
BRANCH   3   5
ATOM      5  C   UNL     1       2.578   5.137  20.319  0.00  0.00    +0.000 C 
ATOM      6  C   UNL     1       2.112   3.836  21.012  0.00  0.00    +0.000 C 
ATOM      7  C   UNL     1       0.838   3.272  20.353  0.00  0.00    +0.000 C 
ATOM      8  C   UNL     1       1.089   2.991  18.863  0.00  0.00    +0.000 C 
ATOM      9  C   UNL     1       1.489   4.307  18.175  0.00  0.00    +0.000 C 
ATOM     10  C   UNL     1       2.776   4.874  18.806  0.00  0.00    +0.000 C 
ATOM     11  C   UNL     1       3.901   3.832  18.654  0.00  0.00    +0.000 C 
ATOM     12  C   UNL     1       3.509   2.521  19.363  0.00  0.00    +0.000 C 
ATOM     13  C   UNL     1       2.229   1.968  18.717  0.00  0.00    +0.000 C 
ATOM     14  C   UNL     1       3.237   2.792  20.856  0.00  0.00    +0.000 C 
BRANCH  12  15
ATOM     15  O   UNL     1       4.561   1.574  19.255  0.00  0.00    +0.000 OA
ATOM     16  H   UNL     1       5.374   1.981  19.600  0.00  0.00    +0.000 HD
ENDBRANCH  12  15
ENDBRANCH   3   5
BRANCH   1  25
ATOM     17  C   UNL     1       1.013   9.919  19.781  0.00  0.00    +0.000 A 
ATOM     18  N   UNL     1       0.184  10.879  20.260  0.00  0.00    +0.000 NA
ATOM     19  C   UNL     1      -0.433  10.693  21.437  0.00  0.00    +0.000 A 
ATOM     20  N   UNL     1      -1.255  11.707  21.921  0.00  0.00    +0.000 N 
ATOM     21  C   UNL     1      -1.813  11.488  23.248  0.00  0.00    +0.000 C 
ATOM     22  C   UNL     1      -2.198  12.216  20.933  0.00  0.00    +0.000 C 
ATOM     23  N   UNL     1      -0.222   9.595  22.170  0.00  0.00    +0.000 NA
ATOM     24  C   UNL     1       0.566   8.629  21.641  0.00  0.00    +0.000 A 
ATOM     25  C   UNL     1       1.196   8.707  20.414  0.00  0.00    +0.000 A 
BRANCH  17  26
ATOM     26  S   UNL     1       1.873  10.398  18.280  0.00  0.00    +0.000 S 
BRANCH  26  27
ATOM     27  C   UNL     1       1.643  12.216  18.376  0.00  0.00    +0.000 C 
BRANCH  27  29
ATOM     28  C   UNL     1       2.768  14.506  18.144  0.00  0.00    +0.000 C 
ATOM     29  C   UNL     1       2.938  12.993  18.138  0.00  0.00    +0.000 C 
ENDBRANCH  27  29
ENDBRANCH  26  27
ENDBRANCH  17  26
ENDBRANCH   1  25
TORSDOF 6
ENDMDL
MODEL 4
REMARK VINA RESULT:      -7.2      2.143      3.317
REMARK  Name = 
REMARK  9 active torsions:
REMARK  status: ('A' for Active; 'I' for Inactive)
REMARK    1  A    between atoms: C_1  and  C_2
REMARK    2  A    between atoms: C_2  and  C_3
REMARK    3  A    between atoms: C_3  and  S_4
REMARK    4  A    between atoms: S_4  and  C_5
REMARK    5  A    between atoms: N_8  and  C_9
REMARK    6  A    between atoms: N_8  and  C_10
REMARK    7  A    between atoms: C_13  and  C_14
REMARK    8  A    between atoms: N_16  and  C_17
REMARK    9  A    between atoms: C_24  and  O_25
REMARK                            x       y       z     vdW  Elec       q    Type
REMARK                         _______ _______ _______ _____ _____    ______ ____
ROOT
ATOM      1  C   UNL     1       1.861   7.635  20.076  0.00  0.00    +0.000 C 
ATOM      2  O   UNL     1       2.816   7.752  19.310  0.00  0.00    +0.000 OA
ATOM      3  N   UNL     1       1.554   6.425  20.675  0.00  0.00    +0.000 N 
ATOM      4  H   UNL     1       0.710   6.336  21.229  0.00  0.00    +0.000 HD
ENDROOT
BRANCH   3   5
ATOM      5  C   UNL     1       2.440   5.270  20.513  0.00  0.00    +0.000 C 
ATOM      6  C   UNL     1       1.841   3.956  21.068  0.00  0.00    +0.000 C 
ATOM      7  C   UNL     1       0.694   3.441  20.179  0.00  0.00    +0.000 C 
ATOM      8  C   UNL     1       1.195   3.204  18.745  0.00  0.00    +0.000 C 
ATOM      9  C   UNL     1       1.727   4.533  18.185  0.00  0.00    +0.000 C 
ATOM     10  C   UNL     1       2.894   5.052  19.049  0.00  0.00    +0.000 C 
ATOM     11  C   UNL     1       4.013   3.993  19.056  0.00  0.00    +0.000 C 
ATOM     12  C   UNL     1       3.485   2.668  19.639  0.00  0.00    +0.000 C 
ATOM     13  C   UNL     1       2.328   2.163  18.762  0.00  0.00    +0.000 C 
ATOM     14  C   UNL     1       2.962   2.895  21.072  0.00  0.00    +0.000 C 
BRANCH  12  15
ATOM     15  O   UNL     1       4.525   1.703  19.681  0.00  0.00    +0.000 OA
ATOM     16  H   UNL     1       4.585   1.283  18.805  0.00  0.00    +0.000 HD
ENDBRANCH  12  15
ENDBRANCH   3   5
BRANCH   1  25
ATOM     17  C   UNL     1       0.377   9.715  19.625  0.00  0.00    +0.000 A 
ATOM     18  N   UNL     1      -0.409  10.702  20.122  0.00  0.00    +0.000 NA
ATOM     19  C   UNL     1      -0.448  10.914  21.446  0.00  0.00    +0.000 A 
ATOM     20  N   UNL     1      -1.238  11.953  21.928  0.00  0.00    +0.000 N 
ATOM     21  C   UNL     1      -1.158  12.196  23.362  0.00  0.00    +0.000 C 
ATOM     22  C   UNL     1      -2.588  11.964  21.377  0.00  0.00    +0.000 C 
ATOM     23  N   UNL     1       0.300  10.196  22.290  0.00  0.00    +0.000 NA
ATOM     24  C   UNL     1       1.032   9.181  21.772  0.00  0.00    +0.000 A 
ATOM     25  C   UNL     1       1.089   8.852  20.431  0.00  0.00    +0.000 A 
BRANCH  17  26
ATOM     26  S   UNL     1       0.430   9.675  17.832  0.00  0.00    +0.000 S 
BRANCH  26  27
ATOM     27  C   UNL     1      -1.113  10.600  17.470  0.00  0.00    +0.000 C 
BRANCH  27  29
ATOM     28  C   UNL     1      -2.888  10.398  15.633  0.00  0.00    +0.000 C 
ATOM     29  C   UNL     1      -2.186   9.733  16.810  0.00  0.00    +0.000 C 
ENDBRANCH  27  29
ENDBRANCH  26  27
ENDBRANCH  17  26
ENDBRANCH   1  25
TORSDOF 6
ENDMDL
MODEL 5
REMARK VINA RESULT:      -7.1      2.751      4.485
REMARK  Name = 
REMARK  9 active torsions:
REMARK  status: ('A' for Active; 'I' for Inactive)
REMARK    1  A    between atoms: C_1  and  C_2
REMARK    2  A    between atoms: C_2  and  C_3
REMARK    3  A    between atoms: C_3  and  S_4
REMARK    4  A    between atoms: S_4  and  C_5
REMARK    5  A    between atoms: N_8  and  C_9
REMARK    6  A    between atoms: N_8  and  C_10
REMARK    7  A    between atoms: C_13  and  C_14
REMARK    8  A    between atoms: N_16  and  C_17
REMARK    9  A    between atoms: C_24  and  O_25
REMARK                            x       y       z     vdW  Elec       q    Type
REMARK                         _______ _______ _______ _____ _____    ______ ____
ROOT
ATOM      1  C   UNL     1       2.777   7.831  18.085  0.00  0.00    +0.000 C 
ATOM      2  O   UNL     1       2.885   8.664  17.186  0.00  0.00    +0.000 OA
ATOM      3  N   UNL     1       3.526   6.667  18.091  0.00  0.00    +0.000 N 
ATOM      4  H   UNL     1       3.351   5.958  18.794  0.00  0.00    +0.000 HD
ENDROOT
BRANCH   3   5
ATOM      5  C   UNL     1       4.571   6.450  17.088  0.00  0.00    +0.000 C 
ATOM      6  C   UNL     1       5.988   6.811  17.589  0.00  0.00    +0.000 C 
ATOM      7  C   UNL     1       6.499   5.786  18.619  0.00  0.00    +0.000 C 
ATOM      8  C   UNL     1       6.523   4.377  18.003  0.00  0.00    +0.000 C 
ATOM      9  C   UNL     1       5.095   4.008  17.568  0.00  0.00    +0.000 C 
ATOM     10  C   UNL     1       4.576   5.009  16.518  0.00  0.00    +0.000 C 
ATOM     11  C   UNL     1       5.524   4.988  15.303  0.00  0.00    +0.000 C 
ATOM     12  C   UNL     1       6.950   5.381  15.736  0.00  0.00    +0.000 C 
ATOM     13  C   UNL     1       7.452   4.368  16.777  0.00  0.00    +0.000 C 
ATOM     14  C   UNL     1       6.938   6.785  16.373  0.00  0.00    +0.000 C 
BRANCH  12  15
ATOM     15  O   UNL     1       7.814   5.397  14.611  0.00  0.00    +0.000 OA
ATOM     16  H   UNL     1       7.514   4.714  13.987  0.00  0.00    +0.000 HD
ENDBRANCH  12  15
ENDBRANCH   3   5
BRANCH   1  25
ATOM     17  C   UNL     1       1.677   7.446  20.404  0.00  0.00    +0.000 A 
ATOM     18  N   UNL     1       0.946   7.945  21.432  0.00  0.00    +0.000 NA
ATOM     19  C   UNL     1       0.331   9.128  21.293  0.00  0.00    +0.000 A 
ATOM     20  N   UNL     1      -0.439   9.603  22.351  0.00  0.00    +0.000 N 
ATOM     21  C   UNL     1      -1.163  10.842  22.101  0.00  0.00    +0.000 C 
ATOM     22  C   UNL     1       0.237   9.535  23.641  0.00  0.00    +0.000 C 
ATOM     23  N   UNL     1       0.391   9.817  20.148  0.00  0.00    +0.000 NA
ATOM     24  C   UNL     1       1.173   9.323  19.160  0.00  0.00    +0.000 A 
ATOM     25  C   UNL     1       1.889   8.144  19.233  0.00  0.00    +0.000 A 
BRANCH  17  26
ATOM     26  S   UNL     1       2.297   5.789  20.702  0.00  0.00    +0.000 S 
BRANCH  26  27
ATOM     27  C   UNL     1       0.868   4.823  20.076  0.00  0.00    +0.000 C 
BRANCH  27  29
ATOM     28  C   UNL     1       0.808   2.521  18.951  0.00  0.00    +0.000 C 
ATOM     29  C   UNL     1       1.057   3.313  20.227  0.00  0.00    +0.000 C 
ENDBRANCH  27  29
ENDBRANCH  26  27
ENDBRANCH  17  26
ENDBRANCH   1  25
TORSDOF 6
ENDMDL
MODEL 6
REMARK VINA RESULT:      -7.0      2.092      2.347
REMARK  Name = 
REMARK  9 active torsions:
REMARK  status: ('A' for Active; 'I' for Inactive)
REMARK    1  A    between atoms: C_1  and  C_2
REMARK    2  A    between atoms: C_2  and  C_3
REMARK    3  A    between atoms: C_3  and  S_4
REMARK    4  A    between atoms: S_4  and  C_5
REMARK    5  A    between atoms: N_8  and  C_9
REMARK    6  A    between atoms: N_8  and  C_10
REMARK    7  A    between atoms: C_13  and  C_14
REMARK    8  A    between atoms: N_16  and  C_17
REMARK    9  A    between atoms: C_24  and  O_25
REMARK                            x       y       z     vdW  Elec       q    Type
REMARK                         _______ _______ _______ _____ _____    ______ ____
ROOT
ATOM      1  C   UNL     1       1.937   8.427  18.067  0.00  0.00    +0.000 C 
ATOM      2  O   UNL     1       2.876   9.051  17.575  0.00  0.00    +0.000 OA
ATOM      3  N   UNL     1       2.039   7.080  18.369  0.00  0.00    +0.000 N 
ATOM      4  H   UNL     1       1.223   6.572  18.688  0.00  0.00    +0.000 HD
ENDROOT
BRANCH   3   5
ATOM      5  C   UNL     1       3.319   6.382  18.229  0.00  0.00    +0.000 C 
ATOM      6  C   UNL     1       3.894   5.879  19.574  0.00  0.00    +0.000 C 
ATOM      7  C   UNL     1       3.086   4.688  20.122  0.00  0.00    +0.000 C 
ATOM      8  C   UNL     1       3.086   3.532  19.108  0.00  0.00    +0.000 C 
ATOM      9  C   UNL     1       2.453   4.029  17.797  0.00  0.00    +0.000 C 
ATOM     10  C   UNL     1       3.263   5.207  17.221  0.00  0.00    +0.000 C 
ATOM     11  C   UNL     1       4.708   4.736  16.968  0.00  0.00    +0.000 C 
ATOM     12  C   UNL     1       5.350   4.260  18.286  0.00  0.00    +0.000 C 
ATOM     13  C   UNL     1       4.533   3.082  18.841  0.00  0.00    +0.000 C 
ATOM     14  C   UNL     1       5.340   5.404  19.319  0.00  0.00    +0.000 C 
BRANCH  12  15
ATOM     15  O   UNL     1       6.693   3.861  18.059  0.00  0.00    +0.000 OA
ATOM     16  H   UNL     1       6.682   3.040  17.538  0.00  0.00    +0.000 HD
ENDBRANCH  12  15
ENDBRANCH   3   5
BRANCH   1  25
ATOM     17  C   UNL     1       0.310   9.689  19.645  0.00  0.00    +0.000 A 
ATOM     18  N   UNL     1      -0.777  10.488  19.784  0.00  0.00    +0.000 NA
ATOM     19  C   UNL     1      -1.556  10.735  18.720  0.00  0.00    +0.000 A 
ATOM     20  N   UNL     1      -2.684  11.532  18.896  0.00  0.00    +0.000 N 
ATOM     21  C   UNL     1      -3.543  11.679  17.729  0.00  0.00    +0.000 C 
ATOM     22  C   UNL     1      -2.417  12.768  19.622  0.00  0.00    +0.000 C 
ATOM     23  N   UNL     1      -1.307  10.182  17.528  0.00  0.00    +0.000 NA
ATOM     24  C   UNL     1      -0.184   9.435  17.406  0.00  0.00    +0.000 A 
ATOM     25  C   UNL     1       0.707   9.174  18.429  0.00  0.00    +0.000 A 
BRANCH  17  26
ATOM     26  S   UNL     1       1.145   9.339  21.195  0.00  0.00    +0.000 S 
BRANCH  26  27
ATOM     27  C   UNL     1      -0.314   8.932  22.231  0.00  0.00    +0.000 C 
BRANCH  27  29
ATOM     28  C   UNL     1      -1.342  11.113  23.098  0.00  0.00    +0.000 C 
ATOM     29  C   UNL     1      -0.493   9.888  23.411  0.00  0.00    +0.000 C 
ENDBRANCH  27  29
ENDBRANCH  26  27
ENDBRANCH  17  26
ENDBRANCH   1  25
TORSDOF 6
ENDMDL
MODEL 7
REMARK VINA RESULT:      -6.8      2.576      3.346
REMARK  Name = 
REMARK  9 active torsions:
REMARK  status: ('A' for Active; 'I' for Inactive)
REMARK    1  A    between atoms: C_1  and  C_2
REMARK    2  A    between atoms: C_2  and  C_3
REMARK    3  A    between atoms: C_3  and  S_4
REMARK    4  A    between atoms: S_4  and  C_5
REMARK    5  A    between atoms: N_8  and  C_9
REMARK    6  A    between atoms: N_8  and  C_10
REMARK    7  A    between atoms: C_13  and  C_14
REMARK    8  A    between atoms: N_16  and  C_17
REMARK    9  A    between atoms: C_24  and  O_25
REMARK                            x       y       z     vdW  Elec       q    Type
REMARK                         _______ _______ _______ _____ _____    ______ ____
ROOT
ATOM      1  C   UNL     1       1.652   8.904  18.556  0.00  0.00    +0.000 C 
ATOM      2  O   UNL     1       2.250   9.122  17.503  0.00  0.00    +0.000 OA
ATOM      3  N   UNL     1       1.836   7.730  19.265  0.00  0.00    +0.000 N 
ATOM      4  H   UNL     1       1.264   7.538  20.079  0.00  0.00    +0.000 HD
ENDROOT
BRANCH   3   5
ATOM      5  C   UNL     1       2.853   6.761  18.849  0.00  0.00    +0.000 C 
ATOM      6  C   UNL     1       3.455   5.959  20.027  0.00  0.00    +0.000 C 
ATOM      7  C   UNL     1       2.444   4.943  20.591  0.00  0.00    +0.000 C 
ATOM      8  C   UNL     1       1.998   3.968  19.489  0.00  0.00    +0.000 C 
ATOM      9  C   UNL     1       1.344   4.775  18.355  0.00  0.00    +0.000 C 
ATOM     10  C   UNL     1       2.349   5.781  17.761  0.00  0.00    +0.000 C 
ATOM     11  C   UNL     1       3.568   5.005  17.226  0.00  0.00    +0.000 C 
ATOM     12  C   UNL     1       4.237   4.215  18.369  0.00  0.00    +0.000 C 
ATOM     13  C   UNL     1       3.222   3.213  18.943  0.00  0.00    +0.000 C 
ATOM     14  C   UNL     1       4.674   5.179  19.489  0.00  0.00    +0.000 C 
BRANCH  12  15
ATOM     15  O   UNL     1       5.381   3.530  17.884  0.00  0.00    +0.000 OA
ATOM     16  H   UNL     1       5.591   3.877  17.000  0.00  0.00    +0.000 HD
ENDBRANCH  12  15
ENDBRANCH   3   5
BRANCH   1  25
ATOM     17  C   UNL     1      -0.487  10.359  18.758  0.00  0.00    +0.000 A 
ATOM     18  N   UNL     1      -1.206  11.262  19.470  0.00  0.00    +0.000 NA
ATOM     19  C   UNL     1      -0.641  11.878  20.519  0.00  0.00    +0.000 A 
ATOM     20  N   UNL     1      -1.390  12.824  21.214  0.00  0.00    +0.000 N 
ATOM     21  C   UNL     1      -0.687  13.529  22.277  0.00  0.00    +0.000 C 
ATOM     22  C   UNL     1      -2.731  12.367  21.560  0.00  0.00    +0.000 C 
ATOM     23  N   UNL     1       0.631  11.649  20.862  0.00  0.00    +0.000 NA
ATOM     24  C   UNL     1       1.306  10.702  20.168  0.00  0.00    +0.000 A 
ATOM     25  C   UNL     1       0.790   9.976  19.112  0.00  0.00    +0.000 A 
BRANCH  17  26
ATOM     26  S   UNL     1      -1.340   9.752  17.300  0.00  0.00    +0.000 S 
BRANCH  26  27
ATOM     27  C   UNL     1      -3.049  10.272  17.720  0.00  0.00    +0.000 C 
BRANCH  27  29
ATOM     28  C   UNL     1      -3.328  10.635  15.200  0.00  0.00    +0.000 C 
ATOM     29  C   UNL     1      -3.719  11.074  16.605  0.00  0.00    +0.000 C 
ENDBRANCH  27  29
ENDBRANCH  26  27
ENDBRANCH  17  26
ENDBRANCH   1  25
TORSDOF 6
ENDMDL
MODEL 8
REMARK VINA RESULT:      -6.8      2.791      4.393
REMARK  Name = 
REMARK  9 active torsions:
REMARK  status: ('A' for Active; 'I' for Inactive)
REMARK    1  A    between atoms: C_1  and  C_2
REMARK    2  A    between atoms: C_2  and  C_3
REMARK    3  A    between atoms: C_3  and  S_4
REMARK    4  A    between atoms: S_4  and  C_5
REMARK    5  A    between atoms: N_8  and  C_9
REMARK    6  A    between atoms: N_8  and  C_10
REMARK    7  A    between atoms: C_13  and  C_14
REMARK    8  A    between atoms: N_16  and  C_17
REMARK    9  A    between atoms: C_24  and  O_25
REMARK                            x       y       z     vdW  Elec       q    Type
REMARK                         _______ _______ _______ _____ _____    ______ ____
ROOT
ATOM      1  C   UNL     1       2.447   6.811  18.718  0.00  0.00    +0.000 C 
ATOM      2  O   UNL     1       1.715   5.891  18.354  0.00  0.00    +0.000 OA
ATOM      3  N   UNL     1       3.752   6.919  18.270  0.00  0.00    +0.000 N 
ATOM      4  H   UNL     1       4.360   7.633  18.656  0.00  0.00    +0.000 HD
ENDROOT
BRANCH   3   5
ATOM      5  C   UNL     1       4.265   6.009  17.244  0.00  0.00    +0.000 C 
ATOM      6  C   UNL     1       5.390   6.627  16.381  0.00  0.00    +0.000 C 
ATOM      7  C   UNL     1       6.699   6.769  17.181  0.00  0.00    +0.000 C 
ATOM      8  C   UNL     1       7.157   5.397  17.702  0.00  0.00    +0.000 C 
ATOM      9  C   UNL     1       6.055   4.824  18.609  0.00  0.00    +0.000 C 
ATOM     10  C   UNL     1       4.743   4.652  17.819  0.00  0.00    +0.000 C 
ATOM     11  C   UNL     1       5.001   3.703  16.633  0.00  0.00    +0.000 C 
ATOM     12  C   UNL     1       6.088   4.289  15.712  0.00  0.00    +0.000 C 
ATOM     13  C   UNL     1       7.390   4.446  16.514  0.00  0.00    +0.000 C 
ATOM     14  C   UNL     1       5.650   5.674  15.196  0.00  0.00    +0.000 C 
BRANCH  12  15
ATOM     15  O   UNL     1       6.300   3.434  14.600  0.00  0.00    +0.000 OA
ATOM     16  H   UNL     1       5.496   2.901  14.469  0.00  0.00    +0.000 HD
ENDBRANCH  12  15
ENDBRANCH   3   5
BRANCH   1  25
ATOM     17  C   UNL     1       1.594   9.193  19.290  0.00  0.00    +0.000 A 
ATOM     18  N   UNL     1       0.919  10.004  20.142  0.00  0.00    +0.000 NA
ATOM     19  C   UNL     1       0.565   9.545  21.352  0.00  0.00    +0.000 A 
ATOM     20  N   UNL     1      -0.100  10.407  22.220  0.00  0.00    +0.000 N 
ATOM     21  C   UNL     1      -0.365   9.882  23.552  0.00  0.00    +0.000 C 
ATOM     22  C   UNL     1      -1.218  11.109  21.601  0.00  0.00    +0.000 C 
ATOM     23  N   UNL     1       0.895   8.313  21.755  0.00  0.00    +0.000 NA
ATOM     24  C   UNL     1       1.519   7.507  20.864  0.00  0.00    +0.000 A 
ATOM     25  C   UNL     1       1.870   7.873  19.579  0.00  0.00    +0.000 A 
BRANCH  17  26
ATOM     26  S   UNL     1       2.123  10.016  17.785  0.00  0.00    +0.000 S 
BRANCH  26  27
ATOM     27  C   UNL     1       1.652  11.738  18.209  0.00  0.00    +0.000 C 
BRANCH  27  29
ATOM     28  C   UNL     1       2.632  14.012  18.865  0.00  0.00    +0.000 C 
ATOM     29  C   UNL     1       2.813  12.723  18.075  0.00  0.00    +0.000 C 
ENDBRANCH  27  29
ENDBRANCH  26  27
ENDBRANCH  17  26
ENDBRANCH   1  25
TORSDOF 6
ENDMDL
MODEL 9
REMARK VINA RESULT:      -6.7      2.954      8.473
REMARK  Name = 
REMARK  9 active torsions:
REMARK  status: ('A' for Active; 'I' for Inactive)
REMARK    1  A    between atoms: C_1  and  C_2
REMARK    2  A    between atoms: C_2  and  C_3
REMARK    3  A    between atoms: C_3  and  S_4
REMARK    4  A    between atoms: S_4  and  C_5
REMARK    5  A    between atoms: N_8  and  C_9
REMARK    6  A    between atoms: N_8  and  C_10
REMARK    7  A    between atoms: C_13  and  C_14
REMARK    8  A    between atoms: N_16  and  C_17
REMARK    9  A    between atoms: C_24  and  O_25
REMARK                            x       y       z     vdW  Elec       q    Type
REMARK                         _______ _______ _______ _____ _____    ______ ____
ROOT
ATOM      1  C   UNL     1       2.365   8.116  17.968  0.00  0.00    +0.000 C 
ATOM      2  O   UNL     1       2.838   8.715  17.003  0.00  0.00    +0.000 OA
ATOM      3  N   UNL     1       1.467   8.721  18.829  0.00  0.00    +0.000 N 
ATOM      4  H   UNL     1       1.164   8.235  19.665  0.00  0.00    +0.000 HD
ENDROOT
BRANCH   3   5
ATOM      5  C   UNL     1       0.949  10.061  18.542  0.00  0.00    +0.000 C 
ATOM      6  C   UNL     1      -0.594  10.148  18.597  0.00  0.00    +0.000 C 
ATOM      7  C   UNL     1      -1.112  10.050  20.045  0.00  0.00    +0.000 C 
ATOM      8  C   UNL     1      -0.510  11.175  20.903  0.00  0.00    +0.000 C 
ATOM      9  C   UNL     1       1.021  11.036  20.890  0.00  0.00    +0.000 C 
ATOM     10  C   UNL     1       1.560  11.156  19.452  0.00  0.00    +0.000 C 
ATOM     11  C   UNL     1       1.147  12.526  18.881  0.00  0.00    +0.000 C 
ATOM     12  C   UNL     1      -0.389  12.655  18.873  0.00  0.00    +0.000 C 
ATOM     13  C   UNL     1      -0.907  12.540  20.315  0.00  0.00    +0.000 C 
ATOM     14  C   UNL     1      -1.007  11.522  18.029  0.00  0.00    +0.000 C 
BRANCH  12  15
ATOM     15  O   UNL     1      -0.771  13.902  18.313  0.00  0.00    +0.000 OA
ATOM     16  H   UNL     1      -1.016  13.755  17.383  0.00  0.00    +0.000 HD
ENDBRANCH  12  15
ENDBRANCH   3   5
BRANCH   1  25
ATOM     17  C   UNL     1       3.909   6.031  17.990  0.00  0.00    +0.000 A 
ATOM     18  N   UNL     1       4.091   4.732  18.338  0.00  0.00    +0.000 NA
ATOM     19  C   UNL     1       3.047   4.012  18.773  0.00  0.00    +0.000 A 
ATOM     20  N   UNL     1       3.254   2.673  19.094  0.00  0.00    +0.000 N 
ATOM     21  C   UNL     1       2.063   1.920  19.462  0.00  0.00    +0.000 C 
ATOM     22  C   UNL     1       4.412   2.450  19.951  0.00  0.00    +0.000 C 
ATOM     23  N   UNL     1       1.817   4.533  18.841  0.00  0.00    +0.000 NA
ATOM     24  C   UNL     1       1.676   5.847  18.542  0.00  0.00    +0.000 A 
ATOM     25  C   UNL     1       2.702   6.681  18.141  0.00  0.00    +0.000 A 
BRANCH  17  26
ATOM     26  S   UNL     1       5.371   6.795  17.283  0.00  0.00    +0.000 S 
BRANCH  26  27
ATOM     27  C   UNL     1       5.301   6.065  15.601  0.00  0.00    +0.000 C 
BRANCH  27  29
ATOM     28  C   UNL     1       6.059   4.022  14.254  0.00  0.00    +0.000 C 
ATOM     29  C   UNL     1       6.385   5.014  15.362  0.00  0.00    +0.000 C 
ENDBRANCH  27  29
ENDBRANCH  26  27
ENDBRANCH  17  26
ENDBRANCH   1  25
TORSDOF 6
ENDMDL
