MODEL 1
REMARK VINA RESULT:      -7.0      0.000      0.000
REMARK  Name = 
REMARK  7 active torsions:
REMARK  status: ('A' for Active; 'I' for Inactive)
REMARK    1  A    between atoms: C_1  and  C_2
REMARK    2  A    between atoms: C_2  and  S_3
REMARK    3  A    between atoms: S_3  and  N_6
REMARK    4  A    between atoms: C_9  and  O_10
REMARK    5  A    between atoms: O_10  and  C_11
REMARK    6  A    between atoms: C_12  and  C_13
REMARK    7  A    between atoms: C_13  and  C_14
REMARK                            x       y       z     vdW  Elec       q    Type
REMARK                         _______ _______ _______ _____ _____    ______ ____
ROOT
ATOM      1  N   UNL     1       2.588   4.087  19.518  0.00  0.00    +0.000 NA
ATOM      2  C   UNL     1       1.956   4.587  20.770  0.00  0.00    +0.000 C 
ATOM      3  C   UNL     1       1.591   6.023  20.476  0.00  0.00    +0.000 C 
ATOM      4  C   UNL     1       2.755   6.550  19.645  0.00  0.00    +0.000 C 
ATOM      5  C   UNL     1       3.413   5.284  19.017  0.00  0.00    +0.000 C 
ENDROOT
BRANCH   1   6
ATOM      6  S   UNL     1       1.551   3.304  18.409  0.00  0.00    +0.000 S 
ATOM      7  O   UNL     1       1.155   4.268  17.408  0.00  0.00    +0.000 OA
ATOM      8  O   UNL     1       0.568   2.564  19.169  0.00  0.00    +0.000 OA
BRANCH   6  10
ATOM      9  C   UNL     1       3.654   1.589  18.576  0.00  0.00    +0.000 C 
ATOM     10  C   UNL     1       2.636   2.135  17.591  0.00  0.00    +0.000 C 
ENDBRANCH   6  10
ENDBRANCH   1   6
BRANCH   4  11
ATOM     11  O   UNL     1       2.282   7.495  18.689  0.00  0.00    +0.000 OA
ATOM     12  C   UNL     1       1.667   8.631  19.284  0.00  0.00    +0.000 C 
ENDBRANCH   4  11
BRANCH   5  13
ATOM     13  C   UNL     1       3.707   5.322  17.510  0.00  0.00    +0.000 C 
BRANCH  13  14
ATOM     14  C   UNL     1       5.135   5.026  17.112  0.00  0.00    +0.000 A 
ATOM     15  C   UNL     1       6.162   4.926  18.051  0.00  0.00    +0.000 A 
ATOM     16  C   UNL     1       7.447   4.659  17.598  0.00  0.00    +0.000 A 
ATOM     17  N   UNL     1       7.772   4.483  16.300  0.00  0.00    +0.000 NA
ATOM     18  C   UNL     1       6.759   4.560  15.412  0.00  0.00    +0.000 A 
ATOM     19  C   UNL     1       5.446   4.817  15.765  0.00  0.00    +0.000 A 
ENDBRANCH  13  14
ENDBRANCH   5  13
TORSDOF 5
ENDMDL
MODEL 2
REMARK VINA RESULT:      -7.0      0.051      1.077
REMARK  Name = 
REMARK  7 active torsions:
REMARK  status: ('A' for Active; 'I' for Inactive)
REMARK    1  A    between atoms: C_1  and  C_2
REMARK    2  A    between atoms: C_2  and  S_3
REMARK    3  A    between atoms: S_3  and  N_6
REMARK    4  A    between atoms: C_9  and  O_10
REMARK    5  A    between atoms: O_10  and  C_11
REMARK    6  A    between atoms: C_12  and  C_13
REMARK    7  A    between atoms: C_13  and  C_14
REMARK                            x       y       z     vdW  Elec       q    Type
REMARK                         _______ _______ _______ _____ _____    ______ ____
ROOT
ATOM      1  N   UNL     1       2.598   4.070  19.510  0.00  0.00    +0.000 NA
ATOM      2  C   UNL     1       1.982   4.569  20.770  0.00  0.00    +0.000 C 
ATOM      3  C   UNL     1       1.617   6.007  20.483  0.00  0.00    +0.000 C 
ATOM      4  C   UNL     1       2.773   6.533  19.639  0.00  0.00    +0.000 C 
ATOM      5  C   UNL     1       3.421   5.266  19.002  0.00  0.00    +0.000 C 
ENDROOT
BRANCH   1   6
ATOM      6  S   UNL     1       1.546   3.291  18.412  0.00  0.00    +0.000 S 
ATOM      7  O   UNL     1       1.149   4.256  17.412  0.00  0.00    +0.000 OA
ATOM      8  O   UNL     1       0.565   2.561  19.183  0.00  0.00    +0.000 OA
BRANCH   6  10
ATOM      9  C   UNL     1       3.612   1.532  18.576  0.00  0.00    +0.000 C 
ATOM     10  C   UNL     1       2.616   2.113  17.589  0.00  0.00    +0.000 C 
ENDBRANCH   6  10
ENDBRANCH   1   6
BRANCH   4  11
ATOM     11  O   UNL     1       2.292   7.480  18.691  0.00  0.00    +0.000 OA
ATOM     12  C   UNL     1       1.649   8.597  19.292  0.00  0.00    +0.000 C 
ENDBRANCH   4  11
BRANCH   5  13
ATOM     13  C   UNL     1       3.697   5.305  17.491  0.00  0.00    +0.000 C 
BRANCH  13  14
ATOM     14  C   UNL     1       5.124   5.027  17.077  0.00  0.00    +0.000 A 
ATOM     15  C   UNL     1       5.497   4.894  15.740  0.00  0.00    +0.000 A 
ATOM     16  C   UNL     1       6.828   4.632  15.447  0.00  0.00    +0.000 A 
ATOM     17  N   UNL     1       7.797   4.498  16.379  0.00  0.00    +0.000 NA
ATOM     18  C   UNL     1       7.418   4.653  17.664  0.00  0.00    +0.000 A 
ATOM     19  C   UNL     1       6.118   4.921  18.056  0.00  0.00    +0.000 A 
ENDBRANCH  13  14
ENDBRANCH   5  13
TORSDOF 5
ENDMDL
MODEL 3
REMARK VINA RESULT:      -6.4      1.130      1.732
REMARK  Name = 
REMARK  7 active torsions:
REMARK  status: ('A' for Active; 'I' for Inactive)
REMARK    1  A    between atoms: C_1  and  C_2
REMARK    2  A    between atoms: C_2  and  S_3
REMARK    3  A    between atoms: S_3  and  N_6
REMARK    4  A    between atoms: C_9  and  O_10
REMARK    5  A    between atoms: O_10  and  C_11
REMARK    6  A    between atoms: C_12  and  C_13
REMARK    7  A    between atoms: C_13  and  C_14
REMARK                            x       y       z     vdW  Elec       q    Type
REMARK                         _______ _______ _______ _____ _____    ______ ____
ROOT
ATOM      1  N   UNL     1       3.310   4.496  19.433  0.00  0.00    +0.000 NA
ATOM      2  C   UNL     1       2.480   4.678  20.656  0.00  0.00    +0.000 C 
ATOM      3  C   UNL     1       1.657   5.916  20.387  0.00  0.00    +0.000 C 
ATOM      4  C   UNL     1       2.609   6.855  19.655  0.00  0.00    +0.000 C 
ATOM      5  C   UNL     1       3.696   5.928  19.031  0.00  0.00    +0.000 C 
ENDROOT
BRANCH   1   6
ATOM      6  S   UNL     1       2.668   3.466  18.231  0.00  0.00    +0.000 S 
ATOM      7  O   UNL     1       3.772   2.834  17.546  0.00  0.00    +0.000 OA
ATOM      8  O   UNL     1       1.660   4.207  17.507  0.00  0.00    +0.000 OA
BRANCH   6  10
ATOM      9  C   UNL     1       0.358   2.226  18.950  0.00  0.00    +0.000 C 
ATOM     10  C   UNL     1       1.857   2.183  19.184  0.00  0.00    +0.000 C 
ENDBRANCH   6  10
ENDBRANCH   1   6
BRANCH   4  11
ATOM     11  O   UNL     1       1.889   7.632  18.701  0.00  0.00    +0.000 OA
ATOM     12  C   UNL     1       1.500   8.907  19.197  0.00  0.00    +0.000 C 
ENDBRANCH   4  11
BRANCH   5  13
ATOM     13  C   UNL     1       4.037   6.147  17.549  0.00  0.00    +0.000 C 
BRANCH  13  14
ATOM     14  C   UNL     1       5.354   5.568  17.086  0.00  0.00    +0.000 A 
ATOM     15  C   UNL     1       5.619   5.310  15.741  0.00  0.00    +0.000 A 
ATOM     16  C   UNL     1       6.853   4.770  15.403  0.00  0.00    +0.000 A 
ATOM     17  N   UNL     1       7.823   4.479  16.295  0.00  0.00    +0.000 NA
ATOM     18  C   UNL     1       7.554   4.758  17.587  0.00  0.00    +0.000 A 
ATOM     19  C   UNL     1       6.357   5.301  18.023  0.00  0.00    +0.000 A 
ENDBRANCH  13  14
ENDBRANCH   5  13
TORSDOF 5
ENDMDL
MODEL 4
REMARK VINA RESULT:      -6.3      1.357      1.494
REMARK  Name = 
REMARK  7 active torsions:
REMARK  status: ('A' for Active; 'I' for Inactive)
REMARK    1  A    between atoms: C_1  and  C_2
REMARK    2  A    between atoms: C_2  and  S_3
REMARK    3  A    between atoms: S_3  and  N_6
REMARK    4  A    between atoms: C_9  and  O_10
REMARK    5  A    between atoms: O_10  and  C_11
REMARK    6  A    between atoms: C_12  and  C_13
REMARK    7  A    between atoms: C_13  and  C_14
REMARK                            x       y       z     vdW  Elec       q    Type
REMARK                         _______ _______ _______ _____ _____    ______ ____
ROOT
ATOM      1  N   UNL     1       2.870   4.852  19.616  0.00  0.00    +0.000 NA
ATOM      2  C   UNL     1       2.127   5.542  20.707  0.00  0.00    +0.000 C 
ATOM      3  C   UNL     1       1.527   6.767  20.057  0.00  0.00    +0.000 C 
ATOM      4  C   UNL     1       2.606   7.254  19.095  0.00  0.00    +0.000 C 
ATOM      5  C   UNL     1       3.490   6.003  18.806  0.00  0.00    +0.000 C 
ENDROOT
BRANCH   1   6
ATOM      6  S   UNL     1       2.015   3.640  18.769  0.00  0.00    +0.000 S 
ATOM      7  O   UNL     1       2.924   2.546  18.515  0.00  0.00    +0.000 OA
ATOM      8  O   UNL     1       1.290   4.279  17.694  0.00  0.00    +0.000 OA
BRANCH   6  10
ATOM      9  C   UNL     1       1.559   2.418  21.154  0.00  0.00    +0.000 C 
ATOM     10  C   UNL     1       0.833   3.052  19.982  0.00  0.00    +0.000 C 
ENDBRANCH   6  10
ENDBRANCH   1   6
BRANCH   4  11
ATOM     11  O   UNL     1       2.003   7.822  17.935  0.00  0.00    +0.000 OA
ATOM     12  C   UNL     1       2.101   9.240  17.892  0.00  0.00    +0.000 C 
ENDBRANCH   4  11
BRANCH   5  13
ATOM     13  C   UNL     1       3.814   5.699  17.336  0.00  0.00    +0.000 C 
BRANCH  13  14
ATOM     14  C   UNL     1       5.236   5.269  17.052  0.00  0.00    +0.000 A 
ATOM     15  C   UNL     1       6.177   5.101  18.068  0.00  0.00    +0.000 A 
ATOM     16  C   UNL     1       7.463   4.711  17.719  0.00  0.00    +0.000 A 
ATOM     17  N   UNL     1       7.866   4.478  16.452  0.00  0.00    +0.000 NA
ATOM     18  C   UNL     1       6.934   4.625  15.488  0.00  0.00    +0.000 A 
ATOM     19  C   UNL     1       5.626   5.004  15.736  0.00  0.00    +0.000 A 
ENDBRANCH  13  14
ENDBRANCH   5  13
TORSDOF 5
ENDMDL
MODEL 5
REMARK VINA RESULT:      -6.3      2.278      3.624
REMARK  Name = 
REMARK  7 active torsions:
REMARK  status: ('A' for Active; 'I' for Inactive)
REMARK    1  A    between atoms: C_1  and  C_2
REMARK    2  A    between atoms: C_2  and  S_3
REMARK    3  A    between atoms: S_3  and  N_6
REMARK    4  A    between atoms: C_9  and  O_10
REMARK    5  A    between atoms: O_10  and  C_11
REMARK    6  A    between atoms: C_12  and  C_13
REMARK    7  A    between atoms: C_13  and  C_14
REMARK                            x       y       z     vdW  Elec       q    Type
REMARK                         _______ _______ _______ _____ _____    ______ ____
ROOT
ATOM      1  N   UNL     1       4.528   3.599  17.983  0.00  0.00    +0.000 NA
ATOM      2  C   UNL     1       5.194   3.826  19.295  0.00  0.00    +0.000 C 
ATOM      3  C   UNL     1       5.794   5.209  19.193  0.00  0.00    +0.000 C 
ATOM      4  C   UNL     1       6.313   5.294  17.762  0.00  0.00    +0.000 C 
ATOM      5  C   UNL     1       5.487   4.238  16.966  0.00  0.00    +0.000 C 
ENDROOT
BRANCH   1   6
ATOM      6  S   UNL     1       2.872   4.007  17.897  0.00  0.00    +0.000 S 
ATOM      7  O   UNL     1       2.257   3.172  16.889  0.00  0.00    +0.000 OA
ATOM      8  O   UNL     1       2.774   5.448  17.839  0.00  0.00    +0.000 OA
BRANCH   6  10
ATOM      9  C   UNL     1       1.476   4.581  20.158  0.00  0.00    +0.000 C 
ATOM     10  C   UNL     1       2.232   3.455  19.477  0.00  0.00    +0.000 C 
ENDBRANCH   6  10
ENDBRANCH   1   6
BRANCH   4  11
ATOM     11  O   UNL     1       6.178   6.626  17.274  0.00  0.00    +0.000 OA
ATOM     12  C   UNL     1       7.341   7.418  17.483  0.00  0.00    +0.000 C 
ENDBRANCH   4  11
BRANCH   5  13
ATOM     13  C   UNL     1       4.862   4.693  15.639  0.00  0.00    +0.000 C 
BRANCH  13  14
ATOM     14  C   UNL     1       5.711   4.482  14.406  0.00  0.00    +0.000 A 
ATOM     15  C   UNL     1       6.936   5.126  14.230  0.00  0.00    +0.000 A 
ATOM     16  C   UNL     1       7.649   4.880  13.064  0.00  0.00    +0.000 A 
ATOM     17  N   UNL     1       7.235   4.050  12.083  0.00  0.00    +0.000 NA
ATOM     18  C   UNL     1       6.060   3.421  12.285  0.00  0.00    +0.000 A 
ATOM     19  C   UNL     1       5.279   3.595  13.415  0.00  0.00    +0.000 A 
ENDBRANCH  13  14
ENDBRANCH   5  13
TORSDOF 5
ENDMDL
MODEL 6
REMARK VINA RESULT:      -6.3      3.399      5.669
REMARK  Name = 
REMARK  7 active torsions:
REMARK  status: ('A' for Active; 'I' for Inactive)
REMARK    1  A    between atoms: C_1  and  C_2
REMARK    2  A    between atoms: C_2  and  S_3
REMARK    3  A    between atoms: S_3  and  N_6
REMARK    4  A    between atoms: C_9  and  O_10
REMARK    5  A    between atoms: O_10  and  C_11
REMARK    6  A    between atoms: C_12  and  C_13
REMARK    7  A    between atoms: C_13  and  C_14
REMARK                            x       y       z     vdW  Elec       q    Type
REMARK                         _______ _______ _______ _____ _____    ______ ____
ROOT
ATOM      1  N   UNL     1       6.047   5.933  16.015  0.00  0.00    +0.000 NA
ATOM      2  C   UNL     1       6.674   7.191  16.507  0.00  0.00    +0.000 C 
ATOM      3  C   UNL     1       7.091   6.890  17.927  0.00  0.00    +0.000 C 
ATOM      4  C   UNL     1       5.959   6.034  18.484  0.00  0.00    +0.000 C 
ATOM      5  C   UNL     1       5.270   5.407  17.233  0.00  0.00    +0.000 C 
ENDROOT
BRANCH   1   6
ATOM      6  S   UNL     1       7.076   4.850  15.187  0.00  0.00    +0.000 S 
ATOM      7  O   UNL     1       7.744   4.028  16.170  0.00  0.00    +0.000 OA
ATOM      8  O   UNL     1       7.824   5.610  14.211  0.00  0.00    +0.000 OA
BRANCH   6  10
ATOM      9  C   UNL     1       6.324   3.665  12.859  0.00  0.00    +0.000 C 
ATOM     10  C   UNL     1       5.929   3.780  14.320  0.00  0.00    +0.000 C 
ENDBRANCH   6  10
ENDBRANCH   1   6
BRANCH   4  11
ATOM     11  O   UNL     1       6.478   5.077  19.403  0.00  0.00    +0.000 OA
ATOM     12  C   UNL     1       7.833   5.322  19.759  0.00  0.00    +0.000 C 
ENDBRANCH   4  11
BRANCH   5  13
ATOM     13  C   UNL     1       5.002   3.895  17.265  0.00  0.00    +0.000 C 
BRANCH  13  14
ATOM     14  C   UNL     1       3.655   3.478  17.808  0.00  0.00    +0.000 A 
ATOM     15  C   UNL     1       3.457   2.250  18.440  0.00  0.00    +0.000 A 
ATOM     16  C   UNL     1       2.185   1.943  18.903  0.00  0.00    +0.000 A 
ATOM     17  N   UNL     1       1.117   2.761  18.785  0.00  0.00    +0.000 NA
ATOM     18  C   UNL     1       1.337   3.952  18.191  0.00  0.00    +0.000 A 
ATOM     19  C   UNL     1       2.568   4.351  17.702  0.00  0.00    +0.000 A 
ENDBRANCH  13  14
ENDBRANCH   5  13
TORSDOF 5
ENDMDL
MODEL 7
REMARK VINA RESULT:      -6.2      2.588      5.408
REMARK  Name = 
REMARK  7 active torsions:
REMARK  status: ('A' for Active; 'I' for Inactive)
REMARK    1  A    between atoms: C_1  and  C_2
REMARK    2  A    between atoms: C_2  and  S_3
REMARK    3  A    between atoms: S_3  and  N_6
REMARK    4  A    between atoms: C_9  and  O_10
REMARK    5  A    between atoms: O_10  and  C_11
REMARK    6  A    between atoms: C_12  and  C_13
REMARK    7  A    between atoms: C_13  and  C_14
REMARK                            x       y       z     vdW  Elec       q    Type
REMARK                         _______ _______ _______ _____ _____    ______ ____
ROOT
ATOM      1  N   UNL     1       5.381   5.748  17.981  0.00  0.00    +0.000 NA
ATOM      2  C   UNL     1       6.078   4.680  18.749  0.00  0.00    +0.000 C 
ATOM      3  C   UNL     1       4.981   3.741  19.193  0.00  0.00    +0.000 C 
ATOM      4  C   UNL     1       3.817   4.658  19.554  0.00  0.00    +0.000 C 
ATOM      5  C   UNL     1       4.078   5.977  18.764  0.00  0.00    +0.000 C 
ENDROOT
BRANCH   1   6
ATOM      6  S   UNL     1       5.277   5.519  16.292  0.00  0.00    +0.000 S 
ATOM      7  O   UNL     1       5.119   6.815  15.673  0.00  0.00    +0.000 OA
ATOM      8  O   UNL     1       4.334   4.450  16.048  0.00  0.00    +0.000 OA
BRANCH   6  10
ATOM      9  C   UNL     1       6.964   4.556  14.389  0.00  0.00    +0.000 C 
ATOM     10  C   UNL     1       6.917   4.942  15.856  0.00  0.00    +0.000 C 
ENDBRANCH   6  10
ENDBRANCH   1   6
BRANCH   4  11
ATOM     11  O   UNL     1       2.581   4.024  19.238  0.00  0.00    +0.000 OA
ATOM     12  C   UNL     1       2.740   2.690  18.771  0.00  0.00    +0.000 C 
ENDBRANCH   4  11
BRANCH   5  13
ATOM     13  C   UNL     1       2.901   6.559  17.966  0.00  0.00    +0.000 C 
BRANCH  13  14
ATOM     14  C   UNL     1       2.200   7.740  18.598  0.00  0.00    +0.000 A 
ATOM     15  C   UNL     1       1.867   7.767  19.953  0.00  0.00    +0.000 A 
ATOM     16  C   UNL     1       1.217   8.888  20.451  0.00  0.00    +0.000 A 
ATOM     17  N   UNL     1       0.886   9.965  19.707  0.00  0.00    +0.000 NA
ATOM     18  C   UNL     1       1.238   9.927  18.405  0.00  0.00    +0.000 A 
ATOM     19  C   UNL     1       1.893   8.858  17.817  0.00  0.00    +0.000 A 
ENDBRANCH  13  14
ENDBRANCH   5  13
TORSDOF 5
ENDMDL
MODEL 8
REMARK VINA RESULT:      -6.2      1.317      1.913
REMARK  Name = 
REMARK  7 active torsions:
REMARK  status: ('A' for Active; 'I' for Inactive)
REMARK    1  A    between atoms: C_1  and  C_2
REMARK    2  A    between atoms: C_2  and  S_3
REMARK    3  A    between atoms: S_3  and  N_6
REMARK    4  A    between atoms: C_9  and  O_10
REMARK    5  A    between atoms: O_10  and  C_11
REMARK    6  A    between atoms: C_12  and  C_13
REMARK    7  A    between atoms: C_13  and  C_14
REMARK                            x       y       z     vdW  Elec       q    Type
REMARK                         _______ _______ _______ _____ _____    ______ ____
ROOT
ATOM      1  N   UNL     1       2.957   4.345  19.658  0.00  0.00    +0.000 NA
ATOM      2  C   UNL     1       2.464   5.259  20.725  0.00  0.00    +0.000 C 
ATOM      3  C   UNL     1       1.980   6.489  19.992  0.00  0.00    +0.000 C 
ATOM      4  C   UNL     1       2.994   6.688  18.871  0.00  0.00    +0.000 C 
ATOM      5  C   UNL     1       3.639   5.285  18.651  0.00  0.00    +0.000 C 
ENDROOT
BRANCH   1   6
ATOM      6  S   UNL     1       1.833   3.205  19.063  0.00  0.00    +0.000 S 
ATOM      7  O   UNL     1       2.542   1.973  18.799  0.00  0.00    +0.000 OA
ATOM      8  O   UNL     1       1.047   3.853  18.037  0.00  0.00    +0.000 OA
BRANCH   6  10
ATOM      9  C   UNL     1       1.597   2.341  21.630  0.00  0.00    +0.000 C 
ATOM     10  C   UNL     1       0.778   2.894  20.478  0.00  0.00    +0.000 C 
ENDBRANCH   6  10
ENDBRANCH   1   6
BRANCH   4  11
ATOM     11  O   UNL     1       2.347   7.218  17.718  0.00  0.00    +0.000 OA
ATOM     12  C   UNL     1       1.900   8.556  17.894  0.00  0.00    +0.000 C 
ENDBRANCH   4  11
BRANCH   5  13
ATOM     13  C   UNL     1       3.733   4.776  17.205  0.00  0.00    +0.000 C 
BRANCH  13  14
ATOM     14  C   UNL     1       5.122   4.735  16.612  0.00  0.00    +0.000 A 
ATOM     15  C   UNL     1       5.344   4.790  15.236  0.00  0.00    +0.000 A 
ATOM     16  C   UNL     1       6.653   4.739  14.775  0.00  0.00    +0.000 A 
ATOM     17  N   UNL     1       7.735   4.642  15.576  0.00  0.00    +0.000 NA
ATOM     18  C   UNL     1       7.498   4.613  16.904  0.00  0.00    +0.000 A 
ATOM     19  C   UNL     1       6.232   4.664  17.460  0.00  0.00    +0.000 A 
ENDBRANCH  13  14
ENDBRANCH   5  13
TORSDOF 5
ENDMDL
MODEL 9
REMARK VINA RESULT:      -6.2      2.495      5.312
REMARK  Name = 
REMARK  7 active torsions:
REMARK  status: ('A' for Active; 'I' for Inactive)
REMARK    1  A    between atoms: C_1  and  C_2
REMARK    2  A    between atoms: C_2  and  S_3
REMARK    3  A    between atoms: S_3  and  N_6
REMARK    4  A    between atoms: C_9  and  O_10
REMARK    5  A    between atoms: O_10  and  C_11
REMARK    6  A    between atoms: C_12  and  C_13
REMARK    7  A    between atoms: C_13  and  C_14
REMARK                            x       y       z     vdW  Elec       q    Type
REMARK                         _______ _______ _______ _____ _____    ______ ____
ROOT
ATOM      1  N   UNL     1       5.086   5.411  18.326  0.00  0.00    +0.000 NA
ATOM      2  C   UNL     1       5.613   4.275  19.131  0.00  0.00    +0.000 C 
ATOM      3  C   UNL     1       4.398   3.449  19.483  0.00  0.00    +0.000 C 
ATOM      4  C   UNL     1       3.309   4.478  19.768  0.00  0.00    +0.000 C 
ATOM      5  C   UNL     1       3.758   5.766  19.014  0.00  0.00    +0.000 C 
ENDROOT
BRANCH   1   6
ATOM      6  S   UNL     1       5.085   5.199  16.631  0.00  0.00    +0.000 S 
ATOM      7  O   UNL     1       4.998   6.505  16.017  0.00  0.00    +0.000 OA
ATOM      8  O   UNL     1       4.134   4.157  16.316  0.00  0.00    +0.000 OA
BRANCH   6  10
ATOM      9  C   UNL     1       7.043   4.700  14.813  0.00  0.00    +0.000 C 
ATOM     10  C   UNL     1       6.735   4.586  16.295  0.00  0.00    +0.000 C 
ENDBRANCH   6  10
ENDBRANCH   1   6
BRANCH   4  11
ATOM     11  O   UNL     1       2.042   3.973  19.355  0.00  0.00    +0.000 OA
ATOM     12  C   UNL     1       1.053   4.044  20.374  0.00  0.00    +0.000 C 
ENDBRANCH   4  11
BRANCH   5  13
ATOM     13  C   UNL     1       2.708   6.468  18.139  0.00  0.00    +0.000 C 
BRANCH  13  14
ATOM     14  C   UNL     1       2.096   7.720  18.724  0.00  0.00    +0.000 A 
ATOM     15  C   UNL     1       1.831   8.848  17.948  0.00  0.00    +0.000 A 
ATOM     16  C   UNL     1       1.274   9.959  18.568  0.00  0.00    +0.000 A 
ATOM     17  N   UNL     1       0.966  10.020  19.881  0.00  0.00    +0.000 NA
ATOM     18  C   UNL     1       1.210   8.910  20.607  0.00  0.00    +0.000 A 
ATOM     19  C   UNL     1       1.757   7.752  20.080  0.00  0.00    +0.000 A 
ENDBRANCH  13  14
ENDBRANCH   5  13
TORSDOF 5
ENDMDL
