MODEL 1
REMARK VINA RESULT:      -9.1      0.000      0.000
REMARK  Name = 
REMARK  5 active torsions:
REMARK  status: ('A' for Active; 'I' for Inactive)
REMARK    1  A    between atoms: C_1  and  S_2
REMARK    2  A    between atoms: S_2  and  C_5
REMARK    3  A    between atoms: C_10  and  N_11
REMARK    4  A    between atoms: N_16  and  C_17
REMARK    5  A    between atoms: C_20  and  C_21
REMARK                            x       y       z     vdW  Elec       q    Type
REMARK                         _______ _______ _______ _____ _____    ______ ____
ROOT
ATOM      1  N   UNL     1       1.460   7.368  20.868  0.00  0.00    +0.000 N 
ATOM      2  C   UNL     1       2.155   6.294  20.394  0.00  0.00    +0.000 A 
ATOM      3  N   UNL     1       3.030   6.273  19.404  0.00  0.00    +0.000 NA
ATOM      4  C   UNL     1       3.561   4.999  19.236  0.00  0.00    +0.000 A 
ATOM      5  C   UNL     1       4.522   4.536  18.306  0.00  0.00    +0.000 A 
ATOM      6  N   UNL     1       5.107   5.358  17.320  0.00  0.00    +0.000 N 
ATOM      7  N   UNL     1       4.905   3.232  18.394  0.00  0.00    +0.000 NA
ATOM      8  C   UNL     1       4.339   2.434  19.309  0.00  0.00    +0.000 A 
ATOM      9  N   UNL     1       3.386   2.754  20.188  0.00  0.00    +0.000 NA
ATOM     10  C   UNL     1       3.050   4.052  20.107  0.00  0.00    +0.000 A 
ATOM     11  S   UNL     1       1.884   4.750  21.130  0.00  0.00    +0.000 S 
ATOM     12  H   UNL     1       0.731   7.141  21.554  0.00  0.00    +0.000 HD
ATOM     13  H   UNL     1       4.700   6.290  17.316  0.00  0.00    +0.000 HD
ENDROOT
BRANCH   1  19
ATOM     14  C   UNL     1       0.628   9.709  20.875  0.00  0.00    +0.000 A 
ATOM     15  C   UNL     1       0.369  10.911  20.186  0.00  0.00    +0.000 A 
ATOM     16  C   UNL     1       0.800  11.075  18.874  0.00  0.00    +0.000 A 
ATOM     17  C   UNL     1       1.515  10.060  18.263  0.00  0.00    +0.000 A 
ATOM     18  C   UNL     1       1.766   8.871  18.950  0.00  0.00    +0.000 A 
ATOM     19  C   UNL     1       1.279   8.627  20.246  0.00  0.00    +0.000 A 
BRANCH  14  21
ATOM     20  C   UNL     1      -0.894  11.147  22.748  0.00  0.00    +0.000 C 
ATOM     21  S   UNL     1       0.007   9.628  22.544  0.00  0.00    +0.000 S 
ATOM     22  O   UNL     1       1.154   9.664  23.442  0.00  0.00    +0.000 OA
ATOM     23  O   UNL     1      -0.933   8.529  22.600  0.00  0.00    +0.000 OA
ENDBRANCH  14  21
ENDBRANCH   1  19
BRANCH   6  24
ATOM     24  C   UNL     1       5.525   4.933  16.038  0.00  0.00    +0.000 A 
ATOM     25  C   UNL     1       4.668   4.237  15.174  0.00  0.00    +0.000 A 
ATOM     26  C   UNL     1       5.078   3.850  13.895  0.00  0.00    +0.000 A 
ATOM     27  C   UNL     1       6.365   4.153  13.439  0.00  0.00    +0.000 A 
ATOM     28  C   UNL     1       7.236   4.836  14.302  0.00  0.00    +0.000 A 
ATOM     29  C   UNL     1       6.814   5.233  15.582  0.00  0.00    +0.000 A 
BRANCH  27  30
ATOM     30  C   UNL     1       6.798   3.776  12.044  0.00  0.00    +0.000 C 
ATOM     31  F   UNL     1       7.488   2.602  11.986  0.00  0.00    +0.000 F 
ATOM     32  F   UNL     1       5.741   3.622  11.198  0.00  0.00    +0.000 F 
ATOM     33  F   UNL     1       7.604   4.709  11.468  0.00  0.00    +0.000 F 
ENDBRANCH  27  30
ENDBRANCH   6  24
TORSDOF 4
ENDMDL
MODEL 2
REMARK VINA RESULT:      -8.5      5.366      8.136
REMARK  Name = 
REMARK  5 active torsions:
REMARK  status: ('A' for Active; 'I' for Inactive)
REMARK    1  A    between atoms: C_1  and  S_2
REMARK    2  A    between atoms: S_2  and  C_5
REMARK    3  A    between atoms: C_10  and  N_11
REMARK    4  A    between atoms: N_16  and  C_17
REMARK    5  A    between atoms: C_20  and  C_21
REMARK                            x       y       z     vdW  Elec       q    Type
REMARK                         _______ _______ _______ _____ _____    ______ ____
ROOT
ATOM      1  N   UNL     1      -4.068  13.462  20.217  0.00  0.00    +0.000 N 
ATOM      2  C   UNL     1      -2.721  13.262  20.304  0.00  0.00    +0.000 A 
ATOM      3  N   UNL     1      -2.010  12.302  19.741  0.00  0.00    +0.000 NA
ATOM      4  C   UNL     1      -0.657  12.450  20.029  0.00  0.00    +0.000 A 
ATOM      5  C   UNL     1       0.444  11.656  19.630  0.00  0.00    +0.000 A 
ATOM      6  N   UNL     1       0.317  10.493  18.840  0.00  0.00    +0.000 N 
ATOM      7  N   UNL     1       1.685  12.060  20.019  0.00  0.00    +0.000 NA
ATOM      8  C   UNL     1       1.818  13.148  20.790  0.00  0.00    +0.000 A 
ATOM      9  N   UNL     1       0.846  13.927  21.269  0.00  0.00    +0.000 NA
ATOM     10  C   UNL     1      -0.366  13.531  20.844  0.00  0.00    +0.000 A 
ATOM     11  S   UNL     1      -1.789  14.358  21.269  0.00  0.00    +0.000 S 
ATOM     12  H   UNL     1      -4.438  14.188  20.840  0.00  0.00    +0.000 HD
ATOM     13  H   UNL     1      -0.657  10.262  18.664  0.00  0.00    +0.000 HD
ENDROOT
BRANCH   1  19
ATOM     14  C   UNL     1      -6.085  12.060  20.590  0.00  0.00    +0.000 A 
ATOM     15  C   UNL     1      -6.980  11.070  20.137  0.00  0.00    +0.000 A 
ATOM     16  C   UNL     1      -6.895  10.589  18.836  0.00  0.00    +0.000 A 
ATOM     17  C   UNL     1      -5.944  11.114  17.979  0.00  0.00    +0.000 A 
ATOM     18  C   UNL     1      -5.057  12.092  18.434  0.00  0.00    +0.000 A 
ATOM     19  C   UNL     1      -5.052  12.550  19.764  0.00  0.00    +0.000 A 
BRANCH  14  21
ATOM     20  C   UNL     1      -6.936  14.232  22.157  0.00  0.00    +0.000 C 
ATOM     21  S   UNL     1      -6.298  12.577  22.283  0.00  0.00    +0.000 S 
ATOM     22  O   UNL     1      -4.975  12.653  22.889  0.00  0.00    +0.000 OA
ATOM     23  O   UNL     1      -7.323  11.736  22.863  0.00  0.00    +0.000 OA
ENDBRANCH  14  21
ENDBRANCH   1  19
BRANCH   6  24
ATOM     24  C   UNL     1       1.149   9.353  18.918  0.00  0.00    +0.000 A 
ATOM     25  C   UNL     1       1.249   8.589  20.089  0.00  0.00    +0.000 A 
ATOM     26  C   UNL     1       2.047   7.443  20.146  0.00  0.00    +0.000 A 
ATOM     27  C   UNL     1       2.772   7.024  19.026  0.00  0.00    +0.000 A 
ATOM     28  C   UNL     1       2.691   7.792  17.853  0.00  0.00    +0.000 A 
ATOM     29  C   UNL     1       1.878   8.935  17.798  0.00  0.00    +0.000 A 
BRANCH  27  30
ATOM     30  C   UNL     1       3.601   5.765  19.070  0.00  0.00    +0.000 C 
ATOM     31  F   UNL     1       3.432   5.039  20.212  0.00  0.00    +0.000 F 
ATOM     32  F   UNL     1       3.305   4.914  18.047  0.00  0.00    +0.000 F 
ATOM     33  F   UNL     1       4.938   6.007  18.979  0.00  0.00    +0.000 F 
ENDBRANCH  27  30
ENDBRANCH   6  24
TORSDOF 4
ENDMDL
MODEL 3
REMARK VINA RESULT:      -8.3      5.406      8.180
REMARK  Name = 
REMARK  5 active torsions:
REMARK  status: ('A' for Active; 'I' for Inactive)
REMARK    1  A    between atoms: C_1  and  S_2
REMARK    2  A    between atoms: S_2  and  C_5
REMARK    3  A    between atoms: C_10  and  N_11
REMARK    4  A    between atoms: N_16  and  C_17
REMARK    5  A    between atoms: C_20  and  C_21
REMARK                            x       y       z     vdW  Elec       q    Type
REMARK                         _______ _______ _______ _____ _____    ______ ____
ROOT
ATOM      1  N   UNL     1      -3.942  13.536  20.199  0.00  0.00    +0.000 N 
ATOM      2  C   UNL     1      -2.601  13.289  20.252  0.00  0.00    +0.000 A 
ATOM      3  N   UNL     1      -1.947  12.271  19.723  0.00  0.00    +0.000 NA
ATOM      4  C   UNL     1      -0.580  12.383  19.955  0.00  0.00    +0.000 A 
ATOM      5  C   UNL     1       0.476  11.525  19.566  0.00  0.00    +0.000 A 
ATOM      6  N   UNL     1       0.278  10.323  18.854  0.00  0.00    +0.000 N 
ATOM      7  N   UNL     1       1.745  11.904  19.887  0.00  0.00    +0.000 NA
ATOM      8  C   UNL     1       1.945  13.029  20.585  0.00  0.00    +0.000 A 
ATOM      9  N   UNL     1       1.020  13.873  21.049  0.00  0.00    +0.000 NA
ATOM     10  C   UNL     1      -0.219  13.499  20.691  0.00  0.00    +0.000 A 
ATOM     11  S   UNL     1      -1.595  14.404  21.114  0.00  0.00    +0.000 S 
ATOM     12  H   UNL     1      -4.262  14.311  20.790  0.00  0.00    +0.000 HD
ATOM     13  H   UNL     1      -0.710  10.120  18.725  0.00  0.00    +0.000 HD
ENDROOT
BRANCH   1  19
ATOM     14  C   UNL     1      -6.005  12.253  20.720  0.00  0.00    +0.000 A 
ATOM     15  C   UNL     1      -6.953  11.273  20.362  0.00  0.00    +0.000 A 
ATOM     16  C   UNL     1      -6.922  10.695  19.098  0.00  0.00    +0.000 A 
ATOM     17  C   UNL     1      -5.972  11.115  18.183  0.00  0.00    +0.000 A 
ATOM     18  C   UNL     1      -5.034  12.084  18.545  0.00  0.00    +0.000 A 
ATOM     19  C   UNL     1      -4.975  12.636  19.837  0.00  0.00    +0.000 A 
BRANCH  14  21
ATOM     20  C   UNL     1      -7.661  12.187  22.989  0.00  0.00    +0.000 C 
ATOM     21  S   UNL     1      -6.152  12.900  22.375  0.00  0.00    +0.000 S 
ATOM     22  O   UNL     1      -6.350  14.339  22.269  0.00  0.00    +0.000 OA
ATOM     23  O   UNL     1      -5.049  12.365  23.145  0.00  0.00    +0.000 OA
ENDBRANCH  14  21
ENDBRANCH   1  19
BRANCH   6  24
ATOM     24  C   UNL     1       1.070   9.159  18.971  0.00  0.00    +0.000 A 
ATOM     25  C   UNL     1       1.835   8.674  17.900  0.00  0.00    +0.000 A 
ATOM     26  C   UNL     1       2.643   7.541  18.035  0.00  0.00    +0.000 A 
ATOM     27  C   UNL     1       2.712   6.858  19.253  0.00  0.00    +0.000 A 
ATOM     28  C   UNL     1       1.938   7.326  20.326  0.00  0.00    +0.000 A 
ATOM     29  C   UNL     1       1.137   8.472  20.189  0.00  0.00    +0.000 A 
BRANCH  27  30
ATOM     30  C   UNL     1       3.615   5.660  19.416  0.00  0.00    +0.000 C 
ATOM     31  F   UNL     1       3.291   4.873  20.481  0.00  0.00    +0.000 F 
ATOM     32  F   UNL     1       3.584   4.838  18.330  0.00  0.00    +0.000 F 
ATOM     33  F   UNL     1       4.921   6.000  19.590  0.00  0.00    +0.000 F 
ENDBRANCH  27  30
ENDBRANCH   6  24
TORSDOF 4
ENDMDL
MODEL 4
REMARK VINA RESULT:      -8.1      5.282      8.017
REMARK  Name = 
REMARK  5 active torsions:
REMARK  status: ('A' for Active; 'I' for Inactive)
REMARK    1  A    between atoms: C_1  and  S_2
REMARK    2  A    between atoms: S_2  and  C_5
REMARK    3  A    between atoms: C_10  and  N_11
REMARK    4  A    between atoms: N_16  and  C_17
REMARK    5  A    between atoms: C_20  and  C_21
REMARK                            x       y       z     vdW  Elec       q    Type
REMARK                         _______ _______ _______ _____ _____    ______ ____
ROOT
ATOM      1  N   UNL     1      -3.932  13.413  20.159  0.00  0.00    +0.000 N 
ATOM      2  C   UNL     1      -2.586  13.198  20.221  0.00  0.00    +0.000 A 
ATOM      3  N   UNL     1      -1.890  12.258  19.606  0.00  0.00    +0.000 NA
ATOM      4  C   UNL     1      -0.532  12.382  19.884  0.00  0.00    +0.000 A 
ATOM      5  C   UNL     1       0.557  11.598  19.435  0.00  0.00    +0.000 A 
ATOM      6  N   UNL     1       0.410  10.473  18.596  0.00  0.00    +0.000 N 
ATOM      7  N   UNL     1       1.806  11.973  19.827  0.00  0.00    +0.000 NA
ATOM      8  C   UNL     1       1.957  13.024  20.645  0.00  0.00    +0.000 A 
ATOM      9  N   UNL     1       0.998  13.789  21.170  0.00  0.00    +0.000 NA
ATOM     10  C   UNL     1      -0.222  13.423  20.743  0.00  0.00    +0.000 A 
ATOM     11  S   UNL     1      -1.633  14.241  21.222  0.00  0.00    +0.000 S 
ATOM     12  H   UNL     1      -4.288  14.113  20.819  0.00  0.00    +0.000 HD
ATOM     13  H   UNL     1      -0.569  10.258  18.421  0.00  0.00    +0.000 HD
ENDROOT
BRANCH   1  19
ATOM     14  C   UNL     1      -6.035  12.124  20.452  0.00  0.00    +0.000 A 
ATOM     15  C   UNL     1      -6.948  11.160  19.979  0.00  0.00    +0.000 A 
ATOM     16  C   UNL     1      -6.805  10.622  18.705  0.00  0.00    +0.000 A 
ATOM     17  C   UNL     1      -5.776  11.066  17.893  0.00  0.00    +0.000 A 
ATOM     18  C   UNL     1      -4.873  12.019  18.368  0.00  0.00    +0.000 A 
ATOM     19  C   UNL     1      -4.929  12.530  19.677  0.00  0.00    +0.000 A 
BRANCH  14  21
ATOM     20  C   UNL     1      -7.087  14.310  21.869  0.00  0.00    +0.000 C 
ATOM     21  S   UNL     1      -6.330  12.719  22.106  0.00  0.00    +0.000 S 
ATOM     22  O   UNL     1      -5.033  12.931  22.734  0.00  0.00    +0.000 OA
ATOM     23  O   UNL     1      -7.304  11.837  22.713  0.00  0.00    +0.000 OA
ENDBRANCH  14  21
ENDBRANCH   1  19
BRANCH   6  24
ATOM     24  C   UNL     1       1.233   9.324  18.611  0.00  0.00    +0.000 A 
ATOM     25  C   UNL     1       2.061   8.993  17.529  0.00  0.00    +0.000 A 
ATOM     26  C   UNL     1       2.898   7.874  17.566  0.00  0.00    +0.000 A 
ATOM     27  C   UNL     1       2.932   7.049  18.695  0.00  0.00    +0.000 A 
ATOM     28  C   UNL     1       2.095   7.363  19.777  0.00  0.00    +0.000 A 
ATOM     29  C   UNL     1       1.266   8.495  19.739  0.00  0.00    +0.000 A 
BRANCH  27  30
ATOM     30  C   UNL     1       3.864   5.864  18.757  0.00  0.00    +0.000 C 
ATOM     31  F   UNL     1       4.905   5.942  17.880  0.00  0.00    +0.000 F 
ATOM     32  F   UNL     1       4.431   5.716  19.987  0.00  0.00    +0.000 F 
ATOM     33  F   UNL     1       3.240   4.684  18.489  0.00  0.00    +0.000 F 
ENDBRANCH  27  30
ENDBRANCH   6  24
TORSDOF 4
ENDMDL
MODEL 5
REMARK VINA RESULT:      -8.0      0.718      1.181
REMARK  Name = 
REMARK  5 active torsions:
REMARK  status: ('A' for Active; 'I' for Inactive)
REMARK    1  A    between atoms: C_1  and  S_2
REMARK    2  A    between atoms: S_2  and  C_5
REMARK    3  A    between atoms: C_10  and  N_11
REMARK    4  A    between atoms: N_16  and  C_17
REMARK    5  A    between atoms: C_20  and  C_21
REMARK                            x       y       z     vdW  Elec       q    Type
REMARK                         _______ _______ _______ _____ _____    ______ ____
ROOT
ATOM      1  N   UNL     1       1.518   7.574  20.731  0.00  0.00    +0.000 N 
ATOM      2  C   UNL     1       2.200   6.488  20.263  0.00  0.00    +0.000 A 
ATOM      3  N   UNL     1       3.071   6.449  19.270  0.00  0.00    +0.000 NA
ATOM      4  C   UNL     1       3.587   5.167  19.111  0.00  0.00    +0.000 A 
ATOM      5  C   UNL     1       4.540   4.686  18.181  0.00  0.00    +0.000 A 
ATOM      6  N   UNL     1       5.131   5.493  17.186  0.00  0.00    +0.000 N 
ATOM      7  N   UNL     1       4.908   3.378  18.279  0.00  0.00    +0.000 NA
ATOM      8  C   UNL     1       4.336   2.594  19.203  0.00  0.00    +0.000 A 
ATOM      9  N   UNL     1       3.391   2.932  20.082  0.00  0.00    +0.000 NA
ATOM     10  C   UNL     1       3.068   4.233  19.992  0.00  0.00    +0.000 A 
ATOM     11  S   UNL     1       1.915   4.953  21.013  0.00  0.00    +0.000 S 
ATOM     12  H   UNL     1       0.790   7.361  21.421  0.00  0.00    +0.000 HD
ATOM     13  H   UNL     1       4.733   6.429  17.176  0.00  0.00    +0.000 HD
ENDROOT
BRANCH   1  19
ATOM     14  C   UNL     1       0.872   9.972  20.774  0.00  0.00    +0.000 A 
ATOM     15  C   UNL     1       0.612  11.175  20.088  0.00  0.00    +0.000 A 
ATOM     16  C   UNL     1       0.874  11.278  18.726  0.00  0.00    +0.000 A 
ATOM     17  C   UNL     1       1.422  10.197  18.057  0.00  0.00    +0.000 A 
ATOM     18  C   UNL     1       1.674   9.007  18.742  0.00  0.00    +0.000 A 
ATOM     19  C   UNL     1       1.350   8.829  20.099  0.00  0.00    +0.000 A 
BRANCH  14  21
ATOM     20  C   UNL     1      -0.822   8.771  22.667  0.00  0.00    +0.000 C 
ATOM     21  S   UNL     1       0.477   9.975  22.513  0.00  0.00    +0.000 S 
ATOM     22  O   UNL     1      -0.082  11.281  22.834  0.00  0.00    +0.000 OA
ATOM     23  O   UNL     1       1.642   9.482  23.218  0.00  0.00    +0.000 OA
ENDBRANCH  14  21
ENDBRANCH   1  19
BRANCH   6  24
ATOM     24  C   UNL     1       5.539   5.052  15.907  0.00  0.00    +0.000 A 
ATOM     25  C   UNL     1       6.838   5.276  15.428  0.00  0.00    +0.000 A 
ATOM     26  C   UNL     1       7.245   4.806  14.176  0.00  0.00    +0.000 A 
ATOM     27  C   UNL     1       6.358   4.093  13.362  0.00  0.00    +0.000 A 
ATOM     28  C   UNL     1       5.051   3.879  13.826  0.00  0.00    +0.000 A 
ATOM     29  C   UNL     1       4.652   4.342  15.090  0.00  0.00    +0.000 A 
BRANCH  27  30
ATOM     30  C   UNL     1       6.805   3.549  12.028  0.00  0.00    +0.000 C 
ATOM     31  F   UNL     1       7.690   2.517  12.128  0.00  0.00    +0.000 F 
ATOM     32  F   UNL     1       5.764   3.068  11.290  0.00  0.00    +0.000 F 
ATOM     33  F   UNL     1       7.413   4.485  11.249  0.00  0.00    +0.000 F 
ENDBRANCH  27  30
ENDBRANCH   6  24
TORSDOF 4
ENDMDL
MODEL 6
REMARK VINA RESULT:      -8.0      5.630      8.267
REMARK  Name = 
REMARK  5 active torsions:
REMARK  status: ('A' for Active; 'I' for Inactive)
REMARK    1  A    between atoms: C_1  and  S_2
REMARK    2  A    between atoms: S_2  and  C_5
REMARK    3  A    between atoms: C_10  and  N_11
REMARK    4  A    between atoms: N_16  and  C_17
REMARK    5  A    between atoms: C_20  and  C_21
REMARK                            x       y       z     vdW  Elec       q    Type
REMARK                         _______ _______ _______ _____ _____    ______ ____
ROOT
ATOM      1  N   UNL     1      -3.931  13.716  20.130  0.00  0.00    +0.000 N 
ATOM      2  C   UNL     1      -2.587  13.483  20.125  0.00  0.00    +0.000 A 
ATOM      3  N   UNL     1      -1.953  12.426  19.650  0.00  0.00    +0.000 NA
ATOM      4  C   UNL     1      -0.576  12.566  19.790  0.00  0.00    +0.000 A 
ATOM      5  C   UNL     1       0.464  11.683  19.415  0.00  0.00    +0.000 A 
ATOM      6  N   UNL     1       0.238  10.422  18.822  0.00  0.00    +0.000 N 
ATOM      7  N   UNL     1       1.745  12.095  19.627  0.00  0.00    +0.000 NA
ATOM      8  C   UNL     1       1.974  13.278  20.212  0.00  0.00    +0.000 A 
ATOM      9  N   UNL     1       1.069  14.153  20.655  0.00  0.00    +0.000 NA
ATOM     10  C   UNL     1      -0.185  13.743  20.404  0.00  0.00    +0.000 A 
ATOM     11  S   UNL     1      -1.544  14.674  20.828  0.00  0.00    +0.000 S 
ATOM     12  H   UNL     1      -4.224  14.538  20.670  0.00  0.00    +0.000 HD
ATOM     13  H   UNL     1      -0.754  10.203  18.770  0.00  0.00    +0.000 HD
ENDROOT
BRANCH   1  19
ATOM     14  C   UNL     1      -5.872  12.381  20.918  0.00  0.00    +0.000 A 
ATOM     15  C   UNL     1      -6.827  11.370  20.690  0.00  0.00    +0.000 A 
ATOM     16  C   UNL     1      -6.938  10.778  19.437  0.00  0.00    +0.000 A 
ATOM     17  C   UNL     1      -6.124  11.214  18.406  0.00  0.00    +0.000 A 
ATOM     18  C   UNL     1      -5.178  12.215  18.639  0.00  0.00    +0.000 A 
ATOM     19  C   UNL     1      -4.973  12.784  19.909  0.00  0.00    +0.000 A 
BRANCH  14  21
ATOM     20  C   UNL     1      -4.221  12.594  23.181  0.00  0.00    +0.000 C 
ATOM     21  S   UNL     1      -5.830  13.043  22.573  0.00  0.00    +0.000 S 
ATOM     22  O   UNL     1      -6.822  12.323  23.360  0.00  0.00    +0.000 OA
ATOM     23  O   UNL     1      -5.888  14.486  22.460  0.00  0.00    +0.000 OA
ENDBRANCH  14  21
ENDBRANCH   1  19
BRANCH   6  24
ATOM     24  C   UNL     1       1.048   9.277  18.993  0.00  0.00    +0.000 A 
ATOM     25  C   UNL     1       1.144   8.617  20.226  0.00  0.00    +0.000 A 
ATOM     26  C   UNL     1       1.920   7.464  20.379  0.00  0.00    +0.000 A 
ATOM     27  C   UNL     1       2.625   6.933  19.293  0.00  0.00    +0.000 A 
ATOM     28  C   UNL     1       2.547   7.596  18.059  0.00  0.00    +0.000 A 
ATOM     29  C   UNL     1       1.757   8.747  17.909  0.00  0.00    +0.000 A 
BRANCH  27  30
ATOM     30  C   UNL     1       3.430   5.666  19.442  0.00  0.00    +0.000 C 
ATOM     31  F   UNL     1       3.301   4.811  18.388  0.00  0.00    +0.000 F 
ATOM     32  F   UNL     1       4.765   5.911  19.554  0.00  0.00    +0.000 F 
ATOM     33  F   UNL     1       3.088   4.947  20.546  0.00  0.00    +0.000 F 
ENDBRANCH  27  30
ENDBRANCH   6  24
TORSDOF 4
ENDMDL
MODEL 7
REMARK VINA RESULT:      -8.0      4.889      7.031
REMARK  Name = 
REMARK  5 active torsions:
REMARK  status: ('A' for Active; 'I' for Inactive)
REMARK    1  A    between atoms: C_1  and  S_2
REMARK    2  A    between atoms: S_2  and  C_5
REMARK    3  A    between atoms: C_10  and  N_11
REMARK    4  A    between atoms: N_16  and  C_17
REMARK    5  A    between atoms: C_20  and  C_21
REMARK                            x       y       z     vdW  Elec       q    Type
REMARK                         _______ _______ _______ _____ _____    ______ ____
ROOT
ATOM      1  N   UNL     1      -2.468  11.865  19.332  0.00  0.00    +0.000 N 
ATOM      2  C   UNL     1      -1.567  11.201  20.112  0.00  0.00    +0.000 A 
ATOM      3  N   UNL     1      -0.711  10.266  19.739  0.00  0.00    +0.000 NA
ATOM      4  C   UNL     1       0.074   9.853  20.811  0.00  0.00    +0.000 A 
ATOM      5  C   UNL     1       1.106   8.886  20.855  0.00  0.00    +0.000 A 
ATOM      6  N   UNL     1       1.503   8.122  19.736  0.00  0.00    +0.000 N 
ATOM      7  N   UNL     1       1.752   8.710  22.040  0.00  0.00    +0.000 NA
ATOM      8  C   UNL     1       1.368   9.410  23.116  0.00  0.00    +0.000 A 
ATOM      9  N   UNL     1       0.374  10.297  23.196  0.00  0.00    +0.000 NA
ATOM     10  C   UNL     1      -0.226  10.480  22.008  0.00  0.00    +0.000 A 
ATOM     11  S   UNL     1      -1.507  11.580  21.801  0.00  0.00    +0.000 S 
ATOM     12  H   UNL     1      -3.131  12.456  19.846  0.00  0.00    +0.000 HD
ATOM     13  H   UNL     1       0.910   8.300  18.929  0.00  0.00    +0.000 HD
ENDROOT
BRANCH   1  19
ATOM     14  C   UNL     1      -4.264  11.569  17.641  0.00  0.00    +0.000 A 
ATOM     15  C   UNL     1      -4.681  11.113  16.375  0.00  0.00    +0.000 A 
ATOM     16  C   UNL     1      -3.748  10.646  15.455  0.00  0.00    +0.000 A 
ATOM     17  C   UNL     1      -2.404  10.664  15.783  0.00  0.00    +0.000 A 
ATOM     18  C   UNL     1      -1.998  11.115  17.041  0.00  0.00    +0.000 A 
ATOM     19  C   UNL     1      -2.910  11.518  18.032  0.00  0.00    +0.000 A 
BRANCH  14  21
ATOM     20  C   UNL     1      -6.669  13.023  17.657  0.00  0.00    +0.000 C 
ATOM     21  S   UNL     1      -5.565  12.128  18.726  0.00  0.00    +0.000 S 
ATOM     22  O   UNL     1      -4.979  13.079  19.661  0.00  0.00    +0.000 OA
ATOM     23  O   UNL     1      -6.254  10.950  19.211  0.00  0.00    +0.000 OA
ENDBRANCH  14  21
ENDBRANCH   1  19
BRANCH   6  24
ATOM     24  C   UNL     1       1.994   6.798  19.779  0.00  0.00    +0.000 A 
ATOM     25  C   UNL     1       3.005   6.356  18.913  0.00  0.00    +0.000 A 
ATOM     26  C   UNL     1       3.510   5.055  18.985  0.00  0.00    +0.000 A 
ATOM     27  C   UNL     1       3.018   4.152  19.932  0.00  0.00    +0.000 A 
ATOM     28  C   UNL     1       1.995   4.580  20.793  0.00  0.00    +0.000 A 
ATOM     29  C   UNL     1       1.500   5.892  20.725  0.00  0.00    +0.000 A 
BRANCH  27  30
ATOM     30  C   UNL     1       3.589   2.760  20.042  0.00  0.00    +0.000 C 
ATOM     31  F   UNL     1       4.905   2.682  19.698  0.00  0.00    +0.000 F 
ATOM     32  F   UNL     1       3.511   2.267  21.310  0.00  0.00    +0.000 F 
ATOM     33  F   UNL     1       2.944   1.859  19.251  0.00  0.00    +0.000 F 
ENDBRANCH  27  30
ENDBRANCH   6  24
TORSDOF 4
ENDMDL
MODEL 8
REMARK VINA RESULT:      -8.0      5.599      8.390
REMARK  Name = 
REMARK  5 active torsions:
REMARK  status: ('A' for Active; 'I' for Inactive)
REMARK    1  A    between atoms: C_1  and  S_2
REMARK    2  A    between atoms: S_2  and  C_5
REMARK    3  A    between atoms: C_10  and  N_11
REMARK    4  A    between atoms: N_16  and  C_17
REMARK    5  A    between atoms: C_20  and  C_21
REMARK                            x       y       z     vdW  Elec       q    Type
REMARK                         _______ _______ _______ _____ _____    ______ ____
ROOT
ATOM      1  N   UNL     1      -3.882  14.105  20.647  0.00  0.00    +0.000 N 
ATOM      2  C   UNL     1      -2.545  13.840  20.583  0.00  0.00    +0.000 A 
ATOM      3  N   UNL     1      -1.953  12.805  20.015  0.00  0.00    +0.000 NA
ATOM      4  C   UNL     1      -0.570  12.901  20.121  0.00  0.00    +0.000 A 
ATOM      5  C   UNL     1       0.436  12.022  19.653  0.00  0.00    +0.000 A 
ATOM      6  N   UNL     1       0.159  10.813  18.981  0.00  0.00    +0.000 N 
ATOM      7  N   UNL     1       1.733  12.388  19.852  0.00  0.00    +0.000 NA
ATOM      8  C   UNL     1       2.009  13.520  20.512  0.00  0.00    +0.000 A 
ATOM      9  N   UNL     1       1.141  14.384  21.043  0.00  0.00    +0.000 NA
ATOM     10  C   UNL     1      -0.130  14.022  20.804  0.00  0.00    +0.000 A 
ATOM     11  S   UNL     1      -1.451  14.953  21.334  0.00  0.00    +0.000 S 
ATOM     12  H   UNL     1      -4.138  14.893  21.252  0.00  0.00    +0.000 HD
ATOM     13  H   UNL     1      -0.839  10.622  18.945  0.00  0.00    +0.000 HD
ENDROOT
BRANCH   1  19
ATOM     14  C   UNL     1      -5.783  12.700  21.412  0.00  0.00    +0.000 A 
ATOM     15  C   UNL     1      -6.770  11.732  21.136  0.00  0.00    +0.000 A 
ATOM     16  C   UNL     1      -6.984  11.299  19.831  0.00  0.00    +0.000 A 
ATOM     17  C   UNL     1      -6.241  11.852  18.803  0.00  0.00    +0.000 A 
ATOM     18  C   UNL     1      -5.263  12.808  19.083  0.00  0.00    +0.000 A 
ATOM     19  C   UNL     1      -4.954  13.215  20.393  0.00  0.00    +0.000 A 
BRANCH  14  21
ATOM     20  C   UNL     1      -6.289  14.791  23.218  0.00  0.00    +0.000 C 
ATOM     21  S   UNL     1      -5.605  13.153  23.127  0.00  0.00    +0.000 S 
ATOM     22  O   UNL     1      -4.180  13.247  23.411  0.00  0.00    +0.000 OA
ATOM     23  O   UNL     1      -6.449  12.262  23.896  0.00  0.00    +0.000 OA
ENDBRANCH  14  21
ENDBRANCH   1  19
BRANCH   6  24
ATOM     24  C   UNL     1       0.944   9.639  19.045  0.00  0.00    +0.000 A 
ATOM     25  C   UNL     1       1.029   8.871  20.215  0.00  0.00    +0.000 A 
ATOM     26  C   UNL     1       1.780   7.692  20.260  0.00  0.00    +0.000 A 
ATOM     27  C   UNL     1       2.469   7.244  19.129  0.00  0.00    +0.000 A 
ATOM     28  C   UNL     1       2.402   8.015  17.958  0.00  0.00    +0.000 A 
ATOM     29  C   UNL     1       1.636   9.192  17.914  0.00  0.00    +0.000 A 
BRANCH  27  30
ATOM     30  C   UNL     1       3.245   5.951  19.160  0.00  0.00    +0.000 C 
ATOM     31  F   UNL     1       4.574   6.106  18.898  0.00  0.00    +0.000 F 
ATOM     32  F   UNL     1       3.181   5.338  20.375  0.00  0.00    +0.000 F 
ATOM     33  F   UNL     1       2.793   5.038  18.257  0.00  0.00    +0.000 F 
ENDBRANCH  27  30
ENDBRANCH   6  24
TORSDOF 4
ENDMDL
MODEL 9
REMARK VINA RESULT:      -8.0      4.602      6.882
REMARK  Name = 
REMARK  5 active torsions:
REMARK  status: ('A' for Active; 'I' for Inactive)
REMARK    1  A    between atoms: C_1  and  S_2
REMARK    2  A    between atoms: S_2  and  C_5
REMARK    3  A    between atoms: C_10  and  N_11
REMARK    4  A    between atoms: N_16  and  C_17
REMARK    5  A    between atoms: C_20  and  C_21
REMARK                            x       y       z     vdW  Elec       q    Type
REMARK                         _______ _______ _______ _____ _____    ______ ____
ROOT
ATOM      1  N   UNL     1      -2.507  11.950  19.586  0.00  0.00    +0.000 N 
ATOM      2  C   UNL     1      -1.584  11.254  20.312  0.00  0.00    +0.000 A 
ATOM      3  N   UNL     1      -0.721  10.357  19.871  0.00  0.00    +0.000 NA
ATOM      4  C   UNL     1       0.085   9.891  20.905  0.00  0.00    +0.000 A 
ATOM      5  C   UNL     1       1.131   8.939  20.876  0.00  0.00    +0.000 A 
ATOM      6  N   UNL     1       1.522   8.249  19.709  0.00  0.00    +0.000 N 
ATOM      7  N   UNL     1       1.798   8.701  22.040  0.00  0.00    +0.000 NA
ATOM      8  C   UNL     1       1.420   9.330  23.161  0.00  0.00    +0.000 A 
ATOM      9  N   UNL     1       0.415  10.196  23.308  0.00  0.00    +0.000 NA
ATOM     10  C   UNL     1      -0.205  10.441  22.142  0.00  0.00    +0.000 A 
ATOM     11  S   UNL     1      -1.504  11.532  22.020  0.00  0.00    +0.000 S 
ATOM     12  H   UNL     1      -3.170  12.500  20.144  0.00  0.00    +0.000 HD
ATOM     13  H   UNL     1       0.915   8.467  18.922  0.00  0.00    +0.000 HD
ENDROOT
BRANCH   1  19
ATOM     14  C   UNL     1      -4.323  11.735  17.905  0.00  0.00    +0.000 A 
ATOM     15  C   UNL     1      -4.752  11.349  16.619  0.00  0.00    +0.000 A 
ATOM     16  C   UNL     1      -3.827  10.946  15.661  0.00  0.00    +0.000 A 
ATOM     17  C   UNL     1      -2.479  10.959  15.972  0.00  0.00    +0.000 A 
ATOM     18  C   UNL     1      -2.061  11.340  17.249  0.00  0.00    +0.000 A 
ATOM     19  C   UNL     1      -2.963  11.675  18.274  0.00  0.00    +0.000 A 
BRANCH  14  21
ATOM     20  C   UNL     1      -6.959  11.119  18.654  0.00  0.00    +0.000 C 
ATOM     21  S   UNL     1      -5.614  12.216  19.037  0.00  0.00    +0.000 S 
ATOM     22  O   UNL     1      -6.025  13.568  18.685  0.00  0.00    +0.000 OA
ATOM     23  O   UNL     1      -5.146  11.915  20.374  0.00  0.00    +0.000 OA
ENDBRANCH  14  21
ENDBRANCH   1  19
BRANCH   6  24
ATOM     24  C   UNL     1       2.033   6.932  19.665  0.00  0.00    +0.000 A 
ATOM     25  C   UNL     1       1.608   5.944  20.564  0.00  0.00    +0.000 A 
ATOM     26  C   UNL     1       2.092   4.635  20.492  0.00  0.00    +0.000 A 
ATOM     27  C   UNL     1       3.020   4.273  19.510  0.00  0.00    +0.000 A 
ATOM     28  C   UNL     1       3.463   5.259  18.615  0.00  0.00    +0.000 A 
ATOM     29  C   UNL     1       2.964   6.570  18.684  0.00  0.00    +0.000 A 
BRANCH  27  30
ATOM     30  C   UNL     1       3.514   2.852  19.401  0.00  0.00    +0.000 C 
ATOM     31  F   UNL     1       4.046   2.551  18.183  0.00  0.00    +0.000 F 
ATOM     32  F   UNL     1       4.492   2.573  20.308  0.00  0.00    +0.000 F 
ATOM     33  F   UNL     1       2.533   1.932  19.615  0.00  0.00    +0.000 F 
ENDBRANCH  27  30
ENDBRANCH   6  24
TORSDOF 4
ENDMDL
