MODEL 1
REMARK VINA RESULT:      -9.5      0.000      0.000
REMARK  Name = 
REMARK  8 active torsions:
REMARK  status: ('A' for Active; 'I' for Inactive)
REMARK    1  A    between atoms: C_1  and  C_2
REMARK    2  A    between atoms: C_2  and  O_3
REMARK    3  A    between atoms: O_3  and  C_4
REMARK    4  A    between atoms: C_8  and  O_9
REMARK    5  A    between atoms: N_13  and  C_14
REMARK    6  A    between atoms: C_14  and  C_15
REMARK    7  A    between atoms: C_18  and  C_19
REMARK    8  A    between atoms: C_24  and  C_25
REMARK                            x       y       z     vdW  Elec       q    Type
REMARK                         _______ _______ _______ _____ _____    ______ ____
ROOT
ATOM      1  C   UNL     1       2.284   8.001  18.185  0.00  0.00    +0.000 A 
ATOM      2  C   UNL     1       2.046   7.567  19.492  0.00  0.00    +0.000 A 
ATOM      3  C   UNL     1       1.329   8.371  20.390  0.00  0.00    +0.000 A 
ATOM      4  C   UNL     1       0.850   9.646  20.029  0.00  0.00    +0.000 A 
ATOM      5  C   UNL     1       1.254  10.128  18.775  0.00  0.00    +0.000 A 
ATOM      6  C   UNL     1       1.914   9.309  17.852  0.00  0.00    +0.000 A 
ENDROOT
BRANCH   4   7
ATOM      7  C   UNL     1      -0.082  10.407  20.917  0.00  0.00    +0.000 A 
ATOM      8  C   UNL     1      -0.017  10.199  22.317  0.00  0.00    +0.000 A 
ATOM      9  C   UNL     1      -0.871  10.852  23.212  0.00  0.00    +0.000 A 
ATOM     10  C   UNL     1      -1.801  11.767  22.743  0.00  0.00    +0.000 A 
ATOM     11  C   UNL     1      -1.894  12.007  21.376  0.00  0.00    +0.000 A 
ATOM     12  C   UNL     1      -1.071  11.321  20.454  0.00  0.00    +0.000 A 
BRANCH  12  13
ATOM     13  C   UNL     1      -1.321  11.606  19.044  0.00  0.00    +0.000 A 
ATOM     14  N   UNL     1      -2.108  10.792  18.258  0.00  0.00    +0.000 NA
ATOM     15  N   UNL     1      -2.202  11.380  17.073  0.00  0.00    +0.000 NA
ATOM     16  N   UNL     1      -1.479  12.500  17.196  0.00  0.00    +0.000 N 
ATOM     17  N   UNL     1      -0.836  12.657  18.360  0.00  0.00    +0.000 NA
ATOM     18  H   UNL     1      -1.439  13.196  16.457  0.00  0.00    +0.000 HD
ENDBRANCH  12  13
ENDBRANCH   4   7
BRANCH   1  19
ATOM     19  C   UNL     1       2.852   7.077  17.126  0.00  0.00    +0.000 C 
BRANCH  19  28
ATOM     20  C   UNL     1       7.171   7.041  17.773  0.00  0.00    +0.000 A 
ATOM     21  C   UNL     1       7.784   5.903  18.276  0.00  0.00    +0.000 A 
ATOM     22  C   UNL     1       7.009   4.803  18.653  0.00  0.00    +0.000 A 
ATOM     23  C   UNL     1       5.607   4.819  18.521  0.00  0.00    +0.000 A 
ATOM     24  C   UNL     1       4.774   3.680  18.919  0.00  0.00    +0.000 A 
ATOM     25  C   UNL     1       3.467   3.674  18.646  0.00  0.00    +0.000 A 
ATOM     26  C   UNL     1       2.808   4.791  17.951  0.00  0.00    +0.000 A 
ATOM     27  O   UNL     1       1.624   4.653  17.641  0.00  0.00    +0.000 OA
ATOM     28  N   UNL     1       3.566   5.932  17.710  0.00  0.00    +0.000 N 
ATOM     29  C   UNL     1       4.981   5.962  17.963  0.00  0.00    +0.000 A 
ATOM     30  C   UNL     1       5.779   7.067  17.631  0.00  0.00    +0.000 A 
BRANCH  24  31
ATOM     31  O   UNL     1       5.309   2.599  19.598  0.00  0.00    +0.000 OA
ATOM     32  H   UNL     1       5.709   2.890  20.432  0.00  0.00    +0.000 HD
ENDBRANCH  24  31
BRANCH  20  33
ATOM     33  O   UNL     1       7.811   8.184  17.372  0.00  0.00    +0.000 OA
BRANCH  33  35
ATOM     34  C   UNL     1       8.639  10.343  17.969  0.00  0.00    +0.000 C 
ATOM     35  C   UNL     1       8.567   8.879  18.364  0.00  0.00    +0.000 C 
ENDBRANCH  33  35
ENDBRANCH  20  33
ENDBRANCH  19  28
ENDBRANCH   1  19
TORSDOF 7
ENDMDL
MODEL 2
REMARK VINA RESULT:      -9.4      3.509      8.922
REMARK  Name = 
REMARK  8 active torsions:
REMARK  status: ('A' for Active; 'I' for Inactive)
REMARK    1  A    between atoms: C_1  and  C_2
REMARK    2  A    between atoms: C_2  and  O_3
REMARK    3  A    between atoms: O_3  and  C_4
REMARK    4  A    between atoms: C_8  and  O_9
REMARK    5  A    between atoms: N_13  and  C_14
REMARK    6  A    between atoms: C_14  and  C_15
REMARK    7  A    between atoms: C_18  and  C_19
REMARK    8  A    between atoms: C_24  and  C_25
REMARK                            x       y       z     vdW  Elec       q    Type
REMARK                         _______ _______ _______ _____ _____    ______ ____
ROOT
ATOM      1  C   UNL     1       1.891   9.189  18.607  0.00  0.00    +0.000 A 
ATOM      2  C   UNL     1       2.514   8.256  17.776  0.00  0.00    +0.000 A 
ATOM      3  C   UNL     1       2.681   6.927  18.195  0.00  0.00    +0.000 A 
ATOM      4  C   UNL     1       2.263   6.490  19.467  0.00  0.00    +0.000 A 
ATOM      5  C   UNL     1       1.803   7.484  20.345  0.00  0.00    +0.000 A 
ATOM      6  C   UNL     1       1.576   8.795  19.913  0.00  0.00    +0.000 A 
ENDROOT
BRANCH   4   7
ATOM      7  C   UNL     1       2.259   5.039  19.828  0.00  0.00    +0.000 A 
ATOM      8  C   UNL     1       1.121   4.497  20.476  0.00  0.00    +0.000 A 
ATOM      9  C   UNL     1       1.050   3.156  20.869  0.00  0.00    +0.000 A 
ATOM     10  C   UNL     1       2.103   2.295  20.596  0.00  0.00    +0.000 A 
ATOM     11  C   UNL     1       3.235   2.784  19.954  0.00  0.00    +0.000 A 
ATOM     12  C   UNL     1       3.344   4.145  19.593  0.00  0.00    +0.000 A 
BRANCH  12  13
ATOM     13  C   UNL     1       4.615   4.546  18.996  0.00  0.00    +0.000 A 
ATOM     14  N   UNL     1       5.602   5.176  19.724  0.00  0.00    +0.000 NA
ATOM     15  N   UNL     1       6.644   5.314  18.916  0.00  0.00    +0.000 NA
ATOM     16  N   UNL     1       6.244   4.774  17.758  0.00  0.00    +0.000 N 
ATOM     17  N   UNL     1       4.971   4.360  17.713  0.00  0.00    +0.000 NA
ATOM     18  H   UNL     1       6.876   4.666  16.969  0.00  0.00    +0.000 HD
ENDBRANCH  12  13
ENDBRANCH   4   7
BRANCH   1  19
ATOM     19  C   UNL     1       1.492  10.564  18.110  0.00  0.00    +0.000 C 
BRANCH  19  28
ATOM     20  C   UNL     1      -2.680  10.186  16.877  0.00  0.00    +0.000 A 
ATOM     21  C   UNL     1      -3.678  10.797  17.623  0.00  0.00    +0.000 A 
ATOM     22  C   UNL     1      -3.355  11.459  18.810  0.00  0.00    +0.000 A 
ATOM     23  C   UNL     1      -2.024  11.532  19.265  0.00  0.00    +0.000 A 
ATOM     24  C   UNL     1      -1.664  12.213  20.512  0.00  0.00    +0.000 A 
ATOM     25  C   UNL     1      -0.380  12.387  20.837  0.00  0.00    +0.000 A 
ATOM     26  C   UNL     1       0.716  11.908  19.980  0.00  0.00    +0.000 A 
ATOM     27  O   UNL     1       1.866  12.210  20.301  0.00  0.00    +0.000 OA
ATOM     28  N   UNL     1       0.374  11.131  18.878  0.00  0.00    +0.000 N 
ATOM     29  C   UNL     1      -0.996  10.950  18.482  0.00  0.00    +0.000 A 
ATOM     30  C   UNL     1      -1.354  10.256  17.316  0.00  0.00    +0.000 A 
BRANCH  24  31
ATOM     31  O   UNL     1      -2.633  12.674  21.387  0.00  0.00    +0.000 OA
ATOM     32  H   UNL     1      -3.036  11.932  21.863  0.00  0.00    +0.000 HD
ENDBRANCH  24  31
BRANCH  20  33
ATOM     33  O   UNL     1      -2.863   9.504  15.703  0.00  0.00    +0.000 OA
BRANCH  33  35
ATOM     34  C   UNL     1      -2.897   9.622  13.319  0.00  0.00    +0.000 C 
ATOM     35  C   UNL     1      -3.404  10.242  14.608  0.00  0.00    +0.000 C 
ENDBRANCH  33  35
ENDBRANCH  20  33
ENDBRANCH  19  28
ENDBRANCH   1  19
TORSDOF 7
ENDMDL
MODEL 3
REMARK VINA RESULT:      -9.2      1.993      2.838
REMARK  Name = 
REMARK  8 active torsions:
REMARK  status: ('A' for Active; 'I' for Inactive)
REMARK    1  A    between atoms: C_1  and  C_2
REMARK    2  A    between atoms: C_2  and  O_3
REMARK    3  A    between atoms: O_3  and  C_4
REMARK    4  A    between atoms: C_8  and  O_9
REMARK    5  A    between atoms: N_13  and  C_14
REMARK    6  A    between atoms: C_14  and  C_15
REMARK    7  A    between atoms: C_18  and  C_19
REMARK    8  A    between atoms: C_24  and  C_25
REMARK                            x       y       z     vdW  Elec       q    Type
REMARK                         _______ _______ _______ _____ _____    ______ ____
ROOT
ATOM      1  C   UNL     1       2.116   7.488  19.915  0.00  0.00    +0.000 A 
ATOM      2  C   UNL     1       2.266   8.026  18.635  0.00  0.00    +0.000 A 
ATOM      3  C   UNL     1       1.738   9.288  18.325  0.00  0.00    +0.000 A 
ATOM      4  C   UNL     1       1.014  10.044  19.268  0.00  0.00    +0.000 A 
ATOM      5  C   UNL     1       0.727   9.406  20.485  0.00  0.00    +0.000 A 
ATOM      6  C   UNL     1       1.303   8.177  20.823  0.00  0.00    +0.000 A 
ENDROOT
BRANCH   4   7
ATOM      7  C   UNL     1       0.631  11.464  18.998  0.00  0.00    +0.000 A 
ATOM      8  C   UNL     1       1.520  12.498  19.383  0.00  0.00    +0.000 A 
ATOM      9  C   UNL     1       1.224  13.852  19.189  0.00  0.00    +0.000 A 
ATOM     10  C   UNL     1       0.040  14.222  18.569  0.00  0.00    +0.000 A 
ATOM     11  C   UNL     1      -0.858  13.238  18.168  0.00  0.00    +0.000 A 
ATOM     12  C   UNL     1      -0.597  11.869  18.399  0.00  0.00    +0.000 A 
BRANCH  12  13
ATOM     13  C   UNL     1      -1.653  10.943  18.001  0.00  0.00    +0.000 A 
ATOM     14  N   UNL     1      -2.934  11.031  18.502  0.00  0.00    +0.000 NA
ATOM     15  N   UNL     1      -3.655  10.113  17.873  0.00  0.00    +0.000 NA
ATOM     16  N   UNL     1      -2.791   9.523  17.039  0.00  0.00    +0.000 N 
ATOM     17  N   UNL     1      -1.518   9.929  17.129  0.00  0.00    +0.000 NA
ATOM     18  H   UNL     1      -3.090   8.825  16.363  0.00  0.00    +0.000 HD
ENDBRANCH  12  13
ENDBRANCH   4   7
BRANCH   1  19
ATOM     19  C   UNL     1       2.859   6.241  20.352  0.00  0.00    +0.000 C 
BRANCH  19  28
ATOM     20  C   UNL     1       5.446   5.781  16.865  0.00  0.00    +0.000 A 
ATOM     21  C   UNL     1       5.216   4.749  15.966  0.00  0.00    +0.000 A 
ATOM     22  C   UNL     1       4.212   3.812  16.223  0.00  0.00    +0.000 A 
ATOM     23  C   UNL     1       3.412   3.899  17.380  0.00  0.00    +0.000 A 
ATOM     24  C   UNL     1       2.360   2.921  17.673  0.00  0.00    +0.000 A 
ATOM     25  C   UNL     1       1.528   3.116  18.699  0.00  0.00    +0.000 A 
ATOM     26  C   UNL     1       1.628   4.296  19.574  0.00  0.00    +0.000 A 
ATOM     27  O   UNL     1       0.751   4.451  20.425  0.00  0.00    +0.000 OA
ATOM     28  N   UNL     1       2.716   5.141  19.388  0.00  0.00    +0.000 N 
ATOM     29  C   UNL     1       3.612   4.979  18.276  0.00  0.00    +0.000 A 
ATOM     30  C   UNL     1       4.654   5.881  18.014  0.00  0.00    +0.000 A 
BRANCH  24  31
ATOM     31  O   UNL     1       2.212   1.772  16.915  0.00  0.00    +0.000 OA
ATOM     32  H   UNL     1       3.043   1.558  16.464  0.00  0.00    +0.000 HD
ENDBRANCH  24  31
BRANCH  20  33
ATOM     33  O   UNL     1       6.398   6.758  16.735  0.00  0.00    +0.000 OA
BRANCH  33  35
ATOM     34  C   UNL     1       7.955   8.254  17.753  0.00  0.00    +0.000 C 
ATOM     35  C   UNL     1       7.367   6.855  17.778  0.00  0.00    +0.000 C 
ENDBRANCH  33  35
ENDBRANCH  20  33
ENDBRANCH  19  28
ENDBRANCH   1  19
TORSDOF 7
ENDMDL
MODEL 4
REMARK VINA RESULT:      -9.1      2.062      3.140
REMARK  Name = 
REMARK  8 active torsions:
REMARK  status: ('A' for Active; 'I' for Inactive)
REMARK    1  A    between atoms: C_1  and  C_2
REMARK    2  A    between atoms: C_2  and  O_3
REMARK    3  A    between atoms: O_3  and  C_4
REMARK    4  A    between atoms: C_8  and  O_9
REMARK    5  A    between atoms: N_13  and  C_14
REMARK    6  A    between atoms: C_14  and  C_15
REMARK    7  A    between atoms: C_18  and  C_19
REMARK    8  A    between atoms: C_24  and  C_25
REMARK                            x       y       z     vdW  Elec       q    Type
REMARK                         _______ _______ _______ _____ _____    ______ ____
ROOT
ATOM      1  C   UNL     1       2.149   7.652  19.895  0.00  0.00    +0.000 A 
ATOM      2  C   UNL     1       1.255   8.168  20.835  0.00  0.00    +0.000 A 
ATOM      3  C   UNL     1       0.249   9.065  20.444  0.00  0.00    +0.000 A 
ATOM      4  C   UNL     1       0.118   9.502  19.112  0.00  0.00    +0.000 A 
ATOM      5  C   UNL     1       1.133   9.107  18.227  0.00  0.00    +0.000 A 
ATOM      6  C   UNL     1       2.101   8.165  18.594  0.00  0.00    +0.000 A 
ENDROOT
BRANCH   4   7
ATOM      7  C   UNL     1      -1.071  10.291  18.666  0.00  0.00    +0.000 A 
ATOM      8  C   UNL     1      -1.718   9.933  17.457  0.00  0.00    +0.000 A 
ATOM      9  C   UNL     1      -2.819  10.637  16.959  0.00  0.00    +0.000 A 
ATOM     10  C   UNL     1      -3.340  11.707  17.671  0.00  0.00    +0.000 A 
ATOM     11  C   UNL     1      -2.740  12.088  18.867  0.00  0.00    +0.000 A 
ATOM     12  C   UNL     1      -1.599  11.418  19.361  0.00  0.00    +0.000 A 
BRANCH  12  13
ATOM     13  C   UNL     1      -1.020  11.965  20.585  0.00  0.00    +0.000 A 
ATOM     14  N   UNL     1       0.155  12.685  20.584  0.00  0.00    +0.000 NA
ATOM     15  N   UNL     1       0.346  13.107  21.826  0.00  0.00    +0.000 NA
ATOM     16  N   UNL     1      -0.702  12.628  22.508  0.00  0.00    +0.000 N 
ATOM     17  N   UNL     1      -1.539  11.842  21.819  0.00  0.00    +0.000 NA
ATOM     18  H   UNL     1      -0.863  12.868  23.482  0.00  0.00    +0.000 HD
ENDBRANCH  12  13
ENDBRANCH   4   7
BRANCH   1  19
ATOM     19  C   UNL     1       3.099   6.519  20.230  0.00  0.00    +0.000 C 
BRANCH  19  28
ATOM     20  C   UNL     1       5.612   5.712  16.752  0.00  0.00    +0.000 A 
ATOM     21  C   UNL     1       5.336   4.622  15.939  0.00  0.00    +0.000 A 
ATOM     22  C   UNL     1       4.308   3.740  16.281  0.00  0.00    +0.000 A 
ATOM     23  C   UNL     1       3.531   3.940  17.439  0.00  0.00    +0.000 A 
ATOM     24  C   UNL     1       2.454   3.021  17.822  0.00  0.00    +0.000 A 
ATOM     25  C   UNL     1       1.645   3.321  18.842  0.00  0.00    +0.000 A 
ATOM     26  C   UNL     1       1.796   4.560  19.622  0.00  0.00    +0.000 A 
ATOM     27  O   UNL     1       0.939   4.808  20.471  0.00  0.00    +0.000 OA
ATOM     28  N   UNL     1       2.907   5.353  19.356  0.00  0.00    +0.000 N 
ATOM     29  C   UNL     1       3.779   5.078  18.247  0.00  0.00    +0.000 A 
ATOM     30  C   UNL     1       4.843   5.924  17.901  0.00  0.00    +0.000 A 
BRANCH  24  31
ATOM     31  O   UNL     1       2.258   1.823  17.157  0.00  0.00    +0.000 OA
ATOM     32  H   UNL     1       1.883   1.985  16.277  0.00  0.00    +0.000 HD
ENDBRANCH  24  31
BRANCH  20  33
ATOM     33  O   UNL     1       6.591   6.645  16.534  0.00  0.00    +0.000 OA
BRANCH  33  35
ATOM     34  C   UNL     1       7.787   8.399  17.627  0.00  0.00    +0.000 C 
ATOM     35  C   UNL     1       7.479   6.912  17.619  0.00  0.00    +0.000 C 
ENDBRANCH  33  35
ENDBRANCH  20  33
ENDBRANCH  19  28
ENDBRANCH   1  19
TORSDOF 7
ENDMDL
MODEL 5
REMARK VINA RESULT:      -9.0      3.490      8.871
REMARK  Name = 
REMARK  8 active torsions:
REMARK  status: ('A' for Active; 'I' for Inactive)
REMARK    1  A    between atoms: C_1  and  C_2
REMARK    2  A    between atoms: C_2  and  O_3
REMARK    3  A    between atoms: O_3  and  C_4
REMARK    4  A    between atoms: C_8  and  O_9
REMARK    5  A    between atoms: N_13  and  C_14
REMARK    6  A    between atoms: C_14  and  C_15
REMARK    7  A    between atoms: C_18  and  C_19
REMARK    8  A    between atoms: C_24  and  C_25
REMARK                            x       y       z     vdW  Elec       q    Type
REMARK                         _______ _______ _______ _____ _____    ______ ____
ROOT
ATOM      1  C   UNL     1       1.612   9.285  18.972  0.00  0.00    +0.000 A 
ATOM      2  C   UNL     1       1.418   8.742  20.244  0.00  0.00    +0.000 A 
ATOM      3  C   UNL     1       1.719   7.395  20.497  0.00  0.00    +0.000 A 
ATOM      4  C   UNL     1       2.192   6.535  19.486  0.00  0.00    +0.000 A 
ATOM      5  C   UNL     1       2.209   7.059  18.184  0.00  0.00    +0.000 A 
ATOM      6  C   UNL     1       1.972   8.416  17.936  0.00  0.00    +0.000 A 
ENDROOT
BRANCH   4   7
ATOM      7  C   UNL     1       2.701   5.166  19.805  0.00  0.00    +0.000 A 
ATOM      8  C   UNL     1       2.062   4.418  20.824  0.00  0.00    +0.000 A 
ATOM      9  C   UNL     1       2.493   3.141  21.199  0.00  0.00    +0.000 A 
ATOM     10  C   UNL     1       3.561   2.547  20.542  0.00  0.00    +0.000 A 
ATOM     11  C   UNL     1       4.211   3.243  19.529  0.00  0.00    +0.000 A 
ATOM     12  C   UNL     1       3.820   4.552  19.170  0.00  0.00    +0.000 A 
BRANCH  12  13
ATOM     13  C   UNL     1       4.633   5.202  18.146  0.00  0.00    +0.000 A 
ATOM     14  N   UNL     1       4.453   4.961  16.801  0.00  0.00    +0.000 NA
ATOM     15  N   UNL     1       5.279   5.769  16.153  0.00  0.00    +0.000 NA
ATOM     16  N   UNL     1       5.911   6.447  17.119  0.00  0.00    +0.000 N 
ATOM     17  N   UNL     1       5.621   6.084  18.375  0.00  0.00    +0.000 NA
ATOM     18  H   UNL     1       6.553   7.206  16.909  0.00  0.00    +0.000 HD
ENDBRANCH  12  13
ENDBRANCH   4   7
BRANCH   1  19
ATOM     19  C   UNL     1       1.515  10.776  18.716  0.00  0.00    +0.000 C 
BRANCH  19  28
ATOM     20  C   UNL     1      -2.575  10.537  17.207  0.00  0.00    +0.000 A 
ATOM     21  C   UNL     1      -3.599  11.187  17.881  0.00  0.00    +0.000 A 
ATOM     22  C   UNL     1      -3.332  11.844  19.085  0.00  0.00    +0.000 A 
ATOM     23  C   UNL     1      -2.033  11.873  19.629  0.00  0.00    +0.000 A 
ATOM     24  C   UNL     1      -1.734  12.549  20.895  0.00  0.00    +0.000 A 
ATOM     25  C   UNL     1      -0.470  12.680  21.305  0.00  0.00    +0.000 A 
ATOM     26  C   UNL     1       0.664  12.157  20.525  0.00  0.00    +0.000 A 
ATOM     27  O   UNL     1       1.800  12.421  20.921  0.00  0.00    +0.000 OA
ATOM     28  N   UNL     1       0.370  11.387  19.405  0.00  0.00    +0.000 N 
ATOM     29  C   UNL     1      -0.976  11.251  18.918  0.00  0.00    +0.000 A 
ATOM     30  C   UNL     1      -1.279  10.564  17.734  0.00  0.00    +0.000 A 
BRANCH  24  31
ATOM     31  O   UNL     1      -2.742  13.049  21.701  0.00  0.00    +0.000 OA
ATOM     32  H   UNL     1      -2.497  12.966  22.635  0.00  0.00    +0.000 HD
ENDBRANCH  24  31
BRANCH  20  33
ATOM     33  O   UNL     1      -2.702   9.855  16.026  0.00  0.00    +0.000 OA
BRANCH  33  35
ATOM     34  C   UNL     1      -3.018   9.802  13.659  0.00  0.00    +0.000 C 
ATOM     35  C   UNL     1      -3.321  10.551  14.944  0.00  0.00    +0.000 C 
ENDBRANCH  33  35
ENDBRANCH  20  33
ENDBRANCH  19  28
ENDBRANCH   1  19
TORSDOF 7
ENDMDL
MODEL 6
REMARK VINA RESULT:      -8.9      1.169      1.567
REMARK  Name = 
REMARK  8 active torsions:
REMARK  status: ('A' for Active; 'I' for Inactive)
REMARK    1  A    between atoms: C_1  and  C_2
REMARK    2  A    between atoms: C_2  and  O_3
REMARK    3  A    between atoms: O_3  and  C_4
REMARK    4  A    between atoms: C_8  and  O_9
REMARK    5  A    between atoms: N_13  and  C_14
REMARK    6  A    between atoms: C_14  and  C_15
REMARK    7  A    between atoms: C_18  and  C_19
REMARK    8  A    between atoms: C_24  and  C_25
REMARK                            x       y       z     vdW  Elec       q    Type
REMARK                         _______ _______ _______ _____ _____    ______ ____
ROOT
ATOM      1  C   UNL     1       2.119   7.646  18.355  0.00  0.00    +0.000 A 
ATOM      2  C   UNL     1       2.202   7.414  19.730  0.00  0.00    +0.000 A 
ATOM      3  C   UNL     1       1.651   8.327  20.641  0.00  0.00    +0.000 A 
ATOM      4  C   UNL     1       1.028   9.517  20.218  0.00  0.00    +0.000 A 
ATOM      5  C   UNL     1       1.116   9.810  18.848  0.00  0.00    +0.000 A 
ATOM      6  C   UNL     1       1.606   8.876  17.928  0.00  0.00    +0.000 A 
ENDROOT
BRANCH   4   7
ATOM      7  C   UNL     1       0.270  10.381  21.174  0.00  0.00    +0.000 A 
ATOM      8  C   UNL     1      -0.418   9.770  22.252  0.00  0.00    +0.000 A 
ATOM      9  C   UNL     1      -1.171  10.505  23.173  0.00  0.00    +0.000 A 
ATOM     10  C   UNL     1      -1.236  11.887  23.072  0.00  0.00    +0.000 A 
ATOM     11  C   UNL     1      -0.570  12.528  22.034  0.00  0.00    +0.000 A 
ATOM     12  C   UNL     1       0.157  11.798  21.067  0.00  0.00    +0.000 A 
BRANCH  12  13
ATOM     13  C   UNL     1       0.744  12.582  19.985  0.00  0.00    +0.000 A 
ATOM     14  N   UNL     1       2.053  13.015  20.018  0.00  0.00    +0.000 NA
ATOM     15  N   UNL     1       2.289  13.610  18.857  0.00  0.00    +0.000 NA
ATOM     16  N   UNL     1       1.132  13.514  18.190  0.00  0.00    +0.000 N 
ATOM     17  N   UNL     1       0.111  12.967  18.863  0.00  0.00    +0.000 NA
ATOM     18  H   UNL     1       1.043  13.818  17.225  0.00  0.00    +0.000 HD
ENDBRANCH  12  13
ENDBRANCH   4   7
BRANCH   1  19
ATOM     19  C   UNL     1       2.497   6.585  17.340  0.00  0.00    +0.000 C 
BRANCH  19  28
ATOM     20  C   UNL     1       6.847   6.695  17.708  0.00  0.00    +0.000 A 
ATOM     21  C   UNL     1       7.523   5.603  18.233  0.00  0.00    +0.000 A 
ATOM     22  C   UNL     1       6.805   4.507  18.719  0.00  0.00    +0.000 A 
ATOM     23  C   UNL     1       5.397   4.480  18.677  0.00  0.00    +0.000 A 
ATOM     24  C   UNL     1       4.625   3.345  19.190  0.00  0.00    +0.000 A 
ATOM     25  C   UNL     1       3.304   3.290  19.003  0.00  0.00    +0.000 A 
ATOM     26  C   UNL     1       2.570   4.349  18.291  0.00  0.00    +0.000 A 
ATOM     27  O   UNL     1       1.374   4.164  18.066  0.00  0.00    +0.000 OA
ATOM     28  N   UNL     1       3.279   5.494  17.939  0.00  0.00    +0.000 N 
ATOM     29  C   UNL     1       4.705   5.573  18.098  0.00  0.00    +0.000 A 
ATOM     30  C   UNL     1       5.449   6.677  17.656  0.00  0.00    +0.000 A 
BRANCH  24  31
ATOM     31  O   UNL     1       5.233   2.318  19.892  0.00  0.00    +0.000 OA
ATOM     32  H   UNL     1       5.960   1.942  19.374  0.00  0.00    +0.000 HD
ENDBRANCH  24  31
BRANCH  20  33
ATOM     33  O   UNL     1       7.428   7.829  17.205  0.00  0.00    +0.000 OA
BRANCH  33  35
ATOM     34  C   UNL     1       8.161   9.999  17.879  0.00  0.00    +0.000 C 
ATOM     35  C   UNL     1       8.359   8.504  18.050  0.00  0.00    +0.000 C 
ENDBRANCH  33  35
ENDBRANCH  20  33
ENDBRANCH  19  28
ENDBRANCH   1  19
TORSDOF 7
ENDMDL
MODEL 7
REMARK VINA RESULT:      -8.8      3.393      9.025
REMARK  Name = 
REMARK  8 active torsions:
REMARK  status: ('A' for Active; 'I' for Inactive)
REMARK    1  A    between atoms: C_1  and  C_2
REMARK    2  A    between atoms: C_2  and  O_3
REMARK    3  A    between atoms: O_3  and  C_4
REMARK    4  A    between atoms: C_8  and  O_9
REMARK    5  A    between atoms: N_13  and  C_14
REMARK    6  A    between atoms: C_14  and  C_15
REMARK    7  A    between atoms: C_18  and  C_19
REMARK    8  A    between atoms: C_24  and  C_25
REMARK                            x       y       z     vdW  Elec       q    Type
REMARK                         _______ _______ _______ _____ _____    ______ ____
ROOT
ATOM      1  C   UNL     1       1.388   7.844  19.889  0.00  0.00    +0.000 A 
ATOM      2  C   UNL     1       1.866   8.417  18.709  0.00  0.00    +0.000 A 
ATOM      3  C   UNL     1       2.825   7.751  17.930  0.00  0.00    +0.000 A 
ATOM      4  C   UNL     1       3.364   6.508  18.316  0.00  0.00    +0.000 A 
ATOM      5  C   UNL     1       2.999   6.042  19.588  0.00  0.00    +0.000 A 
ATOM      6  C   UNL     1       1.997   6.667  20.339  0.00  0.00    +0.000 A 
ENDROOT
BRANCH   4   7
ATOM      7  C   UNL     1       4.227   5.714  17.389  0.00  0.00    +0.000 A 
ATOM      8  C   UNL     1       5.261   6.374  16.680  0.00  0.00    +0.000 A 
ATOM      9  C   UNL     1       6.094   5.708  15.775  0.00  0.00    +0.000 A 
ATOM     10  C   UNL     1       5.947   4.344  15.572  0.00  0.00    +0.000 A 
ATOM     11  C   UNL     1       4.950   3.654  16.253  0.00  0.00    +0.000 A 
ATOM     12  C   UNL     1       4.069   4.320  17.135  0.00  0.00    +0.000 A 
BRANCH  12  13
ATOM     13  C   UNL     1       3.019   3.498  17.727  0.00  0.00    +0.000 A 
ATOM     14  N   UNL     1       1.687   3.675  17.421  0.00  0.00    +0.000 NA
ATOM     15  N   UNL     1       1.019   2.717  18.049  0.00  0.00    +0.000 NA
ATOM     16  N   UNL     1       1.962   2.021  18.697  0.00  0.00    +0.000 N 
ATOM     17  N   UNL     1       3.208   2.502  18.610  0.00  0.00    +0.000 NA
ATOM     18  H   UNL     1       1.745   1.167  19.204  0.00  0.00    +0.000 HD
ENDBRANCH  12  13
ENDBRANCH   4   7
BRANCH   1  19
ATOM     19  C   UNL     1       0.199   8.418  20.633  0.00  0.00    +0.000 C 
BRANCH  19  28
ATOM     20  C   UNL     1      -1.953  10.477  17.440  0.00  0.00    +0.000 A 
ATOM     21  C   UNL     1      -1.927  11.862  17.372  0.00  0.00    +0.000 A 
ATOM     22  C   UNL     1      -1.284  12.597  18.371  0.00  0.00    +0.000 A 
ATOM     23  C   UNL     1      -0.645  11.957  19.451  0.00  0.00    +0.000 A 
ATOM     24  C   UNL     1       0.027  12.708  20.515  0.00  0.00    +0.000 A 
ATOM     25  C   UNL     1       0.745  12.067  21.441  0.00  0.00    +0.000 A 
ATOM     26  C   UNL     1       0.889  10.603  21.445  0.00  0.00    +0.000 A 
ATOM     27  O   UNL     1       1.658  10.106  22.268  0.00  0.00    +0.000 OA
ATOM     28  N   UNL     1       0.130   9.882  20.528  0.00  0.00    +0.000 N 
ATOM     29  C   UNL     1      -0.628  10.540  19.499  0.00  0.00    +0.000 A 
ATOM     30  C   UNL     1      -1.316   9.829  18.504  0.00  0.00    +0.000 A 
BRANCH  24  31
ATOM     31  O   UNL     1      -0.077  14.086  20.600  0.00  0.00    +0.000 OA
ATOM     32  H   UNL     1      -0.099  14.477  19.713  0.00  0.00    +0.000 HD
ENDBRANCH  24  31
BRANCH  20  33
ATOM     33  O   UNL     1      -2.550   9.643  16.532  0.00  0.00    +0.000 OA
BRANCH  33  35
ATOM     34  C   UNL     1      -3.001  10.029  14.219  0.00  0.00    +0.000 C 
ATOM     35  C   UNL     1      -3.495  10.233  15.640  0.00  0.00    +0.000 C 
ENDBRANCH  33  35
ENDBRANCH  20  33
ENDBRANCH  19  28
ENDBRANCH   1  19
TORSDOF 7
ENDMDL
MODEL 8
REMARK VINA RESULT:      -8.8      5.202     10.338
REMARK  Name = 
REMARK  8 active torsions:
REMARK  status: ('A' for Active; 'I' for Inactive)
REMARK    1  A    between atoms: C_1  and  C_2
REMARK    2  A    between atoms: C_2  and  O_3
REMARK    3  A    between atoms: O_3  and  C_4
REMARK    4  A    between atoms: C_8  and  O_9
REMARK    5  A    between atoms: N_13  and  C_14
REMARK    6  A    between atoms: C_14  and  C_15
REMARK    7  A    between atoms: C_18  and  C_19
REMARK    8  A    between atoms: C_24  and  C_25
REMARK                            x       y       z     vdW  Elec       q    Type
REMARK                         _______ _______ _______ _____ _____    ______ ____
ROOT
ATOM      1  C   UNL     1      -0.791  13.491  19.885  0.00  0.00    +0.000 A 
ATOM      2  C   UNL     1      -1.323  12.529  19.024  0.00  0.00    +0.000 A 
ATOM      3  C   UNL     1      -0.626  11.339  18.767  0.00  0.00    +0.000 A 
ATOM      4  C   UNL     1       0.638  11.080  19.332  0.00  0.00    +0.000 A 
ATOM      5  C   UNL     1       1.226  12.134  20.047  0.00  0.00    +0.000 A 
ATOM      6  C   UNL     1       0.511  13.296  20.360  0.00  0.00    +0.000 A 
ENDROOT
BRANCH   4   7
ATOM      7  C   UNL     1       1.280   9.734  19.217  0.00  0.00    +0.000 A 
ATOM      8  C   UNL     1       1.878   9.362  17.988  0.00  0.00    +0.000 A 
ATOM      9  C   UNL     1       2.475   8.112  17.793  0.00  0.00    +0.000 A 
ATOM     10  C   UNL     1       2.528   7.197  18.834  0.00  0.00    +0.000 A 
ATOM     11  C   UNL     1       1.960   7.525  20.061  0.00  0.00    +0.000 A 
ATOM     12  C   UNL     1       1.311   8.764  20.261  0.00  0.00    +0.000 A 
BRANCH  12  13
ATOM     13  C   UNL     1       0.688   8.953  21.568  0.00  0.00    +0.000 A 
ATOM     14  N   UNL     1       1.369   9.501  22.634  0.00  0.00    +0.000 NA
ATOM     15  N   UNL     1       0.498   9.615  23.627  0.00  0.00    +0.000 NA
ATOM     16  N   UNL     1      -0.647   9.136  23.124  0.00  0.00    +0.000 N 
ATOM     17  N   UNL     1      -0.577   8.631  21.886  0.00  0.00    +0.000 NA
ATOM     18  H   UNL     1      -1.519   9.176  23.645  0.00  0.00    +0.000 HD
ENDBRANCH  12  13
ENDBRANCH   4   7
BRANCH   1  19
ATOM     19  C   UNL     1      -1.605  14.677  20.363  0.00  0.00    +0.000 C 
BRANCH  19  28
ATOM     20  C   UNL     1      -5.621  12.970  20.544  0.00  0.00    +0.000 A 
ATOM     21  C   UNL     1      -6.239  12.790  21.773  0.00  0.00    +0.000 A 
ATOM     22  C   UNL     1      -5.545  13.075  22.951  0.00  0.00    +0.000 A 
ATOM     23  C   UNL     1      -4.222  13.558  22.919  0.00  0.00    +0.000 A 
ATOM     24  C   UNL     1      -3.472  13.855  24.143  0.00  0.00    +0.000 A 
ATOM     25  C   UNL     1      -2.277  14.447  24.073  0.00  0.00    +0.000 A 
ATOM     26  C   UNL     1      -1.661  14.818  22.789  0.00  0.00    +0.000 A 
ATOM     27  O   UNL     1      -0.611  15.460  22.822  0.00  0.00    +0.000 OA
ATOM     28  N   UNL     1      -2.303  14.401  21.627  0.00  0.00    +0.000 N 
ATOM     29  C   UNL     1      -3.603  13.789  21.665  0.00  0.00    +0.000 A 
ATOM     30  C   UNL     1      -4.309  13.456  20.499  0.00  0.00    +0.000 A 
BRANCH  24  31
ATOM     31  O   UNL     1      -3.967  13.518  25.392  0.00  0.00    +0.000 OA
ATOM     32  H   UNL     1      -3.808  12.579  25.573  0.00  0.00    +0.000 HD
ENDBRANCH  24  31
BRANCH  20  33
ATOM     33  O   UNL     1      -6.186  12.725  19.320  0.00  0.00    +0.000 OA
BRANCH  33  35
ATOM     34  C   UNL     1      -6.862  10.502  18.769  0.00  0.00    +0.000 C 
ATOM     35  C   UNL     1      -7.314  11.852  19.297  0.00  0.00    +0.000 C 
ENDBRANCH  33  35
ENDBRANCH  20  33
ENDBRANCH  19  28
ENDBRANCH   1  19
TORSDOF 7
ENDMDL
MODEL 9
REMARK VINA RESULT:      -8.6      3.463      8.294
REMARK  Name = 
REMARK  8 active torsions:
REMARK  status: ('A' for Active; 'I' for Inactive)
REMARK    1  A    between atoms: C_1  and  C_2
REMARK    2  A    between atoms: C_2  and  O_3
REMARK    3  A    between atoms: O_3  and  C_4
REMARK    4  A    between atoms: C_8  and  O_9
REMARK    5  A    between atoms: N_13  and  C_14
REMARK    6  A    between atoms: C_14  and  C_15
REMARK    7  A    between atoms: C_18  and  C_19
REMARK    8  A    between atoms: C_24  and  C_25
REMARK                            x       y       z     vdW  Elec       q    Type
REMARK                         _______ _______ _______ _____ _____    ______ ____
ROOT
ATOM      1  C   UNL     1       2.051   9.005  18.467  0.00  0.00    +0.000 A 
ATOM      2  C   UNL     1       2.647   8.017  17.680  0.00  0.00    +0.000 A 
ATOM      3  C   UNL     1       2.796   6.710  18.167  0.00  0.00    +0.000 A 
ATOM      4  C   UNL     1       2.385   6.349  19.465  0.00  0.00    +0.000 A 
ATOM      5  C   UNL     1       1.954   7.397  20.294  0.00  0.00    +0.000 A 
ATOM      6  C   UNL     1       1.745   8.687  19.795  0.00  0.00    +0.000 A 
ENDROOT
BRANCH   4   7
ATOM      7  C   UNL     1       2.359   4.919  19.903  0.00  0.00    +0.000 A 
ATOM      8  C   UNL     1       1.219   4.433  20.589  0.00  0.00    +0.000 A 
ATOM      9  C   UNL     1       1.129   3.117  21.054  0.00  0.00    +0.000 A 
ATOM     10  C   UNL     1       2.163   2.224  20.818  0.00  0.00    +0.000 A 
ATOM     11  C   UNL     1       3.298   2.657  20.141  0.00  0.00    +0.000 A 
ATOM     12  C   UNL     1       3.427   3.996  19.706  0.00  0.00    +0.000 A 
BRANCH  12  13
ATOM     13  C   UNL     1       4.698   4.341  19.078  0.00  0.00    +0.000 A 
ATOM     14  N   UNL     1       5.696   5.008  19.756  0.00  0.00    +0.000 NA
ATOM     15  N   UNL     1       6.734   5.080  18.935  0.00  0.00    +0.000 NA
ATOM     16  N   UNL     1       6.322   4.467  17.818  0.00  0.00    +0.000 N 
ATOM     17  N   UNL     1       5.045   4.064  17.809  0.00  0.00    +0.000 NA
ATOM     18  H   UNL     1       6.949   4.299  17.036  0.00  0.00    +0.000 HD
ENDBRANCH  12  13
ENDBRANCH   4   7
BRANCH   1  19
ATOM     19  C   UNL     1       1.670  10.358  17.901  0.00  0.00    +0.000 C 
BRANCH  19  28
ATOM     20  C   UNL     1       1.571  13.319  21.108  0.00  0.00    +0.000 A 
ATOM     21  C   UNL     1       0.354  13.716  21.644  0.00  0.00    +0.000 A 
ATOM     22  C   UNL     1      -0.838  13.231  21.100  0.00  0.00    +0.000 A 
ATOM     23  C   UNL     1      -0.833  12.331  20.017  0.00  0.00    +0.000 A 
ATOM     24  C   UNL     1      -2.071  11.817  19.425  0.00  0.00    +0.000 A 
ATOM     25  C   UNL     1      -2.026  10.856  18.498  0.00  0.00    +0.000 A 
ATOM     26  C   UNL     1      -0.756  10.281  18.029  0.00  0.00    +0.000 A 
ATOM     27  O   UNL     1      -0.813   9.323  17.257  0.00  0.00    +0.000 OA
ATOM     28  N   UNL     1       0.420  10.872  18.479  0.00  0.00    +0.000 N 
ATOM     29  C   UNL     1       0.410  11.886  19.498  0.00  0.00    +0.000 A 
ATOM     30  C   UNL     1       1.590  12.420  20.036  0.00  0.00    +0.000 A 
BRANCH  24  31
ATOM     31  O   UNL     1      -3.308  12.320  19.792  0.00  0.00    +0.000 OA
ATOM     32  H   UNL     1      -3.710  11.759  20.472  0.00  0.00    +0.000 HD
ENDBRANCH  24  31
BRANCH  20  33
ATOM     33  O   UNL     1       2.806  13.722  21.544  0.00  0.00    +0.000 OA
BRANCH  33  35
ATOM     34  C   UNL     1       3.253  15.857  20.571  0.00  0.00    +0.000 C 
ATOM     35  C   UNL     1       3.637  14.388  20.593  0.00  0.00    +0.000 C 
ENDBRANCH  33  35
ENDBRANCH  20  33
ENDBRANCH  19  28
ENDBRANCH   1  19
TORSDOF 7
ENDMDL
