MODEL 1
REMARK VINA RESULT:      -8.4      0.000      0.000
REMARK  Name = 
REMARK  4 active torsions:
REMARK  status: ('A' for Active; 'I' for Inactive)
REMARK    1  A    between atoms: O_1  and  C_2
REMARK    2  A    between atoms: C_6  and  C_7
REMARK    3  A    between atoms: C_11  and  C_12
REMARK    4  A    between atoms: C_16  and  O_17
REMARK                            x       y       z     vdW  Elec       q    Type
REMARK                         _______ _______ _______ _____ _____    ______ ____
ROOT
ATOM      1  C   UNL     1       6.292   4.364  16.143  0.00  0.00    +0.000 A 
ATOM      2  C   UNL     1       7.273   4.734  17.062  0.00  0.00    +0.000 A 
ATOM      3  N   UNL     1       7.108   4.770  18.405  0.00  0.00    +0.000 NA
ATOM      4  C   UNL     1       5.888   4.419  18.872  0.00  0.00    +0.000 A 
ATOM      5  C   UNL     1       4.803   4.043  18.080  0.00  0.00    +0.000 A 
ATOM      6  C   UNL     1       5.045   4.024  16.695  0.00  0.00    +0.000 A 
ENDROOT
BRANCH   1  11
ATOM      7  C   UNL     1       6.038   3.450  12.466  0.00  0.00    +0.000 A 
ATOM      8  C   UNL     1       7.010   4.256  11.890  0.00  0.00    +0.000 A 
ATOM      9  C   UNL     1       7.753   5.106  12.702  0.00  0.00    +0.000 A 
ATOM     10  C   UNL     1       7.525   5.133  14.082  0.00  0.00    +0.000 A 
ATOM     11  C   UNL     1       6.541   4.324  14.686  0.00  0.00    +0.000 A 
ATOM     12  C   UNL     1       5.797   3.484  13.838  0.00  0.00    +0.000 A 
BRANCH   7  13
ATOM     13  O   UNL     1       5.283   2.597  11.716  0.00  0.00    +0.000 OA
ATOM     14  H   UNL     1       5.638   1.697  11.817  0.00  0.00    +0.000 HD
ENDBRANCH   7  13
ENDBRANCH   1  11
BRANCH   5  15
ATOM     15  C   UNL     1       3.490   3.677  18.653  0.00  0.00    +0.000 A 
ATOM     16  C   UNL     1       2.328   3.627  17.859  0.00  0.00    +0.000 A 
ATOM     17  C   UNL     1       1.082   3.303  18.405  0.00  0.00    +0.000 A 
ATOM     18  C   UNL     1       0.968   3.008  19.760  0.00  0.00    +0.000 A 
ATOM     19  C   UNL     1       2.105   3.038  20.555  0.00  0.00    +0.000 A 
ATOM     20  C   UNL     1       3.347   3.368  20.018  0.00  0.00    +0.000 A 
BRANCH  19  21
ATOM     21  O   UNL     1       2.051   2.753  21.887  0.00  0.00    +0.000 OA
ATOM     22  H   UNL     1       1.226   3.118  22.249  0.00  0.00    +0.000 HD
ENDBRANCH  19  21
ENDBRANCH   5  15
TORSDOF 4
ENDMDL
MODEL 2
REMARK VINA RESULT:      -8.3      0.043      7.069
REMARK  Name = 
REMARK  4 active torsions:
REMARK  status: ('A' for Active; 'I' for Inactive)
REMARK    1  A    between atoms: O_1  and  C_2
REMARK    2  A    between atoms: C_6  and  C_7
REMARK    3  A    between atoms: C_11  and  C_12
REMARK    4  A    between atoms: C_16  and  O_17
REMARK                            x       y       z     vdW  Elec       q    Type
REMARK                         _______ _______ _______ _____ _____    ______ ____
ROOT
ATOM      1  C   UNL     1       4.799   4.060  18.084  0.00  0.00    +0.000 A 
ATOM      2  C   UNL     1       5.871   4.460  18.880  0.00  0.00    +0.000 A 
ATOM      3  N   UNL     1       7.093   4.815  18.419  0.00  0.00    +0.000 NA
ATOM      4  C   UNL     1       7.270   4.767  17.079  0.00  0.00    +0.000 A 
ATOM      5  C   UNL     1       6.301   4.372  16.156  0.00  0.00    +0.000 A 
ATOM      6  C   UNL     1       5.054   4.021  16.702  0.00  0.00    +0.000 A 
ENDROOT
BRANCH   1  11
ATOM      7  C   UNL     1       2.071   3.081  20.537  0.00  0.00    +0.000 A 
ATOM      8  C   UNL     1       0.944   3.034  19.728  0.00  0.00    +0.000 A 
ATOM      9  C   UNL     1       1.070   3.324  18.374  0.00  0.00    +0.000 A 
ATOM     10  C   UNL     1       2.322   3.648  17.841  0.00  0.00    +0.000 A 
ATOM     11  C   UNL     1       3.478   3.704  18.647  0.00  0.00    +0.000 A 
ATOM     12  C   UNL     1       3.317   3.416  20.014  0.00  0.00    +0.000 A 
BRANCH   7  13
ATOM     13  O   UNL     1       2.003   2.802  21.871  0.00  0.00    +0.000 OA
ATOM     14  H   UNL     1       1.270   2.182  22.022  0.00  0.00    +0.000 HD
ENDBRANCH   7  13
ENDBRANCH   1  11
BRANCH   5  15
ATOM     15  C   UNL     1       6.559   4.336  14.701  0.00  0.00    +0.000 A 
ATOM     16  C   UNL     1       7.528   5.165  14.104  0.00  0.00    +0.000 A 
ATOM     17  C   UNL     1       7.757   5.148  12.724  0.00  0.00    +0.000 A 
ATOM     18  C   UNL     1       7.028   4.290  11.905  0.00  0.00    +0.000 A 
ATOM     19  C   UNL     1       6.079   3.455  12.478  0.00  0.00    +0.000 A 
ATOM     20  C   UNL     1       5.842   3.474  13.850  0.00  0.00    +0.000 A 
BRANCH  19  21
ATOM     21  O   UNL     1       5.341   2.592  11.724  0.00  0.00    +0.000 OA
ATOM     22  H   UNL     1       5.273   1.747  12.198  0.00  0.00    +0.000 HD
ENDBRANCH  19  21
ENDBRANCH   5  15
TORSDOF 4
ENDMDL
MODEL 3
REMARK VINA RESULT:      -8.3      1.083      1.343
REMARK  Name = 
REMARK  4 active torsions:
REMARK  status: ('A' for Active; 'I' for Inactive)
REMARK    1  A    between atoms: O_1  and  C_2
REMARK    2  A    between atoms: C_6  and  C_7
REMARK    3  A    between atoms: C_11  and  C_12
REMARK    4  A    between atoms: C_16  and  O_17
REMARK                            x       y       z     vdW  Elec       q    Type
REMARK                         _______ _______ _______ _____ _____    ______ ____
ROOT
ATOM      1  C   UNL     1       6.295   4.483  16.195  0.00  0.00    +0.000 A 
ATOM      2  C   UNL     1       7.314   4.744  17.111  0.00  0.00    +0.000 A 
ATOM      3  N   UNL     1       7.158   4.808  18.453  0.00  0.00    +0.000 NA
ATOM      4  C   UNL     1       5.906   4.601  18.925  0.00  0.00    +0.000 A 
ATOM      5  C   UNL     1       4.785   4.346  18.137  0.00  0.00    +0.000 A 
ATOM      6  C   UNL     1       5.019   4.290  16.751  0.00  0.00    +0.000 A 
ENDROOT
BRANCH   1  11
ATOM      7  C   UNL     1       5.993   3.501  12.540  0.00  0.00    +0.000 A 
ATOM      8  C   UNL     1       6.985   4.265  11.942  0.00  0.00    +0.000 A 
ATOM      9  C   UNL     1       7.758   5.109  12.732  0.00  0.00    +0.000 A 
ATOM     10  C   UNL     1       7.539   5.172  14.112  0.00  0.00    +0.000 A 
ATOM     11  C   UNL     1       6.534   4.405  14.738  0.00  0.00    +0.000 A 
ATOM     12  C   UNL     1       5.761   3.570  13.912  0.00  0.00    +0.000 A 
BRANCH   7  13
ATOM     13  O   UNL     1       5.208   2.655  11.812  0.00  0.00    +0.000 OA
ATOM     14  H   UNL     1       4.711   2.087  12.425  0.00  0.00    +0.000 HD
ENDBRANCH   7  13
ENDBRANCH   1  11
BRANCH   5  15
ATOM     15  C   UNL     1       3.440   4.135  18.715  0.00  0.00    +0.000 A 
ATOM     16  C   UNL     1       2.953   4.943  19.761  0.00  0.00    +0.000 A 
ATOM     17  C   UNL     1       1.691   4.729  20.324  0.00  0.00    +0.000 A 
ATOM     18  C   UNL     1       0.876   3.706  19.846  0.00  0.00    +0.000 A 
ATOM     19  C   UNL     1       1.333   2.909  18.806  0.00  0.00    +0.000 A 
ATOM     20  C   UNL     1       2.593   3.113  18.247  0.00  0.00    +0.000 A 
BRANCH  19  21
ATOM     21  O   UNL     1       0.575   1.898  18.296  0.00  0.00    +0.000 OA
ATOM     22  H   UNL     1       1.165   1.252  17.873  0.00  0.00    +0.000 HD
ENDBRANCH  19  21
ENDBRANCH   5  15
TORSDOF 4
ENDMDL
MODEL 4
REMARK VINA RESULT:      -8.3      1.540      6.946
REMARK  Name = 
REMARK  4 active torsions:
REMARK  status: ('A' for Active; 'I' for Inactive)
REMARK    1  A    between atoms: O_1  and  C_2
REMARK    2  A    between atoms: C_6  and  C_7
REMARK    3  A    between atoms: C_11  and  C_12
REMARK    4  A    between atoms: C_16  and  O_17
REMARK                            x       y       z     vdW  Elec       q    Type
REMARK                         _______ _______ _______ _____ _____    ______ ____
ROOT
ATOM      1  C   UNL     1       4.590   4.214  18.373  0.00  0.00    +0.000 A 
ATOM      2  C   UNL     1       5.693   4.501  19.177  0.00  0.00    +0.000 A 
ATOM      3  N   UNL     1       6.944   4.749  18.723  0.00  0.00    +0.000 NA
ATOM      4  C   UNL     1       7.117   4.710  17.382  0.00  0.00    +0.000 A 
ATOM      5  C   UNL     1       6.118   4.422  16.452  0.00  0.00    +0.000 A 
ATOM      6  C   UNL     1       4.843   4.177  16.991  0.00  0.00    +0.000 A 
ENDROOT
BRANCH   1  11
ATOM      7  C   UNL     1       1.111   2.787  18.900  0.00  0.00    +0.000 A 
ATOM      8  C   UNL     1       0.659   3.499  20.002  0.00  0.00    +0.000 A 
ATOM      9  C   UNL     1       1.492   4.451  20.581  0.00  0.00    +0.000 A 
ATOM     10  C   UNL     1       2.763   4.688  20.046  0.00  0.00    +0.000 A 
ATOM     11  C   UNL     1       3.241   3.972  18.929  0.00  0.00    +0.000 A 
ATOM     12  C   UNL     1       2.381   3.009  18.372  0.00  0.00    +0.000 A 
BRANCH   7  13
ATOM     13  O   UNL     1       0.334   1.845  18.293  0.00  0.00    +0.000 OA
ATOM     14  H   UNL     1       0.182   2.114  17.371  0.00  0.00    +0.000 HD
ENDBRANCH   7  13
ENDBRANCH   1  11
BRANCH   5  15
ATOM     15  C   UNL     1       6.375   4.388  14.996  0.00  0.00    +0.000 A 
ATOM     16  C   UNL     1       5.656   3.529  14.141  0.00  0.00    +0.000 A 
ATOM     17  C   UNL     1       5.914   3.480  12.768  0.00  0.00    +0.000 A 
ATOM     18  C   UNL     1       6.892   4.298  12.210  0.00  0.00    +0.000 A 
ATOM     19  C   UNL     1       7.601   5.160  13.035  0.00  0.00    +0.000 A 
ATOM     20  C   UNL     1       7.353   5.208  14.405  0.00  0.00    +0.000 A 
BRANCH  19  21
ATOM     21  O   UNL     1       8.566   5.987  12.541  0.00  0.00    +0.000 OA
ATOM     22  H   UNL     1       9.209   5.451  12.046  0.00  0.00    +0.000 HD
ENDBRANCH  19  21
ENDBRANCH   5  15
TORSDOF 4
ENDMDL
MODEL 5
REMARK VINA RESULT:      -8.3      1.133      1.559
REMARK  Name = 
REMARK  4 active torsions:
REMARK  status: ('A' for Active; 'I' for Inactive)
REMARK    1  A    between atoms: O_1  and  C_2
REMARK    2  A    between atoms: C_6  and  C_7
REMARK    3  A    between atoms: C_11  and  C_12
REMARK    4  A    between atoms: C_16  and  O_17
REMARK                            x       y       z     vdW  Elec       q    Type
REMARK                         _______ _______ _______ _____ _____    ______ ____
ROOT
ATOM      1  C   UNL     1       6.108   4.413  16.429  0.00  0.00    +0.000 A 
ATOM      2  C   UNL     1       7.051   4.820  17.372  0.00  0.00    +0.000 A 
ATOM      3  N   UNL     1       6.851   4.849  18.710  0.00  0.00    +0.000 NA
ATOM      4  C   UNL     1       5.634   4.450  19.147  0.00  0.00    +0.000 A 
ATOM      5  C   UNL     1       4.586   4.034  18.328  0.00  0.00    +0.000 A 
ATOM      6  C   UNL     1       4.862   4.025  16.949  0.00  0.00    +0.000 A 
ENDROOT
BRANCH   1  11
ATOM      7  C   UNL     1       7.636   5.186  13.040  0.00  0.00    +0.000 A 
ATOM      8  C   UNL     1       6.951   4.321  12.198  0.00  0.00    +0.000 A 
ATOM      9  C   UNL     1       5.985   3.478  12.736  0.00  0.00    +0.000 A 
ATOM     10  C   UNL     1       5.707   3.515  14.106  0.00  0.00    +0.000 A 
ATOM     11  C   UNL     1       6.394   4.385  14.978  0.00  0.00    +0.000 A 
ATOM     12  C   UNL     1       7.373   5.218  14.407  0.00  0.00    +0.000 A 
BRANCH   7  13
ATOM     13  O   UNL     1       8.591   6.037  12.564  0.00  0.00    +0.000 OA
ATOM     14  H   UNL     1       8.428   6.923  12.928  0.00  0.00    +0.000 HD
ENDBRANCH   7  13
ENDBRANCH   1  11
BRANCH   5  15
ATOM     15  C   UNL     1       3.274   3.616  18.869  0.00  0.00    +0.000 A 
ATOM     16  C   UNL     1       2.152   3.450  18.033  0.00  0.00    +0.000 A 
ATOM     17  C   UNL     1       0.906   3.078  18.547  0.00  0.00    +0.000 A 
ATOM     18  C   UNL     1       0.751   2.850  19.911  0.00  0.00    +0.000 A 
ATOM     19  C   UNL     1       1.849   2.995  20.748  0.00  0.00    +0.000 A 
ATOM     20  C   UNL     1       3.091   3.373  20.242  0.00  0.00    +0.000 A 
BRANCH  19  21
ATOM     21  O   UNL     1       1.756   2.779  22.091  0.00  0.00    +0.000 OA
ATOM     22  H   UNL     1       1.409   3.584  22.510  0.00  0.00    +0.000 HD
ENDBRANCH  19  21
ENDBRANCH   5  15
TORSDOF 4
ENDMDL
MODEL 6
REMARK VINA RESULT:      -8.3      1.546      2.059
REMARK  Name = 
REMARK  4 active torsions:
REMARK  status: ('A' for Active; 'I' for Inactive)
REMARK    1  A    between atoms: O_1  and  C_2
REMARK    2  A    between atoms: C_6  and  C_7
REMARK    3  A    between atoms: C_11  and  C_12
REMARK    4  A    between atoms: C_16  and  O_17
REMARK                            x       y       z     vdW  Elec       q    Type
REMARK                         _______ _______ _______ _____ _____    ______ ____
ROOT
ATOM      1  C   UNL     1       6.126   4.474  16.461  0.00  0.00    +0.000 A 
ATOM      2  C   UNL     1       7.124   4.750  17.395  0.00  0.00    +0.000 A 
ATOM      3  N   UNL     1       6.944   4.797  18.736  0.00  0.00    +0.000 NA
ATOM      4  C   UNL     1       5.690   4.558  19.185  0.00  0.00    +0.000 A 
ATOM      5  C   UNL     1       4.587   4.285  18.375  0.00  0.00    +0.000 A 
ATOM      6  C   UNL     1       4.846   4.247  16.994  0.00  0.00    +0.000 A 
ENDROOT
BRANCH   1  11
ATOM      7  C   UNL     1       7.615   5.168  13.037  0.00  0.00    +0.000 A 
ATOM      8  C   UNL     1       6.908   4.297  12.221  0.00  0.00    +0.000 A 
ATOM      9  C   UNL     1       5.939   3.475  12.788  0.00  0.00    +0.000 A 
ATOM     10  C   UNL     1       5.681   3.540  14.161  0.00  0.00    +0.000 A 
ATOM     11  C   UNL     1       6.391   4.416  15.007  0.00  0.00    +0.000 A 
ATOM     12  C   UNL     1       7.372   5.227  14.408  0.00  0.00    +0.000 A 
BRANCH   7  13
ATOM     13  O   UNL     1       8.573   5.998  12.533  0.00  0.00    +0.000 OA
ATOM     14  H   UNL     1       8.135   6.752  12.102  0.00  0.00    +0.000 HD
ENDBRANCH   7  13
ENDBRANCH   1  11
BRANCH   5  15
ATOM     15  C   UNL     1       3.238   4.038  18.928  0.00  0.00    +0.000 A 
ATOM     16  C   UNL     1       2.751   4.764  20.033  0.00  0.00    +0.000 A 
ATOM     17  C   UNL     1       1.484   4.515  20.571  0.00  0.00    +0.000 A 
ATOM     18  C   UNL     1       0.666   3.539  20.010  0.00  0.00    +0.000 A 
ATOM     19  C   UNL     1       1.124   2.823  18.913  0.00  0.00    +0.000 A 
ATOM     20  C   UNL     1       2.387   3.062  18.378  0.00  0.00    +0.000 A 
BRANCH  19  21
ATOM     21  O   UNL     1       0.362   1.860  18.321  0.00  0.00    +0.000 OA
ATOM     22  H   UNL     1       0.173   1.168  18.978  0.00  0.00    +0.000 HD
ENDBRANCH  19  21
ENDBRANCH   5  15
TORSDOF 4
ENDMDL
MODEL 7
REMARK VINA RESULT:      -8.2      1.082      6.848
REMARK  Name = 
REMARK  4 active torsions:
REMARK  status: ('A' for Active; 'I' for Inactive)
REMARK    1  A    between atoms: O_1  and  C_2
REMARK    2  A    between atoms: C_6  and  C_7
REMARK    3  A    between atoms: C_11  and  C_12
REMARK    4  A    between atoms: C_16  and  O_17
REMARK                            x       y       z     vdW  Elec       q    Type
REMARK                         _______ _______ _______ _____ _____    ______ ____
ROOT
ATOM      1  C   UNL     1       4.771   4.287  18.142  0.00  0.00    +0.000 A 
ATOM      2  C   UNL     1       5.893   4.559  18.924  0.00  0.00    +0.000 A 
ATOM      3  N   UNL     1       7.143   4.768  18.448  0.00  0.00    +0.000 NA
ATOM      4  C   UNL     1       7.296   4.701  17.105  0.00  0.00    +0.000 A 
ATOM      5  C   UNL     1       6.276   4.423  16.195  0.00  0.00    +0.000 A 
ATOM      6  C   UNL     1       5.003   4.220  16.757  0.00  0.00    +0.000 A 
ENDROOT
BRANCH   1  11
ATOM      7  C   UNL     1       1.297   2.902  18.797  0.00  0.00    +0.000 A 
ATOM      8  C   UNL     1       0.849   3.700  19.840  0.00  0.00    +0.000 A 
ATOM      9  C   UNL     1       1.683   4.696  20.337  0.00  0.00    +0.000 A 
ATOM     10  C   UNL     1       2.951   4.891  19.779  0.00  0.00    +0.000 A 
ATOM     11  C   UNL     1       3.426   4.088  18.721  0.00  0.00    +0.000 A 
ATOM     12  C   UNL     1       2.565   3.082  18.247  0.00  0.00    +0.000 A 
BRANCH   7  13
ATOM     13  O   UNL     1       0.519   1.913  18.270  0.00  0.00    +0.000 OA
ATOM     14  H   UNL     1       0.980   1.064  18.379  0.00  0.00    +0.000 HD
ENDBRANCH   7  13
ENDBRANCH   1  11
BRANCH   5  15
ATOM     15  C   UNL     1       6.510   4.357  14.737  0.00  0.00    +0.000 A 
ATOM     16  C   UNL     1       7.533   5.104  14.120  0.00  0.00    +0.000 A 
ATOM     17  C   UNL     1       7.740   5.061  12.738  0.00  0.00    +0.000 A 
ATOM     18  C   UNL     1       6.934   4.259  11.935  0.00  0.00    +0.000 A 
ATOM     19  C   UNL     1       5.930   3.505  12.526  0.00  0.00    +0.000 A 
ATOM     20  C   UNL     1       5.715   3.550  13.902  0.00  0.00    +0.000 A 
BRANCH  19  21
ATOM     21  O   UNL     1       5.115   2.699  11.788  0.00  0.00    +0.000 OA
ATOM     22  H   UNL     1       5.402   2.734  10.860  0.00  0.00    +0.000 HD
ENDBRANCH  19  21
ENDBRANCH   5  15
TORSDOF 4
ENDMDL
MODEL 8
REMARK VINA RESULT:      -8.2      1.209      7.160
REMARK  Name = 
REMARK  4 active torsions:
REMARK  status: ('A' for Active; 'I' for Inactive)
REMARK    1  A    between atoms: O_1  and  C_2
REMARK    2  A    between atoms: C_6  and  C_7
REMARK    3  A    between atoms: C_11  and  C_12
REMARK    4  A    between atoms: C_16  and  O_17
REMARK                            x       y       z     vdW  Elec       q    Type
REMARK                         _______ _______ _______ _____ _____    ______ ____
ROOT
ATOM      1  C   UNL     1       4.560   4.006  18.425  0.00  0.00    +0.000 A 
ATOM      2  C   UNL     1       5.580   4.434  19.274  0.00  0.00    +0.000 A 
ATOM      3  N   UNL     1       6.805   4.846  18.873  0.00  0.00    +0.000 NA
ATOM      4  C   UNL     1       7.040   4.833  17.541  0.00  0.00    +0.000 A 
ATOM      5  C   UNL     1       6.128   4.418  16.570  0.00  0.00    +0.000 A 
ATOM      6  C   UNL     1       4.875   4.006  17.055  0.00  0.00    +0.000 A 
ENDROOT
BRANCH   1  11
ATOM      7  C   UNL     1       1.761   2.917  20.748  0.00  0.00    +0.000 A 
ATOM      8  C   UNL     1       0.684   2.793  19.882  0.00  0.00    +0.000 A 
ATOM      9  C   UNL     1       0.868   3.066  18.531  0.00  0.00    +0.000 A 
ATOM     10  C   UNL     1       2.127   3.451  18.058  0.00  0.00    +0.000 A 
ATOM     11  C   UNL     1       3.232   3.587  18.924  0.00  0.00    +0.000 A 
ATOM     12  C   UNL     1       3.014   3.314  20.286  0.00  0.00    +0.000 A 
BRANCH   7  13
ATOM     13  O   UNL     1       1.636   2.658  22.082  0.00  0.00    +0.000 OA
ATOM     14  H   UNL     1       1.728   3.493  22.571  0.00  0.00    +0.000 HD
ENDBRANCH   7  13
ENDBRANCH   1  11
BRANCH   5  15
ATOM     15  C   UNL     1       6.449   4.422  15.127  0.00  0.00    +0.000 A 
ATOM     16  C   UNL     1       5.733   3.627  14.211  0.00  0.00    +0.000 A 
ATOM     17  C   UNL     1       6.051   3.612  12.849  0.00  0.00    +0.000 A 
ATOM     18  C   UNL     1       7.089   4.402  12.365  0.00  0.00    +0.000 A 
ATOM     19  C   UNL     1       7.797   5.203  13.251  0.00  0.00    +0.000 A 
ATOM     20  C   UNL     1       7.489   5.215  14.609  0.00  0.00    +0.000 A 
BRANCH  19  21
ATOM     21  O   UNL     1       8.820   6.000  12.830  0.00  0.00    +0.000 OA
ATOM     22  H   UNL     1       9.512   6.002  13.512  0.00  0.00    +0.000 HD
ENDBRANCH  19  21
ENDBRANCH   5  15
TORSDOF 4
ENDMDL
MODEL 9
REMARK VINA RESULT:      -8.0      1.151      7.161
REMARK  Name = 
REMARK  4 active torsions:
REMARK  status: ('A' for Active; 'I' for Inactive)
REMARK    1  A    between atoms: O_1  and  C_2
REMARK    2  A    between atoms: C_6  and  C_7
REMARK    3  A    between atoms: C_11  and  C_12
REMARK    4  A    between atoms: C_16  and  O_17
REMARK                            x       y       z     vdW  Elec       q    Type
REMARK                         _______ _______ _______ _____ _____    ______ ____
ROOT
ATOM      1  C   UNL     1       4.021   4.750  17.712  0.00  0.00    +0.000 A 
ATOM      2  C   UNL     1       4.388   6.030  18.128  0.00  0.00    +0.000 A 
ATOM      3  N   UNL     1       5.201   6.868  17.445  0.00  0.00    +0.000 NA
ATOM      4  C   UNL     1       5.689   6.410  16.268  0.00  0.00    +0.000 A 
ATOM      5  C   UNL     1       5.427   5.150  15.729  0.00  0.00    +0.000 A 
ATOM      6  C   UNL     1       4.573   4.332  16.488  0.00  0.00    +0.000 A 
ENDROOT
BRANCH   1  11
ATOM      7  C   UNL     1       2.484   2.804  20.586  0.00  0.00    +0.000 A 
ATOM      8  C   UNL     1       1.357   2.245  20.001  0.00  0.00    +0.000 A 
ATOM      9  C   UNL     1       1.092   2.504  18.660  0.00  0.00    +0.000 A 
ATOM     10  C   UNL     1       1.962   3.309  17.917  0.00  0.00    +0.000 A 
ATOM     11  C   UNL     1       3.110   3.888  18.495  0.00  0.00    +0.000 A 
ATOM     12  C   UNL     1       3.346   3.618  19.855  0.00  0.00    +0.000 A 
BRANCH   7  13
ATOM     13  O   UNL     1       2.792   2.579  21.897  0.00  0.00    +0.000 OA
ATOM     14  H   UNL     1       1.971   2.599  22.417  0.00  0.00    +0.000 HD
ENDBRANCH   7  13
ENDBRANCH   1  11
BRANCH   5  15
ATOM     15  C   UNL     1       5.998   4.706  14.439  0.00  0.00    +0.000 A 
ATOM     16  C   UNL     1       7.229   5.203  13.967  0.00  0.00    +0.000 A 
ATOM     17  C   UNL     1       7.757   4.801  12.737  0.00  0.00    +0.000 A 
ATOM     18  C   UNL     1       7.073   3.880  11.949  0.00  0.00    +0.000 A 
ATOM     19  C   UNL     1       5.865   3.369  12.403  0.00  0.00    +0.000 A 
ATOM     20  C   UNL     1       5.330   3.772  13.625  0.00  0.00    +0.000 A 
BRANCH  19  21
ATOM     21  O   UNL     1       5.156   2.461  11.675  0.00  0.00    +0.000 OA
ATOM     22  H   UNL     1       4.277   2.359  12.079  0.00  0.00    +0.000 HD
ENDBRANCH  19  21
ENDBRANCH   5  15
TORSDOF 4
ENDMDL
