MODEL 1
REMARK VINA RESULT:      -7.3      0.000      0.000
REMARK  Name = 
REMARK  2 active torsions:
REMARK  status: ('A' for Active; 'I' for Inactive)
REMARK    1  A    between atoms: C_1  and  C_2
REMARK    2  A    between atoms: C_11  and  C_12
REMARK                            x       y       z     vdW  Elec       q    Type
REMARK                         _______ _______ _______ _____ _____    ______ ____
ROOT
ATOM      1  C   UNL     1      -0.721  10.586  23.010  0.00  0.00    +0.000 C 
ATOM      2  C   UNL     1      -0.017   9.746  21.994  0.00  0.00    +0.000 A 
ATOM      3  C   UNL     1       0.742  10.314  20.995  0.00  0.00    +0.000 A 
ATOM      4  C   UNL     1       1.411   9.469  20.106  0.00  0.00    +0.000 A 
ATOM      5  C   UNL     1       1.324   8.083  20.220  0.00  0.00    +0.000 A 
ATOM      6  N   UNL     1       2.003   7.251  19.362  0.00  0.00    +0.000 N 
ATOM      7  C   UNL     1       2.806   7.747  18.258  0.00  0.00    +0.000 C 
ATOM      8  C   UNL     1       3.339   6.515  17.553  0.00  0.00    +0.000 C 
ATOM      9  C   UNL     1       2.406   5.384  17.976  0.00  0.00    +0.000 C 
ATOM     10  O   UNL     1       2.982   4.093  17.815  0.00  0.00    +0.000 OA
ATOM     11  C   UNL     1       3.926   3.678  18.801  0.00  0.00    +0.000 C 
ATOM     12  C   UNL     1       3.288   3.794  20.193  0.00  0.00    +0.000 C 
ATOM     13  C   UNL     1       2.740   5.184  20.514  0.00  0.00    +0.000 C 
ATOM     14  C   UNL     1       1.905   5.785  19.384  0.00  0.00    +0.000 C 
ATOM     15  N   UNL     1       0.558   7.581  21.207  0.00  0.00    +0.000 NA
ATOM     16  N   UNL     1      -0.114   8.407  22.102  0.00  0.00    +0.000 NA
ENDROOT
BRANCH  11  17
ATOM     17  C   UNL     1       5.339   4.323  18.700  0.00  0.00    +0.000 C 
ATOM     18  O   UNL     1       5.925   4.767  19.700  0.00  0.00    +0.000 OA
ATOM     19  N   UNL     1       5.862   4.498  17.445  0.00  0.00    +0.000 N 
ATOM     20  C   UNL     1       7.138   5.110  17.171  0.00  0.00    +0.000 C 
ATOM     21  C   UNL     1       7.187   5.175  15.675  0.00  0.00    +0.000 C 
ATOM     22  C   UNL     1       6.383   3.951  15.278  0.00  0.00    +0.000 C 
ATOM     23  O   UNL     1       5.532   3.616  16.390  0.00  0.00    +0.000 OA
ENDBRANCH  11  17
TORSDOF 1
ENDMDL
MODEL 2
REMARK VINA RESULT:      -6.6      4.177      6.323
REMARK  Name = 
REMARK  2 active torsions:
REMARK  status: ('A' for Active; 'I' for Inactive)
REMARK    1  A    between atoms: C_1  and  C_2
REMARK    2  A    between atoms: C_11  and  C_12
REMARK                            x       y       z     vdW  Elec       q    Type
REMARK                         _______ _______ _______ _____ _____    ______ ____
ROOT
ATOM      1  C   UNL     1       9.634  13.049  18.633  0.00  0.00    +0.000 C 
ATOM      2  C   UNL     1       9.224  11.617  18.510  0.00  0.00    +0.000 A 
ATOM      3  C   UNL     1       9.632  10.673  19.425  0.00  0.00    +0.000 A 
ATOM      4  C   UNL     1       9.174   9.362  19.278  0.00  0.00    +0.000 A 
ATOM      5  C   UNL     1       8.320   9.007  18.236  0.00  0.00    +0.000 A 
ATOM      6  N   UNL     1       7.847   7.722  18.105  0.00  0.00    +0.000 N 
ATOM      7  C   UNL     1       8.240   6.645  18.997  0.00  0.00    +0.000 C 
ATOM      8  C   UNL     1       7.531   5.408  18.484  0.00  0.00    +0.000 C 
ATOM      9  C   UNL     1       7.180   5.728  17.034  0.00  0.00    +0.000 C 
ATOM     10  O   UNL     1       6.128   4.919  16.520  0.00  0.00    +0.000 OA
ATOM     11  C   UNL     1       4.800   5.258  16.914  0.00  0.00    +0.000 C 
ATOM     12  C   UNL     1       4.533   6.733  16.578  0.00  0.00    +0.000 C 
ATOM     13  C   UNL     1       5.546   7.704  17.184  0.00  0.00    +0.000 C 
ATOM     14  C   UNL     1       6.998   7.265  16.997  0.00  0.00    +0.000 C 
ATOM     15  N   UNL     1       7.961   9.967  17.362  0.00  0.00    +0.000 NA
ATOM     16  N   UNL     1       8.406  11.278  17.494  0.00  0.00    +0.000 NA
ENDROOT
BRANCH  11  17
ATOM     17  C   UNL     1       4.400   4.861  18.364  0.00  0.00    +0.000 C 
ATOM     18  O   UNL     1       4.296   5.708  19.266  0.00  0.00    +0.000 OA
ATOM     19  N   UNL     1       4.289   3.522  18.642  0.00  0.00    +0.000 N 
ATOM     20  C   UNL     1       3.964   2.982  19.938  0.00  0.00    +0.000 C 
ATOM     21  C   UNL     1       4.088   1.501  19.747  0.00  0.00    +0.000 C 
ATOM     22  C   UNL     1       3.690   1.335  18.292  0.00  0.00    +0.000 C 
ATOM     23  O   UNL     1       3.898   2.603  17.642  0.00  0.00    +0.000 OA
ENDBRANCH  11  17
TORSDOF 1
ENDMDL
MODEL 3
REMARK VINA RESULT:      -6.6      4.177      6.311
REMARK  Name = 
REMARK  2 active torsions:
REMARK  status: ('A' for Active; 'I' for Inactive)
REMARK    1  A    between atoms: C_1  and  C_2
REMARK    2  A    between atoms: C_11  and  C_12
REMARK                            x       y       z     vdW  Elec       q    Type
REMARK                         _______ _______ _______ _____ _____    ______ ____
ROOT
ATOM      1  C   UNL     1       9.138  12.659  18.512  0.00  0.00    +0.000 C 
ATOM      2  C   UNL     1       8.849  11.196  18.418  0.00  0.00    +0.000 A 
ATOM      3  C   UNL     1       9.354  10.305  19.338  0.00  0.00    +0.000 A 
ATOM      4  C   UNL     1       9.007   8.957  19.218  0.00  0.00    +0.000 A 
ATOM      5  C   UNL     1       8.165   8.514  18.200  0.00  0.00    +0.000 A 
ATOM      6  N   UNL     1       7.801   7.192  18.098  0.00  0.00    +0.000 N 
ATOM      7  C   UNL     1       8.302   6.167  18.997  0.00  0.00    +0.000 C 
ATOM      8  C   UNL     1       7.692   4.866  18.516  0.00  0.00    +0.000 C 
ATOM      9  C   UNL     1       7.286   5.132  17.069  0.00  0.00    +0.000 C 
ATOM     10  O   UNL     1       6.297   4.228  16.589  0.00  0.00    +0.000 OA
ATOM     11  C   UNL     1       4.952   4.460  17.005  0.00  0.00    +0.000 C 
ATOM     12  C   UNL     1       4.554   5.901  16.654  0.00  0.00    +0.000 C 
ATOM     13  C   UNL     1       5.493   6.964  17.225  0.00  0.00    +0.000 C 
ATOM     14  C   UNL     1       6.973   6.646  17.014  0.00  0.00    +0.000 C 
ATOM     15  N   UNL     1       7.710   9.426  17.320  0.00  0.00    +0.000 NA
ATOM     16  N   UNL     1       8.044  10.772  17.424  0.00  0.00    +0.000 NA
ENDROOT
BRANCH  11  17
ATOM     17  C   UNL     1       4.616   4.053  18.469  0.00  0.00    +0.000 C 
ATOM     18  O   UNL     1       5.431   4.214  19.393  0.00  0.00    +0.000 OA
ATOM     19  N   UNL     1       3.435   3.391  18.683  0.00  0.00    +0.000 N 
ATOM     20  C   UNL     1       2.988   2.913  19.967  0.00  0.00    +0.000 C 
ATOM     21  C   UNL     1       1.728   2.167  19.650  0.00  0.00    +0.000 C 
ATOM     22  C   UNL     1       1.197   2.937  18.455  0.00  0.00    +0.000 C 
ATOM     23  O   UNL     1       2.312   3.624  17.856  0.00  0.00    +0.000 OA
ENDBRANCH  11  17
TORSDOF 1
ENDMDL
MODEL 4
REMARK VINA RESULT:      -6.3      3.987      5.492
REMARK  Name = 
REMARK  2 active torsions:
REMARK  status: ('A' for Active; 'I' for Inactive)
REMARK    1  A    between atoms: C_1  and  C_2
REMARK    2  A    between atoms: C_11  and  C_12
REMARK                            x       y       z     vdW  Elec       q    Type
REMARK                         _______ _______ _______ _____ _____    ______ ____
ROOT
ATOM      1  C   UNL     1       1.028   2.157  22.246  0.00  0.00    +0.000 C 
ATOM      2  C   UNL     1       1.870   2.767  21.173  0.00  0.00    +0.000 A 
ATOM      3  C   UNL     1       1.305   3.457  20.124  0.00  0.00    +0.000 A 
ATOM      4  C   UNL     1       2.152   4.043  19.180  0.00  0.00    +0.000 A 
ATOM      5  C   UNL     1       3.537   3.941  19.289  0.00  0.00    +0.000 A 
ATOM      6  N   UNL     1       4.372   4.539  18.375  0.00  0.00    +0.000 N 
ATOM      7  C   UNL     1       3.879   5.264  17.217  0.00  0.00    +0.000 C 
ATOM      8  C   UNL     1       5.112   5.721  16.464  0.00  0.00    +0.000 C 
ATOM      9  C   UNL     1       6.232   4.804  16.948  0.00  0.00    +0.000 C 
ATOM     10  O   UNL     1       7.531   5.344  16.733  0.00  0.00    +0.000 OA
ATOM     11  C   UNL     1       7.970   6.353  17.640  0.00  0.00    +0.000 C 
ATOM     12  C   UNL     1       7.858   5.825  19.078  0.00  0.00    +0.000 C 
ATOM     13  C   UNL     1       6.461   5.326  19.451  0.00  0.00    +0.000 C 
ATOM     14  C   UNL     1       5.836   4.418  18.393  0.00  0.00    +0.000 C 
ATOM     15  N   UNL     1       4.036   3.244  20.327  0.00  0.00    +0.000 NA
ATOM     16  N   UNL     1       3.208   2.656  21.278  0.00  0.00    +0.000 NA
ENDROOT
BRANCH  11  17
ATOM     17  C   UNL     1       7.348   7.764  17.437  0.00  0.00    +0.000 C 
ATOM     18  O   UNL     1       6.283   7.924  16.817  0.00  0.00    +0.000 OA
ATOM     19  N   UNL     1       8.082   8.843  17.859  0.00  0.00    +0.000 N 
ATOM     20  C   UNL     1       7.671  10.217  17.715  0.00  0.00    +0.000 C 
ATOM     21  C   UNL     1       8.853  10.995  18.208  0.00  0.00    +0.000 C 
ATOM     22  C   UNL     1       9.428  10.064  19.260  0.00  0.00    +0.000 C 
ATOM     23  O   UNL     1       8.969   8.734  18.954  0.00  0.00    +0.000 OA
ENDBRANCH  11  17
TORSDOF 1
ENDMDL
MODEL 5
REMARK VINA RESULT:      -6.1      4.976      9.821
REMARK  Name = 
REMARK  2 active torsions:
REMARK  status: ('A' for Active; 'I' for Inactive)
REMARK    1  A    between atoms: C_1  and  C_2
REMARK    2  A    between atoms: C_11  and  C_12
REMARK                            x       y       z     vdW  Elec       q    Type
REMARK                         _______ _______ _______ _____ _____    ______ ____
ROOT
ATOM      1  C   UNL     1       3.111   5.874  18.087  0.00  0.00    +0.000 C 
ATOM      2  C   UNL     1       2.492   7.160  18.529  0.00  0.00    +0.000 A 
ATOM      3  C   UNL     1       2.032   8.085  17.619  0.00  0.00    +0.000 A 
ATOM      4  C   UNL     1       1.422   9.246  18.101  0.00  0.00    +0.000 A 
ATOM      5  C   UNL     1       1.273   9.471  19.467  0.00  0.00    +0.000 A 
ATOM      6  N   UNL     1       0.649  10.601  19.942  0.00  0.00    +0.000 N 
ATOM      7  C   UNL     1       0.156  11.652  19.069  0.00  0.00    +0.000 C 
ATOM      8  C   UNL     1      -0.416  12.713  19.987  0.00  0.00    +0.000 C 
ATOM      9  C   UNL     1       0.235  12.454  21.342  0.00  0.00    +0.000 C 
ATOM     10  O   UNL     1      -0.490  13.017  22.430  0.00  0.00    +0.000 OA
ATOM     11  C   UNL     1      -1.656  12.317  22.860  0.00  0.00    +0.000 C 
ATOM     12  C   UNL     1      -1.284  10.862  23.181  0.00  0.00    +0.000 C 
ATOM     13  C   UNL     1      -0.600  10.125  22.029  0.00  0.00    +0.000 C 
ATOM     14  C   UNL     1       0.516  10.933  21.367  0.00  0.00    +0.000 C 
ATOM     15  N   UNL     1       1.752   8.540  20.314  0.00  0.00    +0.000 NA
ATOM     16  N   UNL     1       2.361   7.377  19.852  0.00  0.00    +0.000 NA
ENDROOT
BRANCH  11  17
ATOM     17  C   UNL     1      -2.908  12.460  21.948  0.00  0.00    +0.000 C 
ATOM     18  O   UNL     1      -2.819  12.424  20.710  0.00  0.00    +0.000 OA
ATOM     19  N   UNL     1      -4.101  12.755  22.557  0.00  0.00    +0.000 N 
ATOM     20  C   UNL     1      -5.346  12.956  21.859  0.00  0.00    +0.000 C 
ATOM     21  C   UNL     1      -6.297  13.367  22.942  0.00  0.00    +0.000 C 
ATOM     22  C   UNL     1      -5.754  12.616  24.143  0.00  0.00    +0.000 C 
ATOM     23  O   UNL     1      -4.370  12.320  23.875  0.00  0.00    +0.000 OA
ENDBRANCH  11  17
TORSDOF 1
ENDMDL
MODEL 6
REMARK VINA RESULT:      -6.1      1.112      1.213
REMARK  Name = 
REMARK  2 active torsions:
REMARK  status: ('A' for Active; 'I' for Inactive)
REMARK    1  A    between atoms: C_1  and  C_2
REMARK    2  A    between atoms: C_11  and  C_12
REMARK                            x       y       z     vdW  Elec       q    Type
REMARK                         _______ _______ _______ _____ _____    ______ ____
ROOT
ATOM      1  C   UNL     1      -0.278  12.350  21.116  0.00  0.00    +0.000 C 
ATOM      2  C   UNL     1       0.363  11.209  20.394  0.00  0.00    +0.000 A 
ATOM      3  C   UNL     1       1.187  11.419  19.311  0.00  0.00    +0.000 A 
ATOM      4  C   UNL     1       1.792  10.312  18.711  0.00  0.00    +0.000 A 
ATOM      5  C   UNL     1       1.577   9.021  19.191  0.00  0.00    +0.000 A 
ATOM      6  N   UNL     1       2.193   7.934  18.618  0.00  0.00    +0.000 N 
ATOM      7  C   UNL     1       3.055   8.042  17.454  0.00  0.00    +0.000 C 
ATOM      8  C   UNL     1       3.486   6.625  17.130  0.00  0.00    +0.000 C 
ATOM      9  C   UNL     1       2.448   5.733  17.805  0.00  0.00    +0.000 C 
ATOM     10  O   UNL     1       2.907   4.404  18.022  0.00  0.00    +0.000 OA
ATOM     11  C   UNL     1       3.793   4.197  19.120  0.00  0.00    +0.000 C 
ATOM     12  C   UNL     1       3.146   4.740  20.403  0.00  0.00    +0.000 C 
ATOM     13  C   UNL     1       2.720   6.206  20.314  0.00  0.00    +0.000 C 
ATOM     14  C   UNL     1       1.962   6.543  19.031  0.00  0.00    +0.000 C 
ATOM     15  N   UNL     1       0.753   8.872  20.245  0.00  0.00    +0.000 NA
ATOM     16  N   UNL     1       0.144   9.963  20.856  0.00  0.00    +0.000 NA
ENDROOT
BRANCH  11  17
ATOM     17  C   UNL     1       5.260   4.671  18.906  0.00  0.00    +0.000 C 
ATOM     18  O   UNL     1       5.919   5.184  19.825  0.00  0.00    +0.000 OA
ATOM     19  N   UNL     1       5.759   4.617  17.630  0.00  0.00    +0.000 N 
ATOM     20  C   UNL     1       7.081   5.049  17.252  0.00  0.00    +0.000 C 
ATOM     21  C   UNL     1       7.089   4.904  15.761  0.00  0.00    +0.000 C 
ATOM     22  C   UNL     1       6.154   3.727  15.552  0.00  0.00    +0.000 C 
ATOM     23  O   UNL     1       5.308   3.639  16.715  0.00  0.00    +0.000 OA
ENDBRANCH  11  17
TORSDOF 1
ENDMDL
MODEL 7
REMARK VINA RESULT:      -6.1      7.577      9.081
REMARK  Name = 
REMARK  2 active torsions:
REMARK  status: ('A' for Active; 'I' for Inactive)
REMARK    1  A    between atoms: C_1  and  C_2
REMARK    2  A    between atoms: C_11  and  C_12
REMARK                            x       y       z     vdW  Elec       q    Type
REMARK                         _______ _______ _______ _____ _____    ______ ____
ROOT
ATOM      1  C   UNL     1       6.387  14.989  22.720  0.00  0.00    +0.000 C 
ATOM      2  C   UNL     1       5.094  14.801  21.995  0.00  0.00    +0.000 A 
ATOM      3  C   UNL     1       5.018  14.910  20.624  0.00  0.00    +0.000 A 
ATOM      4  C   UNL     1       3.788  14.676  20.006  0.00  0.00    +0.000 A 
ATOM      5  C   UNL     1       2.659  14.335  20.746  0.00  0.00    +0.000 A 
ATOM      6  N   UNL     1       1.454  14.078  20.136  0.00  0.00    +0.000 N 
ATOM      7  C   UNL     1       1.259  14.195  18.701  0.00  0.00    +0.000 C 
ATOM      8  C   UNL     1      -0.200  13.868  18.457  0.00  0.00    +0.000 C 
ATOM      9  C   UNL     1      -0.883  14.080  19.805  0.00  0.00    +0.000 C 
ATOM     10  O   UNL     1      -2.126  13.397  19.919  0.00  0.00    +0.000 OA
ATOM     11  C   UNL     1      -2.072  11.994  20.171  0.00  0.00    +0.000 C 
ATOM     12  C   UNL     1      -1.221  11.737  21.424  0.00  0.00    +0.000 C 
ATOM     13  C   UNL     1       0.185  12.333  21.355  0.00  0.00    +0.000 C 
ATOM     14  C   UNL     1       0.210  13.778  20.858  0.00  0.00    +0.000 C 
ATOM     15  N   UNL     1       2.786  14.254  22.084  0.00  0.00    +0.000 NA
ATOM     16  N   UNL     1       4.003  14.482  22.718  0.00  0.00    +0.000 NA
ENDROOT
BRANCH  11  17
ATOM     17  C   UNL     1      -1.689  11.101  18.956  0.00  0.00    +0.000 C 
ATOM     18  O   UNL     1      -0.640  10.437  18.941  0.00  0.00    +0.000 OA
ATOM     19  N   UNL     1      -2.491  11.171  17.846  0.00  0.00    +0.000 N 
ATOM     20  C   UNL     1      -2.261  10.440  16.625  0.00  0.00    +0.000 C 
ATOM     21  C   UNL     1      -3.323  10.951  15.699  0.00  0.00    +0.000 C 
ATOM     22  C   UNL     1      -4.454  11.269  16.660  0.00  0.00    +0.000 C 
ATOM     23  O   UNL     1      -3.870  11.461  17.963  0.00  0.00    +0.000 OA
ENDBRANCH  11  17
TORSDOF 1
ENDMDL
MODEL 8
REMARK VINA RESULT:      -6.1      4.317      8.727
REMARK  Name = 
REMARK  2 active torsions:
REMARK  status: ('A' for Active; 'I' for Inactive)
REMARK    1  A    between atoms: C_1  and  C_2
REMARK    2  A    between atoms: C_11  and  C_12
REMARK                            x       y       z     vdW  Elec       q    Type
REMARK                         _______ _______ _______ _____ _____    ______ ____
ROOT
ATOM      1  C   UNL     1       5.168   4.980  17.963  0.00  0.00    +0.000 C 
ATOM      2  C   UNL     1       4.099   5.963  18.314  0.00  0.00    +0.000 A 
ATOM      3  C   UNL     1       3.326   5.809  19.444  0.00  0.00    +0.000 A 
ATOM      4  C   UNL     1       2.377   6.790  19.738  0.00  0.00    +0.000 A 
ATOM      5  C   UNL     1       2.209   7.904  18.919  0.00  0.00    +0.000 A 
ATOM      6  N   UNL     1       1.292   8.883  19.222  0.00  0.00    +0.000 N 
ATOM      7  C   UNL     1       0.407   8.803  20.371  0.00  0.00    +0.000 C 
ATOM      8  C   UNL     1      -0.454  10.048  20.314  0.00  0.00    +0.000 C 
ATOM      9  C   UNL     1      -0.371  10.518  18.864  0.00  0.00    +0.000 C 
ATOM     10  O   UNL     1      -0.710  11.890  18.699  0.00  0.00    +0.000 OA
ATOM     11  C   UNL     1       0.281  12.849  19.063  0.00  0.00    +0.000 C 
ATOM     12  C   UNL     1       1.584  12.541  18.310  0.00  0.00    +0.000 C 
ATOM     13  C   UNL     1       2.101  11.117  18.517  0.00  0.00    +0.000 C 
ATOM     14  C   UNL     1       1.018  10.049  18.371  0.00  0.00    +0.000 C 
ATOM     15  N   UNL     1       2.982   7.998  17.821  0.00  0.00    +0.000 NA
ATOM     16  N   UNL     1       3.934   7.033  17.513  0.00  0.00    +0.000 NA
ENDROOT
BRANCH  11  17
ATOM     17  C   UNL     1       0.474  13.078  20.590  0.00  0.00    +0.000 C 
ATOM     18  O   UNL     1       1.571  12.892  21.142  0.00  0.00    +0.000 OA
ATOM     19  N   UNL     1      -0.643  13.372  21.329  0.00  0.00    +0.000 N 
ATOM     20  C   UNL     1      -0.647  13.578  22.755  0.00  0.00    +0.000 C 
ATOM     21  C   UNL     1      -2.099  13.742  23.087  0.00  0.00    +0.000 C 
ATOM     22  C   UNL     1      -2.641  14.386  21.824  0.00  0.00    +0.000 C 
ATOM     23  O   UNL     1      -1.731  14.068  20.754  0.00  0.00    +0.000 OA
ENDBRANCH  11  17
TORSDOF 1
ENDMDL
MODEL 9
REMARK VINA RESULT:      -6.0      5.620     10.380
REMARK  Name = 
REMARK  2 active torsions:
REMARK  status: ('A' for Active; 'I' for Inactive)
REMARK    1  A    between atoms: C_1  and  C_2
REMARK    2  A    between atoms: C_11  and  C_12
REMARK                            x       y       z     vdW  Elec       q    Type
REMARK                         _______ _______ _______ _____ _____    ______ ____
ROOT
ATOM      1  C   UNL     1       3.140   7.198  17.930  0.00  0.00    +0.000 C 
ATOM      2  C   UNL     1       2.212   8.080  18.701  0.00  0.00    +0.000 A 
ATOM      3  C   UNL     1       1.936   7.844  20.029  0.00  0.00    +0.000 A 
ATOM      4  C   UNL     1       1.097   8.734  20.702  0.00  0.00    +0.000 A 
ATOM      5  C   UNL     1       0.549   9.841  20.057  0.00  0.00    +0.000 A 
ATOM      6  N   UNL     1      -0.255  10.733  20.726  0.00  0.00    +0.000 N 
ATOM      7  C   UNL     1      -0.633  10.560  22.118  0.00  0.00    +0.000 C 
ATOM      8  C   UNL     1      -1.544  11.727  22.444  0.00  0.00    +0.000 C 
ATOM      9  C   UNL     1      -2.049  12.223  21.092  0.00  0.00    +0.000 C 
ATOM     10  O   UNL     1      -2.527  13.563  21.128  0.00  0.00    +0.000 OA
ATOM     11  C   UNL     1      -1.546  14.599  21.138  0.00  0.00    +0.000 C 
ATOM     12  C   UNL     1      -0.604  14.415  19.939  0.00  0.00    +0.000 C 
ATOM     13  C   UNL     1       0.058  13.038  19.872  0.00  0.00    +0.000 C 
ATOM     14  C   UNL     1      -0.917  11.883  20.093  0.00  0.00    +0.000 C 
ATOM     15  N   UNL     1       0.842  10.018  18.755  0.00  0.00    +0.000 NA
ATOM     16  N   UNL     1       1.678   9.142  18.069  0.00  0.00    +0.000 NA
ENDROOT
BRANCH  11  17
ATOM     17  C   UNL     1      -0.809  14.822  22.490  0.00  0.00    +0.000 C 
ATOM     18  O   UNL     1       0.418  14.664  22.596  0.00  0.00    +0.000 OA
ATOM     19  N   UNL     1      -1.582  15.079  23.593  0.00  0.00    +0.000 N 
ATOM     20  C   UNL     1      -1.064  15.274  24.924  0.00  0.00    +0.000 C 
ATOM     21  C   UNL     1      -2.295  15.393  25.770  0.00  0.00    +0.000 C 
ATOM     22  C   UNL     1      -3.280  16.031  24.808  0.00  0.00    +0.000 C 
ATOM     23  O   UNL     1      -2.822  15.747  23.472  0.00  0.00    +0.000 OA
ENDBRANCH  11  17
TORSDOF 1
ENDMDL
