MODEL 1
REMARK VINA RESULT:      -6.9      0.000      0.000
REMARK  Name = 
REMARK  7 active torsions:
REMARK  status: ('A' for Active; 'I' for Inactive)
REMARK    1  A    between atoms: C_2  and  C_3
REMARK    2  A    between atoms: C_2  and  C_4
REMARK    3  A    between atoms: C_4  and  O_5
REMARK    4  A    between atoms: O_5  and  C_6
REMARK    5  A    between atoms: C_10  and  C_11
REMARK    6  A    between atoms: C_15  and  O_16
REMARK    7  A    between atoms: O_16  and  C_17
REMARK                            x       y       z     vdW  Elec       q    Type
REMARK                         _______ _______ _______ _____ _____    ______ ____
ROOT
ATOM      1  C   UNL     1       4.565   4.657  18.555  0.00  0.00    +0.000 A 
ATOM      2  C   UNL     1       3.864   4.434  17.352  0.00  0.00    +0.000 A 
ATOM      3 CL   UNL     1       2.144   4.217  17.340  0.00  0.00    +0.000 Cl
ATOM      4  C   UNL     1       4.524   4.366  16.117  0.00  0.00    +0.000 A 
ATOM      5  C   UNL     1       5.906   4.533  16.062  0.00  0.00    +0.000 A 
ATOM      6  C   UNL     1       6.606   4.778  17.250  0.00  0.00    +0.000 A 
ATOM      7  C   UNL     1       5.953   4.869  18.489  0.00  0.00    +0.000 A 
ENDROOT
BRANCH   5   8
ATOM      8  C   UNL     1       6.707   4.479  14.806  0.00  0.00    +0.000 C 
ATOM      9  N   UNL     1       6.399   3.538  13.866  0.00  0.00    +0.000 N 
ATOM     10  O   UNL     1       7.625   5.264  14.604  0.00  0.00    +0.000 OA
ATOM     11  H   UNL     1       5.651   2.867  13.925  0.00  0.00    +0.000 HD
ATOM     12  H   UNL     1       6.958   3.550  13.022  0.00  0.00    +0.000 HD
ENDBRANCH   5   8
BRANCH   7  13
ATOM     13  O   UNL     1       6.645   5.133  19.642  0.00  0.00    +0.000 OA
ATOM     14  C   UNL     1       7.922   5.753  19.501  0.00  0.00    +0.000 C 
ENDBRANCH   7  13
BRANCH   1  15
ATOM     15  O   UNL     1       3.791   4.701  19.693  0.00  0.00    +0.000 OA
BRANCH  15  16
ATOM     16  C   UNL     1       3.452   3.455  20.303  0.00  0.00    +0.000 C 
BRANCH  16  18
ATOM     17  C   UNL     1       1.548   2.548  21.647  0.00  0.00    +0.000 C 
ATOM     18  C   UNL     1       2.077   3.554  20.930  0.00  0.00    +0.000 C 
ATOM     19  C   UNL     1       1.305   4.816  20.665  0.00  0.00    +0.000 C 
ENDBRANCH  16  18
ENDBRANCH  15  16
ENDBRANCH   1  15
TORSDOF 5
ENDMDL
MODEL 2
REMARK VINA RESULT:      -6.8      2.049      2.741
REMARK  Name = 
REMARK  7 active torsions:
REMARK  status: ('A' for Active; 'I' for Inactive)
REMARK    1  A    between atoms: C_2  and  C_3
REMARK    2  A    between atoms: C_2  and  C_4
REMARK    3  A    between atoms: C_4  and  O_5
REMARK    4  A    between atoms: O_5  and  C_6
REMARK    5  A    between atoms: C_10  and  C_11
REMARK    6  A    between atoms: C_15  and  O_16
REMARK    7  A    between atoms: O_16  and  C_17
REMARK                            x       y       z     vdW  Elec       q    Type
REMARK                         _______ _______ _______ _____ _____    ______ ____
ROOT
ATOM      1  C   UNL     1       3.076   4.762  17.728  0.00  0.00    +0.000 A 
ATOM      2  C   UNL     1       3.749   5.994  17.594  0.00  0.00    +0.000 A 
ATOM      3 CL   UNL     1       3.001   7.484  18.068  0.00  0.00    +0.000 Cl
ATOM      4  C   UNL     1       5.045   6.070  17.065  0.00  0.00    +0.000 A 
ATOM      5  C   UNL     1       5.698   4.906  16.668  0.00  0.00    +0.000 A 
ATOM      6  C   UNL     1       5.045   3.677  16.819  0.00  0.00    +0.000 A 
ATOM      7  C   UNL     1       3.757   3.587  17.367  0.00  0.00    +0.000 A 
ENDROOT
BRANCH   5   8
ATOM      8  C   UNL     1       7.073   4.873  16.091  0.00  0.00    +0.000 C 
ATOM      9  N   UNL     1       7.275   5.369  14.836  0.00  0.00    +0.000 N 
ATOM     10  O   UNL     1       8.016   4.417  16.725  0.00  0.00    +0.000 OA
ATOM     11  H   UNL     1       6.574   5.787  14.245  0.00  0.00    +0.000 HD
ATOM     12  H   UNL     1       8.227   5.342  14.492  0.00  0.00    +0.000 HD
ENDBRANCH   5   8
BRANCH   7  13
ATOM     13  O   UNL     1       3.136   2.376  17.533  0.00  0.00    +0.000 OA
ATOM     14  C   UNL     1       3.734   1.465  18.452  0.00  0.00    +0.000 C 
ENDBRANCH   7  13
BRANCH   1  15
ATOM     15  O   UNL     1       1.809   4.834  18.264  0.00  0.00    +0.000 OA
BRANCH  15  16
ATOM     16  C   UNL     1       1.700   4.841  19.689  0.00  0.00    +0.000 C 
BRANCH  16  18
ATOM     17  C   UNL     1       1.564   2.994  21.368  0.00  0.00    +0.000 C 
ATOM     18  C   UNL     1       1.216   3.490  20.168  0.00  0.00    +0.000 C 
ATOM     19  C   UNL     1       0.368   2.699  19.212  0.00  0.00    +0.000 C 
ENDBRANCH  16  18
ENDBRANCH  15  16
ENDBRANCH   1  15
TORSDOF 5
ENDMDL
MODEL 3
REMARK VINA RESULT:      -6.8      1.083      1.083
REMARK  Name = 
REMARK  7 active torsions:
REMARK  status: ('A' for Active; 'I' for Inactive)
REMARK    1  A    between atoms: C_2  and  C_3
REMARK    2  A    between atoms: C_2  and  C_4
REMARK    3  A    between atoms: C_4  and  O_5
REMARK    4  A    between atoms: O_5  and  C_6
REMARK    5  A    between atoms: C_10  and  C_11
REMARK    6  A    between atoms: C_15  and  O_16
REMARK    7  A    between atoms: O_16  and  C_17
REMARK                            x       y       z     vdW  Elec       q    Type
REMARK                         _______ _______ _______ _____ _____    ______ ____
ROOT
ATOM      1  C   UNL     1       4.922   3.907  18.469  0.00  0.00    +0.000 A 
ATOM      2  C   UNL     1       4.250   3.504  17.297  0.00  0.00    +0.000 A 
ATOM      3 CL   UNL     1       2.705   2.721  17.370  0.00  0.00    +0.000 Cl
ATOM      4  C   UNL     1       4.802   3.708  16.025  0.00  0.00    +0.000 A 
ATOM      5  C   UNL     1       6.041   4.332  15.901  0.00  0.00    +0.000 A 
ATOM      6  C   UNL     1       6.704   4.756  17.060  0.00  0.00    +0.000 A 
ATOM      7  C   UNL     1       6.151   4.577  18.336  0.00  0.00    +0.000 A 
ENDROOT
BRANCH   5   8
ATOM      8  C   UNL     1       6.720   4.596  14.601  0.00  0.00    +0.000 C 
ATOM      9  N   UNL     1       7.722   5.521  14.554  0.00  0.00    +0.000 N 
ATOM     10  O   UNL     1       6.399   3.995  13.583  0.00  0.00    +0.000 OA
ATOM     11  H   UNL     1       8.076   6.048  15.336  0.00  0.00    +0.000 HD
ATOM     12  H   UNL     1       8.167   5.655  13.654  0.00  0.00    +0.000 HD
ENDBRANCH   5   8
BRANCH   7  13
ATOM     13  O   UNL     1       6.797   5.017  19.462  0.00  0.00    +0.000 OA
ATOM     14  C   UNL     1       7.925   5.868  19.267  0.00  0.00    +0.000 C 
ENDBRANCH   7  13
BRANCH   1  15
ATOM     15  O   UNL     1       4.264   3.646  19.650  0.00  0.00    +0.000 OA
BRANCH  15  16
ATOM     16  C   UNL     1       3.301   4.606  20.090  0.00  0.00    +0.000 C 
BRANCH  16  18
ATOM     17  C   UNL     1       2.327   2.939  21.678  0.00  0.00    +0.000 C 
ATOM     18  C   UNL     1       2.140   3.895  20.751  0.00  0.00    +0.000 C 
ATOM     19  C   UNL     1       0.764   4.270  20.281  0.00  0.00    +0.000 C 
ENDBRANCH  16  18
ENDBRANCH  15  16
ENDBRANCH   1  15
TORSDOF 5
ENDMDL
MODEL 4
REMARK VINA RESULT:      -6.8      2.148      2.602
REMARK  Name = 
REMARK  7 active torsions:
REMARK  status: ('A' for Active; 'I' for Inactive)
REMARK    1  A    between atoms: C_2  and  C_3
REMARK    2  A    between atoms: C_2  and  C_4
REMARK    3  A    between atoms: C_4  and  O_5
REMARK    4  A    between atoms: O_5  and  C_6
REMARK    5  A    between atoms: C_10  and  C_11
REMARK    6  A    between atoms: C_15  and  O_16
REMARK    7  A    between atoms: O_16  and  C_17
REMARK                            x       y       z     vdW  Elec       q    Type
REMARK                         _______ _______ _______ _____ _____    ______ ____
ROOT
ATOM      1  C   UNL     1       3.169   4.908  17.661  0.00  0.00    +0.000 A 
ATOM      2  C   UNL     1       3.871   6.077  17.303  0.00  0.00    +0.000 A 
ATOM      3 CL   UNL     1       3.400   7.631  17.911  0.00  0.00    +0.000 Cl
ATOM      4  C   UNL     1       4.970   6.038  16.434  0.00  0.00    +0.000 A 
ATOM      5  C   UNL     1       5.396   4.819  15.913  0.00  0.00    +0.000 A 
ATOM      6  C   UNL     1       4.718   3.651  16.283  0.00  0.00    +0.000 A 
ATOM      7  C   UNL     1       3.631   3.675  17.168  0.00  0.00    +0.000 A 
ENDROOT
BRANCH   5   8
ATOM      8  C   UNL     1       6.549   4.664  14.981  0.00  0.00    +0.000 C 
ATOM      9  N   UNL     1       6.492   3.704  14.013  0.00  0.00    +0.000 N 
ATOM     10  O   UNL     1       7.536   5.384  15.066  0.00  0.00    +0.000 OA
ATOM     11  H   UNL     1       5.719   3.081  13.844  0.00  0.00    +0.000 HD
ATOM     12  H   UNL     1       7.289   3.646  13.391  0.00  0.00    +0.000 HD
ENDBRANCH   5   8
BRANCH   7  13
ATOM     13  O   UNL     1       2.990   2.522  17.542  0.00  0.00    +0.000 OA
ATOM     14  C   UNL     1       3.696   1.646  18.417  0.00  0.00    +0.000 C 
ENDBRANCH   7  13
BRANCH   1  15
ATOM     15  O   UNL     1       2.111   5.091  18.523  0.00  0.00    +0.000 OA
BRANCH  15  16
ATOM     16  C   UNL     1       2.380   4.990  19.923  0.00  0.00    +0.000 C 
BRANCH  16  18
ATOM     17  C   UNL     1       0.590   3.245  19.882  0.00  0.00    +0.000 C 
ATOM     18  C   UNL     1       1.656   3.790  20.494  0.00  0.00    +0.000 C 
ATOM     19  C   UNL     1       2.152   3.268  21.813  0.00  0.00    +0.000 C 
ENDBRANCH  16  18
ENDBRANCH  15  16
ENDBRANCH   1  15
TORSDOF 5
ENDMDL
MODEL 5
REMARK VINA RESULT:      -6.7      0.787      1.158
REMARK  Name = 
REMARK  7 active torsions:
REMARK  status: ('A' for Active; 'I' for Inactive)
REMARK    1  A    between atoms: C_2  and  C_3
REMARK    2  A    between atoms: C_2  and  C_4
REMARK    3  A    between atoms: C_4  and  O_5
REMARK    4  A    between atoms: O_5  and  C_6
REMARK    5  A    between atoms: C_10  and  C_11
REMARK    6  A    between atoms: C_15  and  O_16
REMARK    7  A    between atoms: O_16  and  C_17
REMARK                            x       y       z     vdW  Elec       q    Type
REMARK                         _______ _______ _______ _____ _____    ______ ____
ROOT
ATOM      1  C   UNL     1       4.585   4.526  18.471  0.00  0.00    +0.000 A 
ATOM      2  C   UNL     1       3.856   4.323  17.282  0.00  0.00    +0.000 A 
ATOM      3 CL   UNL     1       2.138   4.091  17.309  0.00  0.00    +0.000 Cl
ATOM      4  C   UNL     1       4.485   4.288  16.030  0.00  0.00    +0.000 A 
ATOM      5  C   UNL     1       5.863   4.468  15.944  0.00  0.00    +0.000 A 
ATOM      6  C   UNL     1       6.591   4.694  17.119  0.00  0.00    +0.000 A 
ATOM      7  C   UNL     1       5.970   4.752  18.375  0.00  0.00    +0.000 A 
ENDROOT
BRANCH   5   8
ATOM      8  C   UNL     1       6.632   4.448  14.667  0.00  0.00    +0.000 C 
ATOM      9  N   UNL     1       7.636   5.355  14.485  0.00  0.00    +0.000 N 
ATOM     10  O   UNL     1       6.384   3.631  13.789  0.00  0.00    +0.000 OA
ATOM     11  H   UNL     1       7.934   6.048  15.153  0.00  0.00    +0.000 HD
ATOM     12  H   UNL     1       8.143   5.293  13.611  0.00  0.00    +0.000 HD
ENDBRANCH   5   8
BRANCH   7  13
ATOM     13  O   UNL     1       6.689   4.997  19.516  0.00  0.00    +0.000 OA
ATOM     14  C   UNL     1       7.875   5.775  19.376  0.00  0.00    +0.000 C 
ENDBRANCH   7  13
BRANCH   1  15
ATOM     15  O   UNL     1       3.841   4.538  19.630  0.00  0.00    +0.000 OA
BRANCH  15  16
ATOM     16  C   UNL     1       3.341   3.286  20.101  0.00  0.00    +0.000 C 
BRANCH  16  18
ATOM     17  C   UNL     1       1.271   4.593  20.611  0.00  0.00    +0.000 C 
ATOM     18  C   UNL     1       2.028   3.502  20.822  0.00  0.00    +0.000 C 
ATOM     19  C   UNL     1       1.634   2.461  21.832  0.00  0.00    +0.000 C 
ENDBRANCH  16  18
ENDBRANCH  15  16
ENDBRANCH   1  15
TORSDOF 5
ENDMDL
MODEL 6
REMARK VINA RESULT:      -6.7      0.953      1.342
REMARK  Name = 
REMARK  7 active torsions:
REMARK  status: ('A' for Active; 'I' for Inactive)
REMARK    1  A    between atoms: C_2  and  C_3
REMARK    2  A    between atoms: C_2  and  C_4
REMARK    3  A    between atoms: C_4  and  O_5
REMARK    4  A    between atoms: O_5  and  C_6
REMARK    5  A    between atoms: C_10  and  C_11
REMARK    6  A    between atoms: C_15  and  O_16
REMARK    7  A    between atoms: O_16  and  C_17
REMARK                            x       y       z     vdW  Elec       q    Type
REMARK                         _______ _______ _______ _____ _____    ______ ____
ROOT
ATOM      1  C   UNL     1       5.310   4.143  18.007  0.00  0.00    +0.000 A 
ATOM      2  C   UNL     1       4.497   3.944  16.872  0.00  0.00    +0.000 A 
ATOM      3 CL   UNL     1       2.834   3.480  17.027  0.00  0.00    +0.000 Cl
ATOM      4  C   UNL     1       4.997   4.101  15.572  0.00  0.00    +0.000 A 
ATOM      5  C   UNL     1       6.326   4.473  15.384  0.00  0.00    +0.000 A 
ATOM      6  C   UNL     1       7.133   4.695  16.506  0.00  0.00    +0.000 A 
ATOM      7  C   UNL     1       6.637   4.561  17.812  0.00  0.00    +0.000 A 
ENDROOT
BRANCH   5   8
ATOM      8  C   UNL     1       6.960   4.665  14.048  0.00  0.00    +0.000 C 
ATOM      9  N   UNL     1       6.545   3.895  13.002  0.00  0.00    +0.000 N 
ATOM     10  O   UNL     1       7.837   5.503  13.877  0.00  0.00    +0.000 OA
ATOM     11  H   UNL     1       5.817   3.200  13.032  0.00  0.00    +0.000 HD
ATOM     12  H   UNL     1       6.990   4.072  12.110  0.00  0.00    +0.000 HD
ENDBRANCH   5   8
BRANCH   7  13
ATOM     13  O   UNL     1       7.430   4.805  18.904  0.00  0.00    +0.000 OA
ATOM     14  C   UNL     1       7.920   6.134  19.062  0.00  0.00    +0.000 C 
ENDBRANCH   7  13
BRANCH   1  15
ATOM     15  O   UNL     1       4.689   3.956  19.222  0.00  0.00    +0.000 OA
BRANCH  15  16
ATOM     16  C   UNL     1       4.003   5.075  19.787  0.00  0.00    +0.000 C 
BRANCH  16  18
ATOM     17  C   UNL     1       1.669   5.455  20.600  0.00  0.00    +0.000 C 
ATOM     18  C   UNL     1       2.699   4.614  20.401  0.00  0.00    +0.000 C 
ATOM     19  C   UNL     1       2.627   3.176  20.832  0.00  0.00    +0.000 C 
ENDBRANCH  16  18
ENDBRANCH  15  16
ENDBRANCH   1  15
TORSDOF 5
ENDMDL
MODEL 7
REMARK VINA RESULT:      -6.6      2.120      2.748
REMARK  Name = 
REMARK  7 active torsions:
REMARK  status: ('A' for Active; 'I' for Inactive)
REMARK    1  A    between atoms: C_2  and  C_3
REMARK    2  A    between atoms: C_2  and  C_4
REMARK    3  A    between atoms: C_4  and  O_5
REMARK    4  A    between atoms: O_5  and  C_6
REMARK    5  A    between atoms: C_10  and  C_11
REMARK    6  A    between atoms: C_15  and  O_16
REMARK    7  A    between atoms: O_16  and  C_17
REMARK                            x       y       z     vdW  Elec       q    Type
REMARK                         _______ _______ _______ _____ _____    ______ ____
ROOT
ATOM      1  C   UNL     1       3.038   5.031  17.860  0.00  0.00    +0.000 A 
ATOM      2  C   UNL     1       3.507   6.360  17.815  0.00  0.00    +0.000 A 
ATOM      3 CL   UNL     1       2.546   7.673  18.413  0.00  0.00    +0.000 Cl
ATOM      4  C   UNL     1       4.760   6.681  17.277  0.00  0.00    +0.000 A 
ATOM      5  C   UNL     1       5.578   5.669  16.780  0.00  0.00    +0.000 A 
ATOM      6  C   UNL     1       5.130   4.344  16.843  0.00  0.00    +0.000 A 
ATOM      7  C   UNL     1       3.886   4.009  17.398  0.00  0.00    +0.000 A 
ENDROOT
BRANCH   5   8
ATOM      8  C   UNL     1       6.926   5.897  16.185  0.00  0.00    +0.000 C 
ATOM      9  N   UNL     1       7.321   5.130  15.128  0.00  0.00    +0.000 N 
ATOM     10  O   UNL     1       7.675   6.762  16.623  0.00  0.00    +0.000 OA
ATOM     11  H   UNL     1       6.772   4.414  14.680  0.00  0.00    +0.000 HD
ATOM     12  H   UNL     1       8.236   5.332  14.745  0.00  0.00    +0.000 HD
ENDBRANCH   5   8
BRANCH   7  13
ATOM     13  O   UNL     1       3.467   2.706  17.477  0.00  0.00    +0.000 OA
ATOM     14  C   UNL     1       4.005   1.918  18.536  0.00  0.00    +0.000 C 
ENDBRANCH   7  13
BRANCH   1  15
ATOM     15  O   UNL     1       1.790   4.860  18.416  0.00  0.00    +0.000 OA
BRANCH  15  16
ATOM     16  C   UNL     1       1.723   4.673  19.830  0.00  0.00    +0.000 C 
BRANCH  16  18
ATOM     17  C   UNL     1       0.483   2.588  19.224  0.00  0.00    +0.000 C 
ATOM     18  C   UNL     1       1.174   3.296  20.135  0.00  0.00    +0.000 C 
ATOM     19  C   UNL     1       1.390   2.777  21.529  0.00  0.00    +0.000 C 
ENDBRANCH  16  18
ENDBRANCH  15  16
ENDBRANCH   1  15
TORSDOF 5
ENDMDL
MODEL 8
REMARK VINA RESULT:      -6.6      1.967      2.275
REMARK  Name = 
REMARK  7 active torsions:
REMARK  status: ('A' for Active; 'I' for Inactive)
REMARK    1  A    between atoms: C_2  and  C_3
REMARK    2  A    between atoms: C_2  and  C_4
REMARK    3  A    between atoms: C_4  and  O_5
REMARK    4  A    between atoms: O_5  and  C_6
REMARK    5  A    between atoms: C_10  and  C_11
REMARK    6  A    between atoms: C_15  and  O_16
REMARK    7  A    between atoms: O_16  and  C_17
REMARK                            x       y       z     vdW  Elec       q    Type
REMARK                         _______ _______ _______ _____ _____    ______ ____
ROOT
ATOM      1  C   UNL     1       3.770   4.927  18.023  0.00  0.00    +0.000 A 
ATOM      2  C   UNL     1       4.133   6.081  17.299  0.00  0.00    +0.000 A 
ATOM      3 CL   UNL     1       3.462   7.632  17.681  0.00  0.00    +0.000 Cl
ATOM      4  C   UNL     1       5.043   6.025  16.234  0.00  0.00    +0.000 A 
ATOM      5  C   UNL     1       5.617   4.806  15.879  0.00  0.00    +0.000 A 
ATOM      6  C   UNL     1       5.278   3.660  16.609  0.00  0.00    +0.000 A 
ATOM      7  C   UNL     1       4.386   3.708  17.690  0.00  0.00    +0.000 A 
ENDROOT
BRANCH   5   8
ATOM      8  C   UNL     1       6.591   4.632  14.764  0.00  0.00    +0.000 C 
ATOM      9  N   UNL     1       6.377   3.646  13.847  0.00  0.00    +0.000 N 
ATOM     10  O   UNL     1       7.570   5.361  14.657  0.00  0.00    +0.000 OA
ATOM     11  H   UNL     1       5.593   3.013  13.831  0.00  0.00    +0.000 HD
ATOM     12  H   UNL     1       7.054   3.576  13.097  0.00  0.00    +0.000 HD
ENDBRANCH   5   8
BRANCH   7  13
ATOM     13  O   UNL     1       4.080   2.584  18.413  0.00  0.00    +0.000 OA
ATOM     14  C   UNL     1       4.626   2.493  19.726  0.00  0.00    +0.000 C 
ENDBRANCH   7  13
BRANCH   1  15
ATOM     15  O   UNL     1       2.868   5.127  19.045  0.00  0.00    +0.000 OA
BRANCH  15  16
ATOM     16  C   UNL     1       1.503   4.790  18.790  0.00  0.00    +0.000 C 
BRANCH  16  18
ATOM     17  C   UNL     1       1.233   3.537  20.937  0.00  0.00    +0.000 C 
ATOM     18  C   UNL     1       1.123   3.567  19.597  0.00  0.00    +0.000 C 
ATOM     19  C   UNL     1       0.667   2.363  18.823  0.00  0.00    +0.000 C 
ENDBRANCH  16  18
ENDBRANCH  15  16
ENDBRANCH   1  15
TORSDOF 5
ENDMDL
MODEL 9
REMARK VINA RESULT:      -6.6      1.802      2.700
REMARK  Name = 
REMARK  7 active torsions:
REMARK  status: ('A' for Active; 'I' for Inactive)
REMARK    1  A    between atoms: C_2  and  C_3
REMARK    2  A    between atoms: C_2  and  C_4
REMARK    3  A    between atoms: C_4  and  O_5
REMARK    4  A    between atoms: O_5  and  C_6
REMARK    5  A    between atoms: C_10  and  C_11
REMARK    6  A    between atoms: C_15  and  O_16
REMARK    7  A    between atoms: O_16  and  C_17
REMARK                            x       y       z     vdW  Elec       q    Type
REMARK                         _______ _______ _______ _____ _____    ______ ____
ROOT
ATOM      1  C   UNL     1       4.997   4.315  18.428  0.00  0.00    +0.000 A 
ATOM      2  C   UNL     1       6.264   4.915  18.277  0.00  0.00    +0.000 A 
ATOM      3 CL   UNL     1       7.116   5.571  19.637  0.00  0.00    +0.000 Cl
ATOM      4  C   UNL     1       6.886   5.016  17.025  0.00  0.00    +0.000 A 
ATOM      5  C   UNL     1       6.251   4.507  15.895  0.00  0.00    +0.000 A 
ATOM      6  C   UNL     1       5.003   3.889  16.040  0.00  0.00    +0.000 A 
ATOM      7  C   UNL     1       4.381   3.762  17.291  0.00  0.00    +0.000 A 
ENDROOT
BRANCH   5   8
ATOM      8  C   UNL     1       6.820   4.563  14.518  0.00  0.00    +0.000 C 
ATOM      9  N   UNL     1       6.403   3.651  13.593  0.00  0.00    +0.000 N 
ATOM     10  O   UNL     1       7.643   5.414  14.206  0.00  0.00    +0.000 OA
ATOM     11  H   UNL     1       5.714   2.931  13.741  0.00  0.00    +0.000 HD
ATOM     12  H   UNL     1       6.802   3.738  12.666  0.00  0.00    +0.000 HD
ENDBRANCH   5   8
BRANCH   7  13
ATOM     13  O   UNL     1       3.170   3.134  17.425  0.00  0.00    +0.000 OA
ATOM     14  C   UNL     1       3.187   1.798  17.920  0.00  0.00    +0.000 C 
ENDBRANCH   7  13
BRANCH   1  15
ATOM     15  O   UNL     1       4.505   4.281  19.714  0.00  0.00    +0.000 OA
BRANCH  15  16
ATOM     16  C   UNL     1       3.305   5.010  19.975  0.00  0.00    +0.000 C 
BRANCH  16  18
ATOM     17  C   UNL     1       2.631   3.170  21.528  0.00  0.00    +0.000 C 
ATOM     18  C   UNL     1       2.284   4.094  20.616  0.00  0.00    +0.000 C 
ATOM     19  C   UNL     1       0.865   4.229  20.140  0.00  0.00    +0.000 C 
ENDBRANCH  16  18
ENDBRANCH  15  16
ENDBRANCH   1  15
TORSDOF 5
ENDMDL
