MODEL 1
REMARK VINA RESULT:      -6.8      0.000      0.000
REMARK  Name = 
REMARK  13 active torsions:
REMARK  status: ('A' for Active; 'I' for Inactive)
REMARK    1  A    between atoms: C_2  and  C_3
REMARK    2  A    between atoms: C_3  and  C_4
REMARK    3  A    between atoms: C_4  and  C_5
REMARK    4  A    between atoms: C_5  and  C_6
REMARK    5  A    between atoms: C_6  and  O_7
REMARK    6  A    between atoms: O_7  and  C_8
REMARK    7  A    between atoms: C_11  and  O_12
REMARK    8  A    between atoms: O_12  and  C_13
REMARK    9  A    between atoms: C_13  and  C_14
REMARK   10  A    between atoms: C_16  and  C_17
REMARK   11  A    between atoms: C_17  and  O_18
REMARK   12  A    between atoms: O_18  and  C_19
REMARK   13  A    between atoms: C_19  and  C_20
REMARK                            x       y       z     vdW  Elec       q    Type
REMARK                         _______ _______ _______ _____ _____    ______ ____
ROOT
ATOM      1  C   UNL     1       4.271   4.361  19.105  0.00  0.00    +0.000 C 
ATOM      2  C   UNL     1       3.650   4.381  17.734  0.00  0.00    +0.000 C 
ATOM      3  C   UNL     1       4.284   4.845  16.645  0.00  0.00    +0.000 C 
ATOM      4  C   UNL     1       5.695   5.360  16.721  0.00  0.00    +0.000 C 
ATOM      5  C   UNL     1       6.137   5.555  18.202  0.00  0.00    +0.000 C 
ATOM      6  O   UNL     1       5.704   4.437  19.010  0.00  0.00    +0.000 OA
ENDROOT
BRANCH   1   7
ATOM      7  O   UNL     1       3.771   5.434  19.900  0.00  0.00    +0.000 OA
BRANCH   7   8
ATOM      8  C   UNL     1       2.452   5.232  20.402  0.00  0.00    +0.000 C 
BRANCH   8   9
ATOM      9  C   UNL     1       2.465   4.097  21.423  0.00  0.00    +0.000 C 
BRANCH   9  10
ATOM     10  C   UNL     1       1.365   3.072  21.128  0.00  0.00    +0.000 C 
BRANCH  10  11
ATOM     11  C   UNL     1       0.550   3.458  19.895  0.00  0.00    +0.000 C 
BRANCH  11  13
ATOM     12  C   UNL     1       1.793   1.591  18.771  0.00  0.00    +0.000 C 
ATOM     13  C   UNL     1       0.818   2.508  18.764  0.00  0.00    +0.000 C 
ENDBRANCH  11  13
ENDBRANCH  10  11
ENDBRANCH   9  10
ENDBRANCH   8   9
ENDBRANCH   7   8
ENDBRANCH   1   7
BRANCH   4  14
ATOM     14  O   UNL     1       6.490   4.355  16.050  0.00  0.00    +0.000 OA
BRANCH  14  15
ATOM     15  C   UNL     1       6.938   4.654  14.803  0.00  0.00    +0.000 C 
ATOM     16  C   UNL     1       6.213   3.847  13.760  0.00  0.00    +0.000 C 
ATOM     17  O   UNL     1       7.791   5.484  14.537  0.00  0.00    +0.000 OA
ENDBRANCH  14  15
ENDBRANCH   4  14
BRANCH   5  18
ATOM     18  C   UNL     1       7.665   5.690  18.315  0.00  0.00    +0.000 C 
BRANCH  18  19
ATOM     19  O   UNL     1       8.084   6.969  18.846  0.00  0.00    +0.000 OA
BRANCH  19  20
ATOM     20  C   UNL     1       8.073   8.006  17.971  0.00  0.00    +0.000 C 
ATOM     21  C   UNL     1       8.632   9.257  18.588  0.00  0.00    +0.000 C 
ATOM     22  O   UNL     1       7.715   7.933  16.804  0.00  0.00    +0.000 OA
ENDBRANCH  19  20
ENDBRANCH  18  19
ENDBRANCH   5  18
TORSDOF 11
ENDMDL
MODEL 2
REMARK VINA RESULT:      -6.6      2.108      7.343
REMARK  Name = 
REMARK  13 active torsions:
REMARK  status: ('A' for Active; 'I' for Inactive)
REMARK    1  A    between atoms: C_2  and  C_3
REMARK    2  A    between atoms: C_3  and  C_4
REMARK    3  A    between atoms: C_4  and  C_5
REMARK    4  A    between atoms: C_5  and  C_6
REMARK    5  A    between atoms: C_6  and  O_7
REMARK    6  A    between atoms: O_7  and  C_8
REMARK    7  A    between atoms: C_11  and  O_12
REMARK    8  A    between atoms: O_12  and  C_13
REMARK    9  A    between atoms: C_13  and  C_14
REMARK   10  A    between atoms: C_16  and  C_17
REMARK   11  A    between atoms: C_17  and  O_18
REMARK   12  A    between atoms: O_18  and  C_19
REMARK   13  A    between atoms: C_19  and  C_20
REMARK                            x       y       z     vdW  Elec       q    Type
REMARK                         _______ _______ _______ _____ _____    ______ ____
ROOT
ATOM      1  C   UNL     1       7.423   5.996  17.501  0.00  0.00    +0.000 C 
ATOM      2  C   UNL     1       6.099   6.132  18.203  0.00  0.00    +0.000 C 
ATOM      3  C   UNL     1       4.954   5.619  17.725  0.00  0.00    +0.000 C 
ATOM      4  C   UNL     1       4.924   4.836  16.441  0.00  0.00    +0.000 C 
ATOM      5  C   UNL     1       6.266   4.990  15.663  0.00  0.00    +0.000 C 
ATOM      6  O   UNL     1       7.389   4.899  16.571  0.00  0.00    +0.000 OA
ENDROOT
BRANCH   1   7
ATOM      7  O   UNL     1       7.762   7.205  16.826  0.00  0.00    +0.000 OA
BRANCH   7   8
ATOM      8  C   UNL     1       7.416   8.393  17.535  0.00  0.00    +0.000 C 
BRANCH   8   9
ATOM      9  C   UNL     1       8.587   8.817  18.418  0.00  0.00    +0.000 C 
BRANCH   9  10
ATOM     10  C   UNL     1       8.831  10.326  18.329  0.00  0.00    +0.000 C 
BRANCH  10  11
ATOM     11  C   UNL     1       9.731  10.819  19.461  0.00  0.00    +0.000 C 
BRANCH  11  13
ATOM     12  C   UNL     1      11.048  11.995  17.678  0.00  0.00    +0.000 C 
ATOM     13  C   UNL     1      10.961  11.480  18.911  0.00  0.00    +0.000 C 
ENDBRANCH  11  13
ENDBRANCH  10  11
ENDBRANCH   9  10
ENDBRANCH   8   9
ENDBRANCH   7   8
ENDBRANCH   1   7
BRANCH   4  14
ATOM     14  O   UNL     1       4.695   3.467  16.850  0.00  0.00    +0.000 OA
BRANCH  14  15
ATOM     15  C   UNL     1       3.479   3.178  17.384  0.00  0.00    +0.000 C 
ATOM     16  C   UNL     1       3.617   2.608  18.769  0.00  0.00    +0.000 C 
ATOM     17  O   UNL     1       2.403   3.376  16.843  0.00  0.00    +0.000 OA
ENDBRANCH  14  15
ENDBRANCH   4  14
BRANCH   5  18
ATOM     18  C   UNL     1       6.410   3.908  14.580  0.00  0.00    +0.000 C 
BRANCH  18  19
ATOM     19  O   UNL     1       5.334   3.925  13.614  0.00  0.00    +0.000 OA
BRANCH  19  20
ATOM     20  C   UNL     1       5.621   3.399  12.397  0.00  0.00    +0.000 C 
ATOM     21  C   UNL     1       4.392   3.275  11.543  0.00  0.00    +0.000 C 
ATOM     22  O   UNL     1       6.745   3.117  12.005  0.00  0.00    +0.000 OA
ENDBRANCH  19  20
ENDBRANCH  18  19
ENDBRANCH   5  18
TORSDOF 11
ENDMDL
MODEL 3
REMARK VINA RESULT:      -6.5      1.920      6.618
REMARK  Name = 
REMARK  13 active torsions:
REMARK  status: ('A' for Active; 'I' for Inactive)
REMARK    1  A    between atoms: C_2  and  C_3
REMARK    2  A    between atoms: C_3  and  C_4
REMARK    3  A    between atoms: C_4  and  C_5
REMARK    4  A    between atoms: C_5  and  C_6
REMARK    5  A    between atoms: C_6  and  O_7
REMARK    6  A    between atoms: O_7  and  C_8
REMARK    7  A    between atoms: C_11  and  O_12
REMARK    8  A    between atoms: O_12  and  C_13
REMARK    9  A    between atoms: C_13  and  C_14
REMARK   10  A    between atoms: C_16  and  C_17
REMARK   11  A    between atoms: C_17  and  O_18
REMARK   12  A    between atoms: O_18  and  C_19
REMARK   13  A    between atoms: C_19  and  C_20
REMARK                            x       y       z     vdW  Elec       q    Type
REMARK                         _______ _______ _______ _____ _____    ______ ____
ROOT
ATOM      1  C   UNL     1       7.175   5.169  17.530  0.00  0.00    +0.000 C 
ATOM      2  C   UNL     1       6.462   6.464  17.248  0.00  0.00    +0.000 C 
ATOM      3  C   UNL     1       5.150   6.646  17.465  0.00  0.00    +0.000 C 
ATOM      4  C   UNL     1       4.293   5.551  18.040  0.00  0.00    +0.000 C 
ATOM      5  C   UNL     1       5.051   4.190  18.032  0.00  0.00    +0.000 C 
ATOM      6  O   UNL     1       6.421   4.371  18.458  0.00  0.00    +0.000 OA
ENDROOT
BRANCH   1   7
ATOM      7  O   UNL     1       7.397   4.444  16.322  0.00  0.00    +0.000 OA
BRANCH   7   8
ATOM      8  C   UNL     1       7.051   5.155  15.135  0.00  0.00    +0.000 C 
BRANCH   8   9
ATOM      9  C   UNL     1       5.846   4.489  14.477  0.00  0.00    +0.000 C 
BRANCH   9  10
ATOM     10  C   UNL     1       6.281   3.373  13.522  0.00  0.00    +0.000 C 
BRANCH  10  11
ATOM     11  C   UNL     1       5.945   3.710  12.071  0.00  0.00    +0.000 C 
BRANCH  11  13
ATOM     12  C   UNL     1       3.761   3.266  10.917  0.00  0.00    +0.000 C 
ATOM     13  C   UNL     1       4.848   2.821  11.561  0.00  0.00    +0.000 C 
ENDBRANCH  11  13
ENDBRANCH  10  11
ENDBRANCH   9  10
ENDBRANCH   8   9
ENDBRANCH   7   8
ENDBRANCH   1   7
BRANCH   4  14
ATOM     14  O   UNL     1       3.991   5.989  19.386  0.00  0.00    +0.000 OA
BRANCH  14  15
ATOM     15  C   UNL     1       2.754   6.510  19.602  0.00  0.00    +0.000 C 
ATOM     16  C   UNL     1       1.965   5.653  20.554  0.00  0.00    +0.000 C 
ATOM     17  O   UNL     1       2.329   7.548  19.123  0.00  0.00    +0.000 OA
ENDBRANCH  14  15
ENDBRANCH   4  14
BRANCH   5  18
ATOM     18  C   UNL     1       4.371   3.167  18.958  0.00  0.00    +0.000 C 
BRANCH  18  19
ATOM     19  O   UNL     1       3.408   2.333  18.273  0.00  0.00    +0.000 OA
BRANCH  19  20
ATOM     20  C   UNL     1       2.113   2.495  18.643  0.00  0.00    +0.000 C 
ATOM     21  C   UNL     1       1.415   3.510  17.784  0.00  0.00    +0.000 C 
ATOM     22  O   UNL     1       1.552   1.857  19.522  0.00  0.00    +0.000 OA
ENDBRANCH  19  20
ENDBRANCH  18  19
ENDBRANCH   5  18
TORSDOF 11
ENDMDL
MODEL 4
REMARK VINA RESULT:      -6.5      1.973      6.644
REMARK  Name = 
REMARK  13 active torsions:
REMARK  status: ('A' for Active; 'I' for Inactive)
REMARK    1  A    between atoms: C_2  and  C_3
REMARK    2  A    between atoms: C_3  and  C_4
REMARK    3  A    between atoms: C_4  and  C_5
REMARK    4  A    between atoms: C_5  and  C_6
REMARK    5  A    between atoms: C_6  and  O_7
REMARK    6  A    between atoms: O_7  and  C_8
REMARK    7  A    between atoms: C_11  and  O_12
REMARK    8  A    between atoms: O_12  and  C_13
REMARK    9  A    between atoms: C_13  and  C_14
REMARK   10  A    between atoms: C_16  and  C_17
REMARK   11  A    between atoms: C_17  and  O_18
REMARK   12  A    between atoms: O_18  and  C_19
REMARK   13  A    between atoms: C_19  and  C_20
REMARK                            x       y       z     vdW  Elec       q    Type
REMARK                         _______ _______ _______ _____ _____    ______ ____
ROOT
ATOM      1  C   UNL     1       7.185   5.254  17.369  0.00  0.00    +0.000 C 
ATOM      2  C   UNL     1       6.341   6.409  16.901  0.00  0.00    +0.000 C 
ATOM      3  C   UNL     1       5.029   6.517  17.161  0.00  0.00    +0.000 C 
ATOM      4  C   UNL     1       4.305   5.481  17.978  0.00  0.00    +0.000 C 
ATOM      5  C   UNL     1       5.186   4.210  18.171  0.00  0.00    +0.000 C 
ATOM      6  O   UNL     1       6.551   4.583  18.472  0.00  0.00    +0.000 OA
ENDROOT
BRANCH   1   7
ATOM      7  O   UNL     1       7.419   4.336  16.303  0.00  0.00    +0.000 OA
BRANCH   7   8
ATOM      8  C   UNL     1       7.151   4.861  15.004  0.00  0.00    +0.000 C 
BRANCH   8   9
ATOM      9  C   UNL     1       6.256   3.890  14.239  0.00  0.00    +0.000 C 
BRANCH   9  10
ATOM     10  C   UNL     1       6.600   3.875  12.746  0.00  0.00    +0.000 C 
BRANCH  10  11
ATOM     11  C   UNL     1       5.741   2.872  11.979  0.00  0.00    +0.000 C 
BRANCH  11  13
ATOM     12  C   UNL     1       3.652   3.396  10.693  0.00  0.00    +0.000 C 
ATOM     13  C   UNL     1       4.333   3.373  11.845  0.00  0.00    +0.000 C 
ENDBRANCH  11  13
ENDBRANCH  10  11
ENDBRANCH   9  10
ENDBRANCH   8   9
ENDBRANCH   7   8
ENDBRANCH   1   7
BRANCH   4  14
ATOM     14  O   UNL     1       4.024   6.136  19.237  0.00  0.00    +0.000 OA
BRANCH  14  15
ATOM     15  C   UNL     1       2.761   6.605  19.420  0.00  0.00    +0.000 C 
ATOM     16  C   UNL     1       2.306   7.412  18.234  0.00  0.00    +0.000 C 
ATOM     17  O   UNL     1       2.059   6.387  20.392  0.00  0.00    +0.000 OA
ENDBRANCH  14  15
ENDBRANCH   4  14
BRANCH   5  18
ATOM     18  C   UNL     1       4.648   3.326  19.309  0.00  0.00    +0.000 C 
BRANCH  18  19
ATOM     19  O   UNL     1       3.206   3.217  19.308  0.00  0.00    +0.000 OA
BRANCH  19  20
ATOM     20  C   UNL     1       2.697   2.078  18.774  0.00  0.00    +0.000 C 
ATOM     21  C   UNL     1       1.196   2.064  18.827  0.00  0.00    +0.000 C 
ATOM     22  O   UNL     1       3.361   1.194  18.251  0.00  0.00    +0.000 OA
ENDBRANCH  19  20
ENDBRANCH  18  19
ENDBRANCH   5  18
TORSDOF 11
ENDMDL
MODEL 5
REMARK VINA RESULT:      -6.3      2.029      6.038
REMARK  Name = 
REMARK  13 active torsions:
REMARK  status: ('A' for Active; 'I' for Inactive)
REMARK    1  A    between atoms: C_2  and  C_3
REMARK    2  A    between atoms: C_3  and  C_4
REMARK    3  A    between atoms: C_4  and  C_5
REMARK    4  A    between atoms: C_5  and  C_6
REMARK    5  A    between atoms: C_6  and  O_7
REMARK    6  A    between atoms: O_7  and  C_8
REMARK    7  A    between atoms: C_11  and  O_12
REMARK    8  A    between atoms: O_12  and  C_13
REMARK    9  A    between atoms: C_13  and  C_14
REMARK   10  A    between atoms: C_16  and  C_17
REMARK   11  A    between atoms: C_17  and  O_18
REMARK   12  A    between atoms: O_18  and  C_19
REMARK   13  A    between atoms: C_19  and  C_20
REMARK                            x       y       z     vdW  Elec       q    Type
REMARK                         _______ _______ _______ _____ _____    ______ ____
ROOT
ATOM      1  C   UNL     1       4.632   4.017  16.329  0.00  0.00    +0.000 C 
ATOM      2  C   UNL     1       3.721   2.885  16.722  0.00  0.00    +0.000 C 
ATOM      3  C   UNL     1       3.495   2.529  17.996  0.00  0.00    +0.000 C 
ATOM      4  C   UNL     1       4.130   3.271  19.140  0.00  0.00    +0.000 C 
ATOM      5  C   UNL     1       5.252   4.224  18.631  0.00  0.00    +0.000 C 
ATOM      6  O   UNL     1       4.823   4.916  17.435  0.00  0.00    +0.000 OA
ENDROOT
BRANCH   1   7
ATOM      7  O   UNL     1       5.889   3.518  15.875  0.00  0.00    +0.000 OA
BRANCH   7   8
ATOM      8  C   UNL     1       6.431   4.217  14.757  0.00  0.00    +0.000 C 
BRANCH   8   9
ATOM      9  C   UNL     1       5.468   4.112  13.577  0.00  0.00    +0.000 C 
BRANCH   9  10
ATOM     10  C   UNL     1       5.976   3.112  12.533  0.00  0.00    +0.000 C 
BRANCH  10  11
ATOM     11  C   UNL     1       5.391   3.394  11.151  0.00  0.00    +0.000 C 
BRANCH  11  13
ATOM     12  C   UNL     1       3.109   3.504  10.114  0.00  0.00    +0.000 C 
ATOM     13  C   UNL     1       3.892   3.324  11.185  0.00  0.00    +0.000 C 
ENDBRANCH  11  13
ENDBRANCH  10  11
ENDBRANCH   9  10
ENDBRANCH   8   9
ENDBRANCH   7   8
ENDBRANCH   1   7
BRANCH   4  14
ATOM     14  O   UNL     1       3.042   4.001  19.754  0.00  0.00    +0.000 OA
BRANCH  14  15
ATOM     15  C   UNL     1       2.285   3.332  20.663  0.00  0.00    +0.000 C 
ATOM     16  C   UNL     1       0.818   3.496  20.371  0.00  0.00    +0.000 C 
ATOM     17  O   UNL     1       2.715   2.656  21.582  0.00  0.00    +0.000 OA
ENDBRANCH  14  15
ENDBRANCH   4  14
BRANCH   5  18
ATOM     18  C   UNL     1       5.629   5.263  19.700  0.00  0.00    +0.000 C 
BRANCH  18  19
ATOM     19  O   UNL     1       7.058   5.412  19.867  0.00  0.00    +0.000 OA
BRANCH  19  20
ATOM     20  C   UNL     1       7.784   5.496  18.724  0.00  0.00    +0.000 C 
ATOM     21  C   UNL     1       7.852   6.908  18.214  0.00  0.00    +0.000 C 
ATOM     22  O   UNL     1       8.369   4.561  18.197  0.00  0.00    +0.000 OA
ENDBRANCH  19  20
ENDBRANCH  18  19
ENDBRANCH   5  18
TORSDOF 11
ENDMDL
MODEL 6
REMARK VINA RESULT:      -6.2      1.548      4.340
REMARK  Name = 
REMARK  13 active torsions:
REMARK  status: ('A' for Active; 'I' for Inactive)
REMARK    1  A    between atoms: C_2  and  C_3
REMARK    2  A    between atoms: C_3  and  C_4
REMARK    3  A    between atoms: C_4  and  C_5
REMARK    4  A    between atoms: C_5  and  C_6
REMARK    5  A    between atoms: C_6  and  O_7
REMARK    6  A    between atoms: O_7  and  C_8
REMARK    7  A    between atoms: C_11  and  O_12
REMARK    8  A    between atoms: O_12  and  C_13
REMARK    9  A    between atoms: C_13  and  C_14
REMARK   10  A    between atoms: C_16  and  C_17
REMARK   11  A    between atoms: C_17  and  O_18
REMARK   12  A    between atoms: O_18  and  C_19
REMARK   13  A    between atoms: C_19  and  C_20
REMARK                            x       y       z     vdW  Elec       q    Type
REMARK                         _______ _______ _______ _____ _____    ______ ____
ROOT
ATOM      1  C   UNL     1       3.769   3.930  17.778  0.00  0.00    +0.000 C 
ATOM      2  C   UNL     1       4.745   4.238  18.882  0.00  0.00    +0.000 C 
ATOM      3  C   UNL     1       6.022   4.587  18.661  0.00  0.00    +0.000 C 
ATOM      4  C   UNL     1       6.567   4.721  17.265  0.00  0.00    +0.000 C 
ATOM      5  C   UNL     1       5.578   4.119  16.222  0.00  0.00    +0.000 C 
ATOM      6  O   UNL     1       4.218   4.500  16.536  0.00  0.00    +0.000 OA
ENDROOT
BRANCH   1   7
ATOM      7  O   UNL     1       3.594   2.522  17.639  0.00  0.00    +0.000 OA
BRANCH   7   8
ATOM      8  C   UNL     1       2.617   1.961  18.514  0.00  0.00    +0.000 C 
BRANCH   8   9
ATOM      9  C   UNL     1       1.398   2.878  18.569  0.00  0.00    +0.000 C 
BRANCH   9  10
ATOM     10  C   UNL     1       0.794   2.916  19.976  0.00  0.00    +0.000 C 
BRANCH  10  11
ATOM     11  C   UNL     1       1.465   3.974  20.849  0.00  0.00    +0.000 C 
BRANCH  11  13
ATOM     12  C   UNL     1       1.842   6.453  20.745  0.00  0.00    +0.000 C 
ATOM     13  C   UNL     1       1.460   5.309  20.163  0.00  0.00    +0.000 C 
ENDBRANCH  11  13
ENDBRANCH  10  11
ENDBRANCH   9  10
ENDBRANCH   8   9
ENDBRANCH   7   8
ENDBRANCH   1   7
BRANCH   4  14
ATOM     14  O   UNL     1       6.747   6.144  17.076  0.00  0.00    +0.000 OA
BRANCH  14  15
ATOM     15  C   UNL     1       7.597   6.777  17.927  0.00  0.00    +0.000 C 
ATOM     16  C   UNL     1       7.677   8.247  17.617  0.00  0.00    +0.000 C 
ATOM     17  O   UNL     1       8.199   6.251  18.847  0.00  0.00    +0.000 OA
ENDBRANCH  14  15
ENDBRANCH   4  14
BRANCH   5  18
ATOM     18  C   UNL     1       5.913   4.592  14.798  0.00  0.00    +0.000 C 
BRANCH  18  19
ATOM     19  O   UNL     1       6.445   3.539  13.961  0.00  0.00    +0.000 OA
BRANCH  19  20
ATOM     20  C   UNL     1       6.389   3.760  12.623  0.00  0.00    +0.000 C 
ATOM     21  C   UNL     1       5.050   3.385  12.055  0.00  0.00    +0.000 C 
ATOM     22  O   UNL     1       7.285   4.261  11.959  0.00  0.00    +0.000 OA
ENDBRANCH  19  20
ENDBRANCH  18  19
ENDBRANCH   5  18
TORSDOF 11
ENDMDL
MODEL 7
REMARK VINA RESULT:      -6.2      1.937      6.600
REMARK  Name = 
REMARK  13 active torsions:
REMARK  status: ('A' for Active; 'I' for Inactive)
REMARK    1  A    between atoms: C_2  and  C_3
REMARK    2  A    between atoms: C_3  and  C_4
REMARK    3  A    between atoms: C_4  and  C_5
REMARK    4  A    between atoms: C_5  and  C_6
REMARK    5  A    between atoms: C_6  and  O_7
REMARK    6  A    between atoms: O_7  and  C_8
REMARK    7  A    between atoms: C_11  and  O_12
REMARK    8  A    between atoms: O_12  and  C_13
REMARK    9  A    between atoms: C_13  and  C_14
REMARK   10  A    between atoms: C_16  and  C_17
REMARK   11  A    between atoms: C_17  and  O_18
REMARK   12  A    between atoms: O_18  and  C_19
REMARK   13  A    between atoms: C_19  and  C_20
REMARK                            x       y       z     vdW  Elec       q    Type
REMARK                         _______ _______ _______ _____ _____    ______ ____
ROOT
ATOM      1  C   UNL     1       6.658   4.759  17.877  0.00  0.00    +0.000 C 
ATOM      2  C   UNL     1       6.297   6.209  17.697  0.00  0.00    +0.000 C 
ATOM      3  C   UNL     1       5.039   6.670  17.767  0.00  0.00    +0.000 C 
ATOM      4  C   UNL     1       3.885   5.751  18.064  0.00  0.00    +0.000 C 
ATOM      5  C   UNL     1       4.320   4.259  17.956  0.00  0.00    +0.000 C 
ATOM      6  O   UNL     1       5.612   4.063  18.576  0.00  0.00    +0.000 OA
ENDROOT
BRANCH   1   7
ATOM      7  O   UNL     1       6.905   4.141  16.615  0.00  0.00    +0.000 OA
BRANCH   7   8
ATOM      8  C   UNL     1       7.173   5.055  15.554  0.00  0.00    +0.000 C 
BRANCH   8   9
ATOM      9  C   UNL     1       5.976   5.100  14.609  0.00  0.00    +0.000 C 
BRANCH   9  10
ATOM     10  C   UNL     1       5.679   3.717  14.021  0.00  0.00    +0.000 C 
BRANCH  10  11
ATOM     11  C   UNL     1       6.441   3.483  12.718  0.00  0.00    +0.000 C 
BRANCH  11  13
ATOM     12  C   UNL     1       4.175   3.280  11.660  0.00  0.00    +0.000 C 
ATOM     13  C   UNL     1       5.500   3.092  11.616  0.00  0.00    +0.000 C 
ENDBRANCH  11  13
ENDBRANCH  10  11
ENDBRANCH   9  10
ENDBRANCH   8   9
ENDBRANCH   7   8
ENDBRANCH   1   7
BRANCH   4  14
ATOM     14  O   UNL     1       3.476   6.096  19.408  0.00  0.00    +0.000 OA
BRANCH  14  15
ATOM     15  C   UNL     1       2.430   6.955  19.534  0.00  0.00    +0.000 C 
ATOM     16  C   UNL     1       1.596   6.618  20.740  0.00  0.00    +0.000 C 
ATOM     17  O   UNL     1       2.197   7.899  18.799  0.00  0.00    +0.000 OA
ENDBRANCH  14  15
ENDBRANCH   4  14
BRANCH   5  18
ATOM     18  C   UNL     1       3.296   3.330  18.630  0.00  0.00    +0.000 C 
BRANCH  18  19
ATOM     19  O   UNL     1       3.639   3.005  19.997  0.00  0.00    +0.000 OA
BRANCH  19  20
ATOM     20  C   UNL     1       2.594   2.839  20.846  0.00  0.00    +0.000 C 
ATOM     21  C   UNL     1       1.277   2.922  20.129  0.00  0.00    +0.000 C 
ATOM     22  O   UNL     1       2.696   2.588  22.039  0.00  0.00    +0.000 OA
ENDBRANCH  19  20
ENDBRANCH  18  19
ENDBRANCH   5  18
TORSDOF 11
ENDMDL
MODEL 8
REMARK VINA RESULT:      -6.2      2.300      6.541
REMARK  Name = 
REMARK  13 active torsions:
REMARK  status: ('A' for Active; 'I' for Inactive)
REMARK    1  A    between atoms: C_2  and  C_3
REMARK    2  A    between atoms: C_3  and  C_4
REMARK    3  A    between atoms: C_4  and  C_5
REMARK    4  A    between atoms: C_5  and  C_6
REMARK    5  A    between atoms: C_6  and  O_7
REMARK    6  A    between atoms: O_7  and  C_8
REMARK    7  A    between atoms: C_11  and  O_12
REMARK    8  A    between atoms: O_12  and  C_13
REMARK    9  A    between atoms: C_13  and  C_14
REMARK   10  A    between atoms: C_16  and  C_17
REMARK   11  A    between atoms: C_17  and  O_18
REMARK   12  A    between atoms: O_18  and  C_19
REMARK   13  A    between atoms: C_19  and  C_20
REMARK                            x       y       z     vdW  Elec       q    Type
REMARK                         _______ _______ _______ _____ _____    ______ ____
ROOT
ATOM      1  C   UNL     1       7.184   5.032  16.836  0.00  0.00    +0.000 C 
ATOM      2  C   UNL     1       6.564   6.359  16.489  0.00  0.00    +0.000 C 
ATOM      3  C   UNL     1       5.266   6.640  16.684  0.00  0.00    +0.000 C 
ATOM      4  C   UNL     1       4.331   5.635  17.300  0.00  0.00    +0.000 C 
ATOM      5  C   UNL     1       4.993   4.225  17.361  0.00  0.00    +0.000 C 
ATOM      6  O   UNL     1       6.369   4.331  17.792  0.00  0.00    +0.000 OA
ENDROOT
BRANCH   1   7
ATOM      7  O   UNL     1       7.363   4.239  15.664  0.00  0.00    +0.000 OA
BRANCH   7   8
ATOM      8  C   UNL     1       6.946   4.870  14.455  0.00  0.00    +0.000 C 
BRANCH   8   9
ATOM      9  C   UNL     1       5.924   3.985  13.747  0.00  0.00    +0.000 C 
BRANCH   9  10
ATOM     10  C   UNL     1       6.400   3.603  12.342  0.00  0.00    +0.000 C 
BRANCH  10  11
ATOM     11  C   UNL     1       5.450   2.609  11.676  0.00  0.00    +0.000 C 
BRANCH  11  13
ATOM     12  C   UNL     1       3.579   3.669  10.383  0.00  0.00    +0.000 C 
ATOM     13  C   UNL     1       4.078   3.200  11.534  0.00  0.00    +0.000 C 
ENDBRANCH  11  13
ENDBRANCH  10  11
ENDBRANCH   9  10
ENDBRANCH   8   9
ENDBRANCH   7   8
ENDBRANCH   1   7
BRANCH   4  14
ATOM     14  O   UNL     1       4.051   6.154  18.621  0.00  0.00    +0.000 OA
BRANCH  14  15
ATOM     15  C   UNL     1       2.792   6.614  18.849  0.00  0.00    +0.000 C 
ATOM     16  C   UNL     1       2.143   5.874  19.986  0.00  0.00    +0.000 C 
ATOM     17  O   UNL     1       2.252   7.525  18.245  0.00  0.00    +0.000 OA
ENDBRANCH  14  15
ENDBRANCH   4  14
BRANCH   5  18
ATOM     18  C   UNL     1       4.238   3.296  18.325  0.00  0.00    +0.000 C 
BRANCH  18  19
ATOM     19  O   UNL     1       4.860   3.202  19.627  0.00  0.00    +0.000 OA
BRANCH  19  20
ATOM     20  C   UNL     1       4.245   2.389  20.522  0.00  0.00    +0.000 C 
ATOM     21  C   UNL     1       5.125   1.239  20.922  0.00  0.00    +0.000 C 
ATOM     22  O   UNL     1       3.139   2.589  21.003  0.00  0.00    +0.000 OA
ENDBRANCH  19  20
ENDBRANCH  18  19
ENDBRANCH   5  18
TORSDOF 11
ENDMDL
MODEL 9
REMARK VINA RESULT:      -6.2      2.157      6.935
REMARK  Name = 
REMARK  13 active torsions:
REMARK  status: ('A' for Active; 'I' for Inactive)
REMARK    1  A    between atoms: C_2  and  C_3
REMARK    2  A    between atoms: C_3  and  C_4
REMARK    3  A    between atoms: C_4  and  C_5
REMARK    4  A    between atoms: C_5  and  C_6
REMARK    5  A    between atoms: C_6  and  O_7
REMARK    6  A    between atoms: O_7  and  C_8
REMARK    7  A    between atoms: C_11  and  O_12
REMARK    8  A    between atoms: O_12  and  C_13
REMARK    9  A    between atoms: C_13  and  C_14
REMARK   10  A    between atoms: C_16  and  C_17
REMARK   11  A    between atoms: C_17  and  O_18
REMARK   12  A    between atoms: O_18  and  C_19
REMARK   13  A    between atoms: C_19  and  C_20
REMARK                            x       y       z     vdW  Elec       q    Type
REMARK                         _______ _______ _______ _____ _____    ______ ____
ROOT
ATOM      1  C   UNL     1       6.444   4.663  17.200  0.00  0.00    +0.000 C 
ATOM      2  C   UNL     1       6.146   6.116  16.944  0.00  0.00    +0.000 C 
ATOM      3  C   UNL     1       4.954   6.679  17.192  0.00  0.00    +0.000 C 
ATOM      4  C   UNL     1       3.820   5.884  17.779  0.00  0.00    +0.000 C 
ATOM      5  C   UNL     1       4.134   4.358  17.743  0.00  0.00    +0.000 C 
ATOM      6  O   UNL     1       5.503   4.114  18.139  0.00  0.00    +0.000 OA
ENDROOT
BRANCH   1   7
ATOM      7  O   UNL     1       6.414   3.921  15.982  0.00  0.00    +0.000 OA
BRANCH   7   8
ATOM      8  C   UNL     1       6.423   4.723  14.803  0.00  0.00    +0.000 C 
BRANCH   8   9
ATOM      9  C   UNL     1       6.395   3.819  13.573  0.00  0.00    +0.000 C 
BRANCH   9  10
ATOM     10  C   UNL     1       5.071   3.955  12.814  0.00  0.00    +0.000 C 
BRANCH  10  11
ATOM     11  C   UNL     1       4.956   2.924  11.693  0.00  0.00    +0.000 C 
BRANCH  11  13
ATOM     12  C   UNL     1       6.258   0.898  10.989  0.00  0.00    +0.000 C 
ATOM     13  C   UNL     1       6.192   2.075  11.625  0.00  0.00    +0.000 C 
ENDBRANCH  11  13
ENDBRANCH  10  11
ENDBRANCH   9  10
ENDBRANCH   8   9
ENDBRANCH   7   8
ENDBRANCH   1   7
BRANCH   4  14
ATOM     14  O   UNL     1       3.689   6.374  19.134  0.00  0.00    +0.000 OA
BRANCH  14  15
ATOM     15  C   UNL     1       2.498   6.933  19.476  0.00  0.00    +0.000 C 
ATOM     16  C   UNL     1       2.142   8.059  18.545  0.00  0.00    +0.000 C 
ATOM     17  O   UNL     1       1.782   6.566  20.392  0.00  0.00    +0.000 OA
ENDBRANCH  14  15
ENDBRANCH   4  14
BRANCH   5  18
ATOM     18  C   UNL     1       3.197   3.574  18.678  0.00  0.00    +0.000 C 
BRANCH  18  19
ATOM     19  O   UNL     1       1.810   3.635  18.273  0.00  0.00    +0.000 OA
BRANCH  19  20
ATOM     20  C   UNL     1       0.949   2.866  18.986  0.00  0.00    +0.000 C 
ATOM     21  C   UNL     1       1.028   3.165  20.456  0.00  0.00    +0.000 C 
ATOM     22  O   UNL     1       0.157   2.071  18.502  0.00  0.00    +0.000 OA
ENDBRANCH  19  20
ENDBRANCH  18  19
ENDBRANCH   5  18
TORSDOF 11
ENDMDL
