MODEL 1
REMARK VINA RESULT:      -6.8      0.000      0.000
REMARK  Name = 
REMARK  5 active torsions:
REMARK  status: ('A' for Active; 'I' for Inactive)
REMARK    1  A    between atoms: O_1  and  C_2
REMARK    2  A    between atoms: C_8  and  C_9
REMARK    3  A    between atoms: C_9  and  N_10
REMARK    4  A    between atoms: N_13  and  C_14
REMARK    5  A    between atoms: C_14  and  C_15
REMARK                            x       y       z     vdW  Elec       q    Type
REMARK                         _______ _______ _______ _____ _____    ______ ____
ROOT
ATOM      1  N   UNL     1       3.605   6.061  18.740  0.00  0.00    +0.000 NA
ATOM      2  C   UNL     1       3.469   4.600  18.628  0.00  0.00    +0.000 C 
ATOM      3  C   UNL     1       3.643   3.935  17.229  0.00  0.00    +0.000 C 
ATOM      4  N   UNL     1       4.480   4.577  16.195  0.00  0.00    +0.000 NA
ATOM      5  C   UNL     1       4.666   6.018  16.426  0.00  0.00    +0.000 C 
ATOM      6  C   UNL     1       4.757   6.463  17.904  0.00  0.00    +0.000 C 
ENDROOT
BRANCH   1   7
ATOM      7  C   UNL     1       2.390   6.797  18.332  0.00  0.00    +0.000 C 
BRANCH   7  14
ATOM      8  C   UNL     1       1.668   7.670  20.585  0.00  0.00    +0.000 A 
ATOM      9  C   UNL     1       1.070   8.615  21.428  0.00  0.00    +0.000 A 
ATOM     10  C   UNL     1       0.741   9.867  20.928  0.00  0.00    +0.000 A 
ATOM     11  C   UNL     1       1.013  10.172  19.595  0.00  0.00    +0.000 A 
ATOM     12 BR   UNL     1       0.633  11.908  18.949  0.00  0.00    +0.000 Br
ATOM     13  C   UNL     1       1.569   9.204  18.739  0.00  0.00    +0.000 A 
ATOM     14  C   UNL     1       1.909   7.939  19.226  0.00  0.00    +0.000 A 
BRANCH   8  15
ATOM     15  O   UNL     1       2.014   6.450  21.094  0.00  0.00    +0.000 OA
ATOM     16  H   UNL     1       2.233   5.857  20.353  0.00  0.00    +0.000 HD
ENDBRANCH   8  15
ENDBRANCH   7  14
ENDBRANCH   1   7
BRANCH   4  17
ATOM     17  C   UNL     1       5.760   3.893  15.947  0.00  0.00    +0.000 C 
BRANCH  17  18
ATOM     18  C   UNL     1       6.291   4.023  14.531  0.00  0.00    +0.000 A 
ATOM     19  C   UNL     1       5.745   3.297  13.459  0.00  0.00    +0.000 A 
ATOM     20  C   UNL     1       6.223   3.487  12.152  0.00  0.00    +0.000 A 
ATOM     21  C   UNL     1       7.241   4.406  11.903  0.00  0.00    +0.000 A 
ATOM     22  C   UNL     1       7.789   5.132  12.958  0.00  0.00    +0.000 A 
ATOM     23  C   UNL     1       7.311   4.937  14.252  0.00  0.00    +0.000 A 
ATOM     24  F   UNL     1       7.850   5.660  15.243  0.00  0.00    +0.000 F 
ENDBRANCH  17  18
ENDBRANCH   4  17
TORSDOF 5
ENDMDL
MODEL 2
REMARK VINA RESULT:      -6.8      4.392      8.279
REMARK  Name = 
REMARK  5 active torsions:
REMARK  status: ('A' for Active; 'I' for Inactive)
REMARK    1  A    between atoms: O_1  and  C_2
REMARK    2  A    between atoms: C_8  and  C_9
REMARK    3  A    between atoms: C_9  and  N_10
REMARK    4  A    between atoms: N_13  and  C_14
REMARK    5  A    between atoms: C_14  and  C_15
REMARK                            x       y       z     vdW  Elec       q    Type
REMARK                         _______ _______ _______ _____ _____    ______ ____
ROOT
ATOM      1  N   UNL     1       6.738   5.972  16.092  0.00  0.00    +0.000 NA
ATOM      2  C   UNL     1       5.273   5.883  15.981  0.00  0.00    +0.000 C 
ATOM      3  C   UNL     1       4.500   4.958  16.969  0.00  0.00    +0.000 C 
ATOM      4  N   UNL     1       5.056   4.662  18.305  0.00  0.00    +0.000 NA
ATOM      5  C   UNL     1       6.510   4.875  18.378  0.00  0.00    +0.000 C 
ATOM      6  C   UNL     1       7.068   6.043  17.531  0.00  0.00    +0.000 C 
ENDROOT
BRANCH   1   7
ATOM      7  C   UNL     1       7.445   4.841  15.456  0.00  0.00    +0.000 C 
BRANCH   7  14
ATOM      8  C   UNL     1       7.978   5.348  13.042  0.00  0.00    +0.000 A 
ATOM      9  C   UNL     1       7.713   5.309  11.668  0.00  0.00    +0.000 A 
ATOM     10  C   UNL     1       6.704   4.486  11.187  0.00  0.00    +0.000 A 
ATOM     11  C   UNL     1       5.968   3.705  12.077  0.00  0.00    +0.000 A 
ATOM     12 BR   UNL     1       4.652   2.528  11.401  0.00  0.00    +0.000 Br
ATOM     13  C   UNL     1       6.204   3.782  13.462  0.00  0.00    +0.000 A 
ATOM     14  C   UNL     1       7.218   4.603  13.962  0.00  0.00    +0.000 A 
BRANCH   8  15
ATOM     15  O   UNL     1       8.992   6.140  13.502  0.00  0.00    +0.000 OA
ATOM     16  H   UNL     1       9.501   6.464  12.737  0.00  0.00    +0.000 HD
ENDBRANCH   8  15
ENDBRANCH   7  14
ENDBRANCH   1   7
BRANCH   4  17
ATOM     17  C   UNL     1       4.349   5.327  19.412  0.00  0.00    +0.000 C 
BRANCH  17  18
ATOM     18  C   UNL     1       3.168   4.557  19.972  0.00  0.00    +0.000 A 
ATOM     19  C   UNL     1       1.871   5.097  20.004  0.00  0.00    +0.000 A 
ATOM     20  C   UNL     1       0.790   4.333  20.475  0.00  0.00    +0.000 A 
ATOM     21  C   UNL     1       0.994   3.024  20.909  0.00  0.00    +0.000 A 
ATOM     22  C   UNL     1       2.275   2.478  20.881  0.00  0.00    +0.000 A 
ATOM     23  C   UNL     1       3.341   3.242  20.414  0.00  0.00    +0.000 A 
ATOM     24  F   UNL     1       4.559   2.684  20.388  0.00  0.00    +0.000 F 
ENDBRANCH  17  18
ENDBRANCH   4  17
TORSDOF 5
ENDMDL
MODEL 3
REMARK VINA RESULT:      -6.7      4.096      8.093
REMARK  Name = 
REMARK  5 active torsions:
REMARK  status: ('A' for Active; 'I' for Inactive)
REMARK    1  A    between atoms: O_1  and  C_2
REMARK    2  A    between atoms: C_8  and  C_9
REMARK    3  A    between atoms: C_9  and  N_10
REMARK    4  A    between atoms: N_13  and  C_14
REMARK    5  A    between atoms: C_14  and  C_15
REMARK                            x       y       z     vdW  Elec       q    Type
REMARK                         _______ _______ _______ _____ _____    ______ ____
ROOT
ATOM      1  N   UNL     1       5.223   3.954  16.802  0.00  0.00    +0.000 NA
ATOM      2  C   UNL     1       5.252   3.793  18.265  0.00  0.00    +0.000 C 
ATOM      3  C   UNL     1       4.986   5.039  19.163  0.00  0.00    +0.000 C 
ATOM      4  N   UNL     1       4.163   6.159  18.662  0.00  0.00    +0.000 NA
ATOM      5  C   UNL     1       4.087   6.199  17.193  0.00  0.00    +0.000 C 
ATOM      6  C   UNL     1       4.076   4.828  16.477  0.00  0.00    +0.000 C 
ENDROOT
BRANCH   1   7
ATOM      7  C   UNL     1       6.473   4.516  16.249  0.00  0.00    +0.000 C 
BRANCH   7  14
ATOM      8  C   UNL     1       7.606   5.261  14.122  0.00  0.00    +0.000 A 
ATOM      9  C   UNL     1       7.761   5.289  12.731  0.00  0.00    +0.000 A 
ATOM     10  C   UNL     1       7.065   4.381  11.945  0.00  0.00    +0.000 A 
ATOM     11  C   UNL     1       6.223   3.449  12.550  0.00  0.00    +0.000 A 
ATOM     12 BR   UNL     1       5.343   2.166  11.475  0.00  0.00    +0.000 Br
ATOM     13  C   UNL     1       6.032   3.454  13.943  0.00  0.00    +0.000 A 
ATOM     14  C   UNL     1       6.727   4.360  14.749  0.00  0.00    +0.000 A 
BRANCH   8  15
ATOM     15  O   UNL     1       8.318   6.140  14.888  0.00  0.00    +0.000 OA
ATOM     16  H   UNL     1       9.062   6.479  14.358  0.00  0.00    +0.000 HD
ENDBRANCH   8  15
ENDBRANCH   7  14
ENDBRANCH   1   7
BRANCH   4  17
ATOM     17  C   UNL     1       2.830   6.250  19.281  0.00  0.00    +0.000 C 
BRANCH  17  18
ATOM     18  C   UNL     1       2.287   4.942  19.829  0.00  0.00    +0.000 A 
ATOM     19  C   UNL     1       2.508   4.540  21.157  0.00  0.00    +0.000 A 
ATOM     20  C   UNL     1       1.941   3.352  21.646  0.00  0.00    +0.000 A 
ATOM     21  C   UNL     1       1.144   2.562  20.819  0.00  0.00    +0.000 A 
ATOM     22  C   UNL     1       0.918   2.952  19.501  0.00  0.00    +0.000 A 
ATOM     23  C   UNL     1       1.484   4.131  19.023  0.00  0.00    +0.000 A 
ATOM     24  F   UNL     1       1.237   4.485  17.754  0.00  0.00    +0.000 F 
ENDBRANCH  17  18
ENDBRANCH   4  17
TORSDOF 5
ENDMDL
MODEL 4
REMARK VINA RESULT:      -6.5      4.495      8.267
REMARK  Name = 
REMARK  5 active torsions:
REMARK  status: ('A' for Active; 'I' for Inactive)
REMARK    1  A    between atoms: O_1  and  C_2
REMARK    2  A    between atoms: C_8  and  C_9
REMARK    3  A    between atoms: C_9  and  N_10
REMARK    4  A    between atoms: N_13  and  C_14
REMARK    5  A    between atoms: C_14  and  C_15
REMARK                            x       y       z     vdW  Elec       q    Type
REMARK                         _______ _______ _______ _____ _____    ______ ____
ROOT
ATOM      1  N   UNL     1       6.952   5.968  16.274  0.00  0.00    +0.000 NA
ATOM      2  C   UNL     1       5.559   6.209  15.863  0.00  0.00    +0.000 C 
ATOM      3  C   UNL     1       4.428   5.353  16.509  0.00  0.00    +0.000 C 
ATOM      4  N   UNL     1       4.603   4.779  17.859  0.00  0.00    +0.000 NA
ATOM      5  C   UNL     1       6.017   4.666  18.252  0.00  0.00    +0.000 C 
ATOM      6  C   UNL     1       6.954   5.784  17.741  0.00  0.00    +0.000 C 
ENDROOT
BRANCH   1   7
ATOM      7  C   UNL     1       7.567   4.801  15.607  0.00  0.00    +0.000 C 
BRANCH   7  14
ATOM      8  C   UNL     1       8.056   5.388  13.203  0.00  0.00    +0.000 A 
ATOM      9  C   UNL     1       7.766   5.397  11.833  0.00  0.00    +0.000 A 
ATOM     10  C   UNL     1       6.747   4.591  11.344  0.00  0.00    +0.000 A 
ATOM     11  C   UNL     1       6.027   3.781  12.220  0.00  0.00    +0.000 A 
ATOM     12 BR   UNL     1       4.697   2.629  11.529  0.00  0.00    +0.000 Br
ATOM     13  C   UNL     1       6.289   3.811  13.602  0.00  0.00    +0.000 A 
ATOM     14  C   UNL     1       7.313   4.614  14.111  0.00  0.00    +0.000 A 
BRANCH   8  15
ATOM     15  O   UNL     1       9.080   6.164  13.670  0.00  0.00    +0.000 OA
ATOM     16  H   UNL     1       8.786   7.093  13.674  0.00  0.00    +0.000 HD
ENDBRANCH   8  15
ENDBRANCH   7  14
ENDBRANCH   1   7
BRANCH   4  17
ATOM     17  C   UNL     1       3.797   5.436  18.902  0.00  0.00    +0.000 C 
BRANCH  17  18
ATOM     18  C   UNL     1       2.851   4.516  19.653  0.00  0.00    +0.000 A 
ATOM     19  C   UNL     1       3.062   4.163  20.997  0.00  0.00    +0.000 A 
ATOM     20  C   UNL     1       2.134   3.358  21.678  0.00  0.00    +0.000 A 
ATOM     21  C   UNL     1       0.986   2.908  21.027  0.00  0.00    +0.000 A 
ATOM     22  C   UNL     1       0.767   3.252  19.696  0.00  0.00    +0.000 A 
ATOM     23  C   UNL     1       1.692   4.050  19.027  0.00  0.00    +0.000 A 
ATOM     24  F   UNL     1       1.445   4.374  17.750  0.00  0.00    +0.000 F 
ENDBRANCH  17  18
ENDBRANCH   4  17
TORSDOF 5
ENDMDL
MODEL 5
REMARK VINA RESULT:      -6.5      3.840      8.458
REMARK  Name = 
REMARK  5 active torsions:
REMARK  status: ('A' for Active; 'I' for Inactive)
REMARK    1  A    between atoms: O_1  and  C_2
REMARK    2  A    between atoms: C_8  and  C_9
REMARK    3  A    between atoms: C_9  and  N_10
REMARK    4  A    between atoms: N_13  and  C_14
REMARK    5  A    between atoms: C_14  and  C_15
REMARK                            x       y       z     vdW  Elec       q    Type
REMARK                         _______ _______ _______ _____ _____    ______ ____
ROOT
ATOM      1  N   UNL     1       2.634   4.582  18.523  0.00  0.00    +0.000 NA
ATOM      2  C   UNL     1       1.692   4.808  19.631  0.00  0.00    +0.000 C 
ATOM      3  C   UNL     1       1.788   6.139  20.437  0.00  0.00    +0.000 C 
ATOM      4  N   UNL     1       2.332   7.359  19.805  0.00  0.00    +0.000 NA
ATOM      5  C   UNL     1       3.178   7.067  18.637  0.00  0.00    +0.000 C 
ATOM      6  C   UNL     1       2.753   5.854  17.778  0.00  0.00    +0.000 C 
ENDROOT
BRANCH   1   7
ATOM      7  C   UNL     1       3.965   4.119  18.969  0.00  0.00    +0.000 C 
BRANCH   7  14
ATOM      8  C   UNL     1       6.343   4.802  18.475  0.00  0.00    +0.000 A 
ATOM      9  C   UNL     1       7.400   5.118  17.613  0.00  0.00    +0.000 A 
ATOM     10  C   UNL     1       7.280   4.854  16.256  0.00  0.00    +0.000 A 
ATOM     11  C   UNL     1       6.110   4.276  15.766  0.00  0.00    +0.000 A 
ATOM     12 BR   UNL     1       5.992   3.848  13.928  0.00  0.00    +0.000 Br
ATOM     13  C   UNL     1       5.031   4.004  16.626  0.00  0.00    +0.000 A 
ATOM     14  C   UNL     1       5.136   4.261  17.996  0.00  0.00    +0.000 A 
BRANCH   8  15
ATOM     15  O   UNL     1       6.482   5.039  19.813  0.00  0.00    +0.000 OA
ATOM     16  H   UNL     1       5.789   5.667  20.089  0.00  0.00    +0.000 HD
ENDBRANCH   8  15
ENDBRANCH   7  14
ENDBRANCH   1   7
BRANCH   4  17
ATOM     17  C   UNL     1       1.319   8.384  19.504  0.00  0.00    +0.000 C 
BRANCH  17  18
ATOM     18  C   UNL     1       0.684   9.032  20.721  0.00  0.00    +0.000 A 
ATOM     19  C   UNL     1       1.134   8.773  22.027  0.00  0.00    +0.000 A 
ATOM     20  C   UNL     1       0.561   9.437  23.124  0.00  0.00    +0.000 A 
ATOM     21  C   UNL     1      -0.457  10.368  22.927  0.00  0.00    +0.000 A 
ATOM     22  C   UNL     1      -0.911  10.633  21.637  0.00  0.00    +0.000 A 
ATOM     23  C   UNL     1      -0.339   9.971  20.554  0.00  0.00    +0.000 A 
ATOM     24  F   UNL     1      -0.788  10.258  19.325  0.00  0.00    +0.000 F 
ENDBRANCH  17  18
ENDBRANCH   4  17
TORSDOF 5
ENDMDL
MODEL 6
REMARK VINA RESULT:      -6.5      3.002      4.075
REMARK  Name = 
REMARK  5 active torsions:
REMARK  status: ('A' for Active; 'I' for Inactive)
REMARK    1  A    between atoms: O_1  and  C_2
REMARK    2  A    between atoms: C_8  and  C_9
REMARK    3  A    between atoms: C_9  and  N_10
REMARK    4  A    between atoms: N_13  and  C_14
REMARK    5  A    between atoms: C_14  and  C_15
REMARK                            x       y       z     vdW  Elec       q    Type
REMARK                         _______ _______ _______ _____ _____    ______ ____
ROOT
ATOM      1  N   UNL     1       5.587   5.649  17.295  0.00  0.00    +0.000 NA
ATOM      2  C   UNL     1       6.915   5.973  16.749  0.00  0.00    +0.000 C 
ATOM      3  C   UNL     1       7.551   5.010  15.702  0.00  0.00    +0.000 C 
ATOM      4  N   UNL     1       6.694   4.175  14.836  0.00  0.00    +0.000 NA
ATOM      5  C   UNL     1       5.344   3.979  15.389  0.00  0.00    +0.000 C 
ATOM      6  C   UNL     1       4.752   5.173  16.172  0.00  0.00    +0.000 C 
ENDROOT
BRANCH   1   7
ATOM      7  C   UNL     1       5.627   4.638  18.372  0.00  0.00    +0.000 C 
BRANCH   7  14
ATOM      8  C   UNL     1       4.063   3.280  19.812  0.00  0.00    +0.000 A 
ATOM      9  C   UNL     1       2.882   3.087  20.538  0.00  0.00    +0.000 A 
ATOM     10  C   UNL     1       2.060   4.172  20.813  0.00  0.00    +0.000 A 
ATOM     11  C   UNL     1       2.423   5.441  20.366  0.00  0.00    +0.000 A 
ATOM     12 BR   UNL     1       1.337   6.922  20.816  0.00  0.00    +0.000 Br
ATOM     13  C   UNL     1       3.585   5.624  19.595  0.00  0.00    +0.000 A 
ATOM     14  C   UNL     1       4.424   4.543  19.312  0.00  0.00    +0.000 A 
BRANCH   8  15
ATOM     15  O   UNL     1       4.878   2.210  19.572  0.00  0.00    +0.000 OA
ATOM     16  H   UNL     1       4.321   1.423  19.432  0.00  0.00    +0.000 HD
ENDBRANCH   8  15
ENDBRANCH   7  14
ENDBRANCH   1   7
BRANCH   4  17
ATOM     17  C   UNL     1       6.651   4.611  13.430  0.00  0.00    +0.000 C 
BRANCH  17  18
ATOM     18  C   UNL     1       6.504   3.491  12.417  0.00  0.00    +0.000 A 
ATOM     19  C   UNL     1       7.613   2.791  11.910  0.00  0.00    +0.000 A 
ATOM     20  C   UNL     1       7.434   1.721  11.019  0.00  0.00    +0.000 A 
ATOM     21  C   UNL     1       6.151   1.336  10.633  0.00  0.00    +0.000 A 
ATOM     22  C   UNL     1       5.045   2.021  11.129  0.00  0.00    +0.000 A 
ATOM     23  C   UNL     1       5.230   3.083  12.012  0.00  0.00    +0.000 A 
ATOM     24  F   UNL     1       4.145   3.714  12.482  0.00  0.00    +0.000 F 
ENDBRANCH  17  18
ENDBRANCH   4  17
TORSDOF 5
ENDMDL
MODEL 7
REMARK VINA RESULT:      -6.3      4.889      7.236
REMARK  Name = 
REMARK  5 active torsions:
REMARK  status: ('A' for Active; 'I' for Inactive)
REMARK    1  A    between atoms: O_1  and  C_2
REMARK    2  A    between atoms: C_8  and  C_9
REMARK    3  A    between atoms: C_9  and  N_10
REMARK    4  A    between atoms: N_13  and  C_14
REMARK    5  A    between atoms: C_14  and  C_15
REMARK                            x       y       z     vdW  Elec       q    Type
REMARK                         _______ _______ _______ _____ _____    ______ ____
ROOT
ATOM      1  N   UNL     1       0.343  11.005  22.053  0.00  0.00    +0.000 NA
ATOM      2  C   UNL     1       0.282   9.712  22.752  0.00  0.00    +0.000 C 
ATOM      3  C   UNL     1       0.217   8.404  21.907  0.00  0.00    +0.000 C 
ATOM      4  N   UNL     1       0.790   8.364  20.546  0.00  0.00    +0.000 NA
ATOM      5  C   UNL     1       0.924   9.700  19.944  0.00  0.00    +0.000 C 
ATOM      6  C   UNL     1       1.278  10.849  20.917  0.00  0.00    +0.000 C 
ENDROOT
BRANCH   1   7
ATOM      7  C   UNL     1      -0.973  11.477  21.575  0.00  0.00    +0.000 C 
BRANCH   7  14
ATOM      8  C   UNL     1      -1.057  13.557  23.001  0.00  0.00    +0.000 A 
ATOM      9  C   UNL     1      -1.649  14.401  23.948  0.00  0.00    +0.000 A 
ATOM     10  C   UNL     1      -2.963  14.182  24.336  0.00  0.00    +0.000 A 
ATOM     11  C   UNL     1      -3.680  13.125  23.776  0.00  0.00    +0.000 A 
ATOM     12 BR   UNL     1      -5.494  12.886  24.253  0.00  0.00    +0.000 Br
ATOM     13  C   UNL     1      -3.068  12.250  22.861  0.00  0.00    +0.000 A 
ATOM     14  C   UNL     1      -1.746  12.458  22.458  0.00  0.00    +0.000 A 
BRANCH   8  15
ATOM     15  O   UNL     1       0.228  13.799  22.605  0.00  0.00    +0.000 OA
ATOM     16  H   UNL     1       0.814  13.691  23.376  0.00  0.00    +0.000 HD
ENDBRANCH   8  15
ENDBRANCH   7  14
ENDBRANCH   1   7
BRANCH   4  17
ATOM     17  C   UNL     1       2.036   7.588  20.439  0.00  0.00    +0.000 C 
BRANCH  17  18
ATOM     18  C   UNL     1       1.879   6.204  19.836  0.00  0.00    +0.000 A 
ATOM     19  C   UNL     1       1.314   5.136  20.554  0.00  0.00    +0.000 A 
ATOM     20  C   UNL     1       1.130   3.884  19.944  0.00  0.00    +0.000 A 
ATOM     21  C   UNL     1       1.500   3.691  18.613  0.00  0.00    +0.000 A 
ATOM     22  C   UNL     1       2.060   4.743  17.892  0.00  0.00    +0.000 A 
ATOM     23  C   UNL     1       2.240   5.981  18.504  0.00  0.00    +0.000 A 
ATOM     24  F   UNL     1       2.770   6.976  17.780  0.00  0.00    +0.000 F 
ENDBRANCH  17  18
ENDBRANCH   4  17
TORSDOF 5
ENDMDL
MODEL 8
REMARK VINA RESULT:      -6.3      4.234      8.033
REMARK  Name = 
REMARK  5 active torsions:
REMARK  status: ('A' for Active; 'I' for Inactive)
REMARK    1  A    between atoms: O_1  and  C_2
REMARK    2  A    between atoms: C_8  and  C_9
REMARK    3  A    between atoms: C_9  and  N_10
REMARK    4  A    between atoms: N_13  and  C_14
REMARK    5  A    between atoms: C_14  and  C_15
REMARK                            x       y       z     vdW  Elec       q    Type
REMARK                         _______ _______ _______ _____ _____    ______ ____
ROOT
ATOM      1  N   UNL     1       5.061   3.862  16.755  0.00  0.00    +0.000 NA
ATOM      2  C   UNL     1       5.053   3.531  18.189  0.00  0.00    +0.000 C 
ATOM      3  C   UNL     1       4.895   4.684  19.226  0.00  0.00    +0.000 C 
ATOM      4  N   UNL     1       4.191   5.929  18.857  0.00  0.00    +0.000 NA
ATOM      5  C   UNL     1       4.140   6.147  17.402  0.00  0.00    +0.000 C 
ATOM      6  C   UNL     1       4.008   4.876  16.531  0.00  0.00    +0.000 C 
ENDROOT
BRANCH   1   7
ATOM      7  C   UNL     1       6.367   4.361  16.276  0.00  0.00    +0.000 C 
BRANCH   7  14
ATOM      8  C   UNL     1       7.515   5.225  14.202  0.00  0.00    +0.000 A 
ATOM      9  C   UNL     1       7.701   5.306  12.817  0.00  0.00    +0.000 A 
ATOM     10  C   UNL     1       7.069   4.392  11.986  0.00  0.00    +0.000 A 
ATOM     11  C   UNL     1       6.257   3.403  12.540  0.00  0.00    +0.000 A 
ATOM     12 BR   UNL     1       5.467   2.115  11.403  0.00  0.00    +0.000 Br
ATOM     13  C   UNL     1       6.033   3.354  13.928  0.00  0.00    +0.000 A 
ATOM     14  C   UNL     1       6.664   4.265  14.779  0.00  0.00    +0.000 A 
BRANCH   8  15
ATOM     15  O   UNL     1       8.164   6.112  15.013  0.00  0.00    +0.000 OA
ATOM     16  H   UNL     1       7.934   7.016  14.731  0.00  0.00    +0.000 HD
ENDBRANCH   8  15
ENDBRANCH   7  14
ENDBRANCH   1   7
BRANCH   4  17
ATOM     17  C   UNL     1       2.864   6.077  19.479  0.00  0.00    +0.000 C 
BRANCH  17  18
ATOM     18  C   UNL     1       2.071   4.790  19.608  0.00  0.00    +0.000 A 
ATOM     19  C   UNL     1       1.473   4.166  18.500  0.00  0.00    +0.000 A 
ATOM     20  C   UNL     1       0.796   2.944  18.648  0.00  0.00    +0.000 A 
ATOM     21  C   UNL     1       0.719   2.332  19.898  0.00  0.00    +0.000 A 
ATOM     22  C   UNL     1       1.308   2.941  21.003  0.00  0.00    +0.000 A 
ATOM     23  C   UNL     1       1.976   4.154  20.849  0.00  0.00    +0.000 A 
ATOM     24  F   UNL     1       2.544   4.708  21.929  0.00  0.00    +0.000 F 
ENDBRANCH  17  18
ENDBRANCH   4  17
TORSDOF 5
ENDMDL
MODEL 9
REMARK VINA RESULT:      -6.3      0.980      1.400
REMARK  Name = 
REMARK  5 active torsions:
REMARK  status: ('A' for Active; 'I' for Inactive)
REMARK    1  A    between atoms: O_1  and  C_2
REMARK    2  A    between atoms: C_8  and  C_9
REMARK    3  A    between atoms: C_9  and  N_10
REMARK    4  A    between atoms: N_13  and  C_14
REMARK    5  A    between atoms: C_14  and  C_15
REMARK                            x       y       z     vdW  Elec       q    Type
REMARK                         _______ _______ _______ _____ _____    ______ ____
ROOT
ATOM      1  N   UNL     1       3.937   6.353  18.634  0.00  0.00    +0.000 NA
ATOM      2  C   UNL     1       4.031   4.885  18.585  0.00  0.00    +0.000 C 
ATOM      3  C   UNL     1       4.241   4.192  17.205  0.00  0.00    +0.000 C 
ATOM      4  N   UNL     1       4.915   4.909  16.103  0.00  0.00    +0.000 NA
ATOM      5  C   UNL     1       4.879   6.371  16.268  0.00  0.00    +0.000 C 
ATOM      6  C   UNL     1       4.968   6.892  17.722  0.00  0.00    +0.000 C 
ENDROOT
BRANCH   1   7
ATOM      7  C   UNL     1       2.602   6.868  18.265  0.00  0.00    +0.000 C 
BRANCH   7  14
ATOM      8  C   UNL     1       1.719   7.668  20.488  0.00  0.00    +0.000 A 
ATOM      9  C   UNL     1       1.008   8.555  21.306  0.00  0.00    +0.000 A 
ATOM     10  C   UNL     1       0.591   9.776  20.794  0.00  0.00    +0.000 A 
ATOM     11  C   UNL     1       0.888  10.107  19.473  0.00  0.00    +0.000 A 
ATOM     12 BR   UNL     1       0.386  11.806  18.813  0.00  0.00    +0.000 Br
ATOM     13  C   UNL     1       1.560   9.194  18.640  0.00  0.00    +0.000 A 
ATOM     14  C   UNL     1       1.989   7.962  19.140  0.00  0.00    +0.000 A 
BRANCH   8  15
ATOM     15  O   UNL     1       2.149   6.481  21.011  0.00  0.00    +0.000 OA
ATOM     16  H   UNL     1       2.275   6.593  21.970  0.00  0.00    +0.000 HD
ENDBRANCH   8  15
ENDBRANCH   7  14
ENDBRANCH   1   7
BRANCH   4  17
ATOM     17  C   UNL     1       6.274   4.425  15.811  0.00  0.00    +0.000 C 
BRANCH  17  18
ATOM     18  C   UNL     1       6.705   4.562  14.362  0.00  0.00    +0.000 A 
ATOM     19  C   UNL     1       7.704   5.466  13.962  0.00  0.00    +0.000 A 
ATOM     20  C   UNL     1       8.119   5.523  12.621  0.00  0.00    +0.000 A 
ATOM     21  C   UNL     1       7.549   4.675  11.674  0.00  0.00    +0.000 A 
ATOM     22  C   UNL     1       6.559   3.774  12.059  0.00  0.00    +0.000 A 
ATOM     23  C   UNL     1       6.152   3.724  13.390  0.00  0.00    +0.000 A 
ATOM     24  F   UNL     1       5.207   2.837  13.732  0.00  0.00    +0.000 F 
ENDBRANCH  17  18
ENDBRANCH   4  17
TORSDOF 5
ENDMDL
