MODEL 1
REMARK VINA RESULT:      -8.2      0.000      0.000
REMARK  Name = 
REMARK  11 active torsions:
REMARK  status: ('A' for Active; 'I' for Inactive)
REMARK    1  A    between atoms: C_1  and  C_2
REMARK    2  A    between atoms: C_2  and  C_3
REMARK    3  A    between atoms: C_3  and  N_4
REMARK    4  A    between atoms: C_3  and  C_20
REMARK    5  A    between atoms: N_4  and  C_5
REMARK    6  A    between atoms: C_9  and  C_10
REMARK    7  A    between atoms: C_10  and  C_11
REMARK    8  A    between atoms: C_10  and  N_12
REMARK    9  A    between atoms: C_14  and  C_15
REMARK   10  A    between atoms: C_15  and  O_17
REMARK   11  A    between atoms: C_25  and  C_26
REMARK                            x       y       z     vdW  Elec       q    Type
REMARK                         _______ _______ _______ _____ _____    ______ ____
ROOT
ATOM      1  C   UNL     1       2.069   7.584  19.737  0.00  0.00    +0.000 A 
ATOM      2  C   UNL     1       2.674   7.720  18.484  0.00  0.00    +0.000 A 
ATOM      3  C   UNL     1       2.349   8.779  17.630  0.00  0.00    +0.000 A 
ATOM      4  C   UNL     1       1.371   9.704  17.986  0.00  0.00    +0.000 A 
ATOM      5  C   UNL     1       0.674   9.568  19.193  0.00  0.00    +0.000 A 
ATOM      6  C   UNL     1       1.040   8.502  20.054  0.00  0.00    +0.000 A 
ENDROOT
BRANCH   1   7
ATOM      7  N   UNL     1       2.334   6.507  20.602  0.00  0.00    +0.000 N 
ATOM      8  H   UNL     1       3.252   6.601  21.032  0.00  0.00    +0.000 HD
BRANCH   7   9
ATOM      9  C   UNL     1       2.065   5.116  20.189  0.00  0.00    +0.000 C 
BRANCH   9  10
ATOM     10  C   UNL     1       3.067   4.695  19.109  0.00  0.00    +0.000 A 
ATOM     11  C   UNL     1       2.657   4.083  17.914  0.00  0.00    +0.000 A 
ATOM     12  C   UNL     1       3.584   3.789  16.912  0.00  0.00    +0.000 A 
ATOM     13  C   UNL     1       4.937   4.084  17.091  0.00  0.00    +0.000 A 
ATOM     14 CL   UNL     1       6.008   3.717  15.786  0.00  0.00    +0.000 Cl
ATOM     15  C   UNL     1       5.383   4.665  18.286  0.00  0.00    +0.000 A 
ATOM     16  C   UNL     1       6.816   5.026  18.557  0.00  0.00    +0.000 C 
ATOM     17  C   UNL     1       4.435   4.970  19.282  0.00  0.00    +0.000 A 
ENDBRANCH   9  10
BRANCH   9  19
ATOM     18  C   UNL     1       1.338   2.862  21.223  0.00  0.00    +0.000 C 
ATOM     19  C   UNL     1       2.169   4.123  21.374  0.00  0.00    +0.000 C 
ENDBRANCH   9  19
ENDBRANCH   7   9
ENDBRANCH   1   7
BRANCH   5  20
ATOM     20  C   UNL     1      -0.431  10.559  19.587  0.00  0.00    +0.000 C 
ATOM     21  C   UNL     1       0.220  11.749  20.315  0.00  0.00    +0.000 C 
BRANCH  20  22
ATOM     22  N   UNL     1      -1.231  11.081  18.435  0.00  0.00    +0.000 NA
ATOM     23  C   UNL     1      -2.116  10.032  17.886  0.00  0.00    +0.000 C 
ATOM     24  C   UNL     1      -3.337  10.933  18.119  0.00  0.00    +0.000 C 
ATOM     25  C   UNL     1      -2.402  11.847  18.918  0.00  0.00    +0.000 C 
BRANCH  24  26
ATOM     26  C   UNL     1      -4.081  11.495  16.889  0.00  0.00    +0.000 C 
ATOM     27  O   UNL     1      -5.267  11.809  16.874  0.00  0.00    +0.000 OA
BRANCH  26  28
ATOM     28  O   UNL     1      -3.315  11.648  15.773  0.00  0.00    +0.000 OA
ATOM     29  H   UNL     1      -3.840  11.886  14.980  0.00  0.00    +0.000 HD
ENDBRANCH  26  28
ENDBRANCH  24  26
ENDBRANCH  20  22
ENDBRANCH   5  20
TORSDOF 8
ENDMDL
MODEL 2
REMARK VINA RESULT:      -8.1      2.458      2.952
REMARK  Name = 
REMARK  11 active torsions:
REMARK  status: ('A' for Active; 'I' for Inactive)
REMARK    1  A    between atoms: C_1  and  C_2
REMARK    2  A    between atoms: C_2  and  C_3
REMARK    3  A    between atoms: C_3  and  N_4
REMARK    4  A    between atoms: C_3  and  C_20
REMARK    5  A    between atoms: N_4  and  C_5
REMARK    6  A    between atoms: C_9  and  C_10
REMARK    7  A    between atoms: C_10  and  C_11
REMARK    8  A    between atoms: C_10  and  N_12
REMARK    9  A    between atoms: C_14  and  C_15
REMARK   10  A    between atoms: C_15  and  O_17
REMARK   11  A    between atoms: C_25  and  C_26
REMARK                            x       y       z     vdW  Elec       q    Type
REMARK                         _______ _______ _______ _____ _____    ______ ____
ROOT
ATOM      1  C   UNL     1       1.927   7.858  19.905  0.00  0.00    +0.000 A 
ATOM      2  C   UNL     1       1.898   8.110  18.531  0.00  0.00    +0.000 A 
ATOM      3  C   UNL     1       1.505   9.354  18.026  0.00  0.00    +0.000 A 
ATOM      4  C   UNL     1       1.081  10.366  18.884  0.00  0.00    +0.000 A 
ATOM      5  C   UNL     1       1.011  10.141  20.264  0.00  0.00    +0.000 A 
ATOM      6  C   UNL     1       1.441   8.881  20.753  0.00  0.00    +0.000 A 
ENDROOT
BRANCH   1   7
ATOM      7  N   UNL     1       2.270   6.607  20.448  0.00  0.00    +0.000 N 
ATOM      8  H   UNL     1       3.184   6.640  20.895  0.00  0.00    +0.000 HD
BRANCH   7   9
ATOM      9  C   UNL     1       2.090   5.366  19.669  0.00  0.00    +0.000 C 
BRANCH   9  10
ATOM     10  C   UNL     1       3.365   5.065  18.874  0.00  0.00    +0.000 A 
ATOM     11  C   UNL     1       3.321   4.563  17.564  0.00  0.00    +0.000 A 
ATOM     12  C   UNL     1       4.497   4.380  16.833  0.00  0.00    +0.000 A 
ATOM     13  C   UNL     1       5.737   4.679  17.403  0.00  0.00    +0.000 A 
ATOM     14 CL   UNL     1       7.137   4.454  16.416  0.00  0.00    +0.000 Cl
ATOM     15  C   UNL     1       5.816   5.151  18.720  0.00  0.00    +0.000 A 
ATOM     16  C   UNL     1       7.105   5.508  19.404  0.00  0.00    +0.000 C 
ATOM     17  C   UNL     1       4.621   5.345  19.439  0.00  0.00    +0.000 A 
ENDBRANCH   9  10
BRANCH   9  19
ATOM     18  C   UNL     1       0.897   3.088  19.929  0.00  0.00    +0.000 C 
ATOM     19  C   UNL     1       1.773   4.149  20.573  0.00  0.00    +0.000 C 
ENDBRANCH   9  19
ENDBRANCH   7   9
ENDBRANCH   1   7
BRANCH   5  20
ATOM     20  C   UNL     1       0.515  11.234  21.222  0.00  0.00    +0.000 C 
ATOM     21  C   UNL     1       0.863  12.606  20.616  0.00  0.00    +0.000 C 
BRANCH  20  22
ATOM     22  N   UNL     1      -0.955  11.191  21.499  0.00  0.00    +0.000 NA
ATOM     23  C   UNL     1      -1.219  11.133  22.952  0.00  0.00    +0.000 C 
ATOM     24  C   UNL     1      -2.077  12.402  22.851  0.00  0.00    +0.000 C 
ATOM     25  C   UNL     1      -1.540  12.548  21.423  0.00  0.00    +0.000 C 
BRANCH  24  26
ATOM     26  C   UNL     1      -3.599  12.280  23.081  0.00  0.00    +0.000 C 
ATOM     27  O   UNL     1      -4.448  12.378  22.201  0.00  0.00    +0.000 OA
BRANCH  26  28
ATOM     28  O   UNL     1      -3.969  12.030  24.368  0.00  0.00    +0.000 OA
ATOM     29  H   UNL     1      -4.915  11.790  24.453  0.00  0.00    +0.000 HD
ENDBRANCH  26  28
ENDBRANCH  24  26
ENDBRANCH  20  22
ENDBRANCH   5  20
TORSDOF 8
ENDMDL
MODEL 3
REMARK VINA RESULT:      -7.9      3.002      3.469
REMARK  Name = 
REMARK  11 active torsions:
REMARK  status: ('A' for Active; 'I' for Inactive)
REMARK    1  A    between atoms: C_1  and  C_2
REMARK    2  A    between atoms: C_2  and  C_3
REMARK    3  A    between atoms: C_3  and  N_4
REMARK    4  A    between atoms: C_3  and  C_20
REMARK    5  A    between atoms: N_4  and  C_5
REMARK    6  A    between atoms: C_9  and  C_10
REMARK    7  A    between atoms: C_10  and  C_11
REMARK    8  A    between atoms: C_10  and  N_12
REMARK    9  A    between atoms: C_14  and  C_15
REMARK   10  A    between atoms: C_15  and  O_17
REMARK   11  A    between atoms: C_25  and  C_26
REMARK                            x       y       z     vdW  Elec       q    Type
REMARK                         _______ _______ _______ _____ _____    ______ ____
ROOT
ATOM      1  C   UNL     1       2.218   7.471  19.757  0.00  0.00    +0.000 A 
ATOM      2  C   UNL     1       2.204   7.816  18.403  0.00  0.00    +0.000 A 
ATOM      3  C   UNL     1       1.553   8.969  17.952  0.00  0.00    +0.000 A 
ATOM      4  C   UNL     1       0.855   9.784  18.840  0.00  0.00    +0.000 A 
ATOM      5  C   UNL     1       0.767   9.441  20.195  0.00  0.00    +0.000 A 
ATOM      6  C   UNL     1       1.458   8.282  20.632  0.00  0.00    +0.000 A 
ENDROOT
BRANCH   1   7
ATOM      7  N   UNL     1       2.820   6.296  20.242  0.00  0.00    +0.000 N 
ATOM      8  H   UNL     1       3.786   6.464  20.513  0.00  0.00    +0.000 HD
BRANCH   7   9
ATOM      9  C   UNL     1       2.672   5.014  19.524  0.00  0.00    +0.000 C 
BRANCH   9  10
ATOM     10  C   UNL     1       3.848   4.823  18.560  0.00  0.00    +0.000 A 
ATOM     11  C   UNL     1       3.687   4.218  17.304  0.00  0.00    +0.000 A 
ATOM     12  C   UNL     1       4.758   4.135  16.412  0.00  0.00    +0.000 A 
ATOM     13  C   UNL     1       6.013   4.640  16.765  0.00  0.00    +0.000 A 
ATOM     14 CL   UNL     1       7.272   4.525  15.588  0.00  0.00    +0.000 Cl
ATOM     15  C   UNL     1       6.213   5.221  18.024  0.00  0.00    +0.000 A 
ATOM     16  C   UNL     1       7.524   5.798  18.479  0.00  0.00    +0.000 C 
ATOM     17  C   UNL     1       5.120   5.310  18.907  0.00  0.00    +0.000 A 
ENDBRANCH   9  10
BRANCH   9  19
ATOM     18  C   UNL     1       1.228   3.384  20.915  0.00  0.00    +0.000 C 
ATOM     19  C   UNL     1       2.624   3.805  20.490  0.00  0.00    +0.000 C 
ENDBRANCH   9  19
ENDBRANCH   7   9
ENDBRANCH   1   7
BRANCH   5  20
ATOM     20  C   UNL     1      -0.026  10.309  21.182  0.00  0.00    +0.000 C 
ATOM     21  C   UNL     1      -0.354   9.458  22.423  0.00  0.00    +0.000 C 
BRANCH  20  22
ATOM     22  N   UNL     1       0.686  11.548  21.625  0.00  0.00    +0.000 NA
ATOM     23  C   UNL     1       1.296  12.248  20.476  0.00  0.00    +0.000 C 
ATOM     24  C   UNL     1       0.516  13.521  20.832  0.00  0.00    +0.000 C 
ATOM     25  C   UNL     1      -0.272  12.658  21.823  0.00  0.00    +0.000 C 
BRANCH  24  26
ATOM     26  C   UNL     1       1.302  14.745  21.348  0.00  0.00    +0.000 C 
ATOM     27  O   UNL     1       1.096  15.904  21.000  0.00  0.00    +0.000 OA
BRANCH  26  28
ATOM     28  O   UNL     1       2.270  14.464  22.263  0.00  0.00    +0.000 OA
ATOM     29  H   UNL     1       2.185  14.994  23.083  0.00  0.00    +0.000 HD
ENDBRANCH  26  28
ENDBRANCH  24  26
ENDBRANCH  20  22
ENDBRANCH   5  20
TORSDOF 8
ENDMDL
MODEL 4
REMARK VINA RESULT:      -7.8      4.817      8.936
REMARK  Name = 
REMARK  11 active torsions:
REMARK  status: ('A' for Active; 'I' for Inactive)
REMARK    1  A    between atoms: C_1  and  C_2
REMARK    2  A    between atoms: C_2  and  C_3
REMARK    3  A    between atoms: C_3  and  N_4
REMARK    4  A    between atoms: C_3  and  C_20
REMARK    5  A    between atoms: N_4  and  C_5
REMARK    6  A    between atoms: C_9  and  C_10
REMARK    7  A    between atoms: C_10  and  C_11
REMARK    8  A    between atoms: C_10  and  N_12
REMARK    9  A    between atoms: C_14  and  C_15
REMARK   10  A    between atoms: C_15  and  O_17
REMARK   11  A    between atoms: C_25  and  C_26
REMARK                            x       y       z     vdW  Elec       q    Type
REMARK                         _______ _______ _______ _____ _____    ______ ____
ROOT
ATOM      1  C   UNL     1       2.099   6.060  20.396  0.00  0.00    +0.000 A 
ATOM      2  C   UNL     1       1.091   5.216  20.871  0.00  0.00    +0.000 A 
ATOM      3  C   UNL     1       1.127   3.837  20.641  0.00  0.00    +0.000 A 
ATOM      4  C   UNL     1       2.150   3.270  19.884  0.00  0.00    +0.000 A 
ATOM      5  C   UNL     1       3.142   4.079  19.315  0.00  0.00    +0.000 A 
ATOM      6  C   UNL     1       3.097   5.471  19.585  0.00  0.00    +0.000 A 
ENDROOT
BRANCH   1   7
ATOM      7  N   UNL     1       2.072   7.456  20.566  0.00  0.00    +0.000 N 
ATOM      8  H   UNL     1       2.040   7.704  21.553  0.00  0.00    +0.000 HD
BRANCH   7   9
ATOM      9  C   UNL     1       1.169   8.302  19.762  0.00  0.00    +0.000 C 
BRANCH   9  10
ATOM     10  C   UNL     1       0.396   9.253  20.683  0.00  0.00    +0.000 A 
ATOM     11  C   UNL     1       0.338   9.056  22.071  0.00  0.00    +0.000 A 
ATOM     12  C   UNL     1      -0.301   9.986  22.894  0.00  0.00    +0.000 A 
ATOM     13  C   UNL     1      -0.906  11.119  22.345  0.00  0.00    +0.000 A 
ATOM     14 CL   UNL     1      -1.644  12.233  23.440  0.00  0.00    +0.000 Cl
ATOM     15  C   UNL     1      -0.893  11.327  20.959  0.00  0.00    +0.000 A 
ATOM     16  C   UNL     1      -1.508  12.522  20.287  0.00  0.00    +0.000 C 
ATOM     17  C   UNL     1      -0.232  10.388  20.143  0.00  0.00    +0.000 A 
ENDBRANCH   9  10
BRANCH   9  19
ATOM     18  C   UNL     1       2.606   8.338  17.615  0.00  0.00    +0.000 C 
ATOM     19  C   UNL     1       1.936   9.145  18.713  0.00  0.00    +0.000 C 
ENDBRANCH   9  19
ENDBRANCH   7   9
ENDBRANCH   1   7
BRANCH   5  20
ATOM     20  C   UNL     1       4.258   3.476  18.450  0.00  0.00    +0.000 C 
ATOM     21  C   UNL     1       3.665   2.317  17.629  0.00  0.00    +0.000 C 
BRANCH  20  22
ATOM     22  N   UNL     1       4.905   4.446  17.513  0.00  0.00    +0.000 NA
ATOM     23  C   UNL     1       6.278   4.772  17.951  0.00  0.00    +0.000 C 
ATOM     24  C   UNL     1       6.826   4.310  16.593  0.00  0.00    +0.000 C 
ATOM     25  C   UNL     1       5.427   3.747  16.317  0.00  0.00    +0.000 C 
BRANCH  24  26
ATOM     26  C   UNL     1       7.420   5.370  15.641  0.00  0.00    +0.000 C 
ATOM     27  O   UNL     1       7.628   5.195  14.444  0.00  0.00    +0.000 OA
BRANCH  26  28
ATOM     28  O   UNL     1       7.700   6.571  16.219  0.00  0.00    +0.000 OA
ATOM     29  H   UNL     1       7.345   6.649  17.129  0.00  0.00    +0.000 HD
ENDBRANCH  26  28
ENDBRANCH  24  26
ENDBRANCH  20  22
ENDBRANCH   5  20
TORSDOF 8
ENDMDL
MODEL 5
REMARK VINA RESULT:      -7.8      2.186      3.515
REMARK  Name = 
REMARK  11 active torsions:
REMARK  status: ('A' for Active; 'I' for Inactive)
REMARK    1  A    between atoms: C_1  and  C_2
REMARK    2  A    between atoms: C_2  and  C_3
REMARK    3  A    between atoms: C_3  and  N_4
REMARK    4  A    between atoms: C_3  and  C_20
REMARK    5  A    between atoms: N_4  and  C_5
REMARK    6  A    between atoms: C_9  and  C_10
REMARK    7  A    between atoms: C_10  and  C_11
REMARK    8  A    between atoms: C_10  and  N_12
REMARK    9  A    between atoms: C_14  and  C_15
REMARK   10  A    between atoms: C_15  and  O_17
REMARK   11  A    between atoms: C_25  and  C_26
REMARK                            x       y       z     vdW  Elec       q    Type
REMARK                         _______ _______ _______ _____ _____    ______ ____
ROOT
ATOM      1  C   UNL     1       2.205   4.890  18.488  0.00  0.00    +0.000 A 
ATOM      2  C   UNL     1       1.920   4.410  19.769  0.00  0.00    +0.000 A 
ATOM      3  C   UNL     1       1.598   5.279  20.818  0.00  0.00    +0.000 A 
ATOM      4  C   UNL     1       1.601   6.658  20.623  0.00  0.00    +0.000 A 
ATOM      5  C   UNL     1       1.959   7.197  19.381  0.00  0.00    +0.000 A 
ATOM      6  C   UNL     1       2.255   6.295  18.327  0.00  0.00    +0.000 A 
ENDROOT
BRANCH   1   7
ATOM      7  N   UNL     1       2.579   4.052  17.422  0.00  0.00    +0.000 N 
ATOM      8  H   UNL     1       1.873   3.340  17.251  0.00  0.00    +0.000 HD
BRANCH   7   9
ATOM      9  C   UNL     1       3.945   3.498  17.335  0.00  0.00    +0.000 C 
BRANCH   9  10
ATOM     10  C   UNL     1       4.966   4.640  17.327  0.00  0.00    +0.000 A 
ATOM     11  C   UNL     1       4.915   5.675  16.381  0.00  0.00    +0.000 A 
ATOM     12  C   UNL     1       5.806   6.747  16.451  0.00  0.00    +0.000 A 
ATOM     13  C   UNL     1       6.775   6.797  17.457  0.00  0.00    +0.000 A 
ATOM     14 CL   UNL     1       7.814   8.177  17.488  0.00  0.00    +0.000 Cl
ATOM     15  C   UNL     1       6.873   5.763  18.397  0.00  0.00    +0.000 A 
ATOM     16  C   UNL     1       7.875   5.742  19.516  0.00  0.00    +0.000 C 
ATOM     17  C   UNL     1       5.957   4.695  18.322  0.00  0.00    +0.000 A 
ENDBRANCH   9  10
BRANCH   9  19
ATOM     18  C   UNL     1       3.465   1.265  18.543  0.00  0.00    +0.000 C 
ATOM     19  C   UNL     1       4.269   2.553  18.519  0.00  0.00    +0.000 C 
ENDBRANCH   9  19
ENDBRANCH   7   9
ENDBRANCH   1   7
BRANCH   5  20
ATOM     20  C   UNL     1       2.000   8.715  19.157  0.00  0.00    +0.000 C 
ATOM     21  C   UNL     1       2.375   8.981  17.688  0.00  0.00    +0.000 C 
BRANCH  20  22
ATOM     22  N   UNL     1       0.713   9.418  19.458  0.00  0.00    +0.000 NA
ATOM     23  C   UNL     1       0.960  10.799  19.924  0.00  0.00    +0.000 C 
ATOM     24  C   UNL     1       0.077  11.344  18.793  0.00  0.00    +0.000 C 
ATOM     25  C   UNL     1       0.093   9.925  18.214  0.00  0.00    +0.000 C 
BRANCH  24  26
ATOM     26  C   UNL     1      -1.271  11.998  19.164  0.00  0.00    +0.000 C 
ATOM     27  O   UNL     1      -1.864  11.822  20.224  0.00  0.00    +0.000 OA
BRANCH  26  28
ATOM     28  O   UNL     1      -1.785  12.834  18.220  0.00  0.00    +0.000 OA
ATOM     29  H   UNL     1      -1.603  12.534  17.305  0.00  0.00    +0.000 HD
ENDBRANCH  26  28
ENDBRANCH  24  26
ENDBRANCH  20  22
ENDBRANCH   5  20
TORSDOF 8
ENDMDL
MODEL 6
REMARK VINA RESULT:      -7.8      5.040      9.177
REMARK  Name = 
REMARK  11 active torsions:
REMARK  status: ('A' for Active; 'I' for Inactive)
REMARK    1  A    between atoms: C_1  and  C_2
REMARK    2  A    between atoms: C_2  and  C_3
REMARK    3  A    between atoms: C_3  and  N_4
REMARK    4  A    between atoms: C_3  and  C_20
REMARK    5  A    between atoms: N_4  and  C_5
REMARK    6  A    between atoms: C_9  and  C_10
REMARK    7  A    between atoms: C_10  and  C_11
REMARK    8  A    between atoms: C_10  and  N_12
REMARK    9  A    between atoms: C_14  and  C_15
REMARK   10  A    between atoms: C_15  and  O_17
REMARK   11  A    between atoms: C_25  and  C_26
REMARK                            x       y       z     vdW  Elec       q    Type
REMARK                         _______ _______ _______ _____ _____    ______ ____
ROOT
ATOM      1  C   UNL     1       1.207   9.566  18.738  0.00  0.00    +0.000 A 
ATOM      2  C   UNL     1       0.926   9.350  20.090  0.00  0.00    +0.000 A 
ATOM      3  C   UNL     1       1.388   8.210  20.756  0.00  0.00    +0.000 A 
ATOM      4  C   UNL     1       2.103   7.230  20.074  0.00  0.00    +0.000 A 
ATOM      5  C   UNL     1       2.342   7.356  18.699  0.00  0.00    +0.000 A 
ATOM      6  C   UNL     1       1.887   8.532  18.052  0.00  0.00    +0.000 A 
ENDROOT
BRANCH   1   7
ATOM      7  N   UNL     1       0.719  10.675  18.022  0.00  0.00    +0.000 N 
ATOM      8  H   UNL     1       1.401  10.998  17.339  0.00  0.00    +0.000 HD
BRANCH   7   9
ATOM      9  C   UNL     1       0.070  11.803  18.719  0.00  0.00    +0.000 C 
BRANCH   9  10
ATOM     10  C   UNL     1       0.971  13.040  18.650  0.00  0.00    +0.000 A 
ATOM     11  C   UNL     1       2.318  12.956  18.267  0.00  0.00    +0.000 A 
ATOM     12  C   UNL     1       3.092  14.111  18.130  0.00  0.00    +0.000 A 
ATOM     13  C   UNL     1       2.539  15.367  18.390  0.00  0.00    +0.000 A 
ATOM     14 CL   UNL     1       3.558  16.743  18.163  0.00  0.00    +0.000 Cl
ATOM     15  C   UNL     1       1.206  15.482  18.807  0.00  0.00    +0.000 A 
ATOM     16  C   UNL     1       0.530  16.792  19.096  0.00  0.00    +0.000 C 
ATOM     17  C   UNL     1       0.434  14.310  18.926  0.00  0.00    +0.000 A 
ENDBRANCH   9  10
BRANCH   9  19
ATOM     18  C   UNL     1      -2.028  10.995  17.445  0.00  0.00    +0.000 C 
ATOM     19  C   UNL     1      -1.305  12.158  18.101  0.00  0.00    +0.000 C 
ENDBRANCH   9  19
ENDBRANCH   7   9
ENDBRANCH   1   7
BRANCH   5  20
ATOM     20  C   UNL     1       3.100   6.269  17.923  0.00  0.00    +0.000 C 
ATOM     21  C   UNL     1       4.373   6.896  17.325  0.00  0.00    +0.000 C 
BRANCH  20  22
ATOM     22  N   UNL     1       3.493   5.083  18.747  0.00  0.00    +0.000 NA
ATOM     23  C   UNL     1       2.627   3.922  18.451  0.00  0.00    +0.000 C 
ATOM     24  C   UNL     1       3.862   3.086  18.089  0.00  0.00    +0.000 C 
ATOM     25  C   UNL     1       4.658   4.395  18.148  0.00  0.00    +0.000 C 
BRANCH  24  26
ATOM     26  C   UNL     1       4.255   1.916  19.017  0.00  0.00    +0.000 C 
ATOM     27  O   UNL     1       4.773   2.045  20.122  0.00  0.00    +0.000 OA
BRANCH  26  28
ATOM     28  O   UNL     1       3.969   0.676  18.532  0.00  0.00    +0.000 OA
ATOM     29  H   UNL     1       3.053   0.601  18.192  0.00  0.00    +0.000 HD
ENDBRANCH  26  28
ENDBRANCH  24  26
ENDBRANCH  20  22
ENDBRANCH   5  20
TORSDOF 8
ENDMDL
MODEL 7
REMARK VINA RESULT:      -7.8      2.940      3.798
REMARK  Name = 
REMARK  11 active torsions:
REMARK  status: ('A' for Active; 'I' for Inactive)
REMARK    1  A    between atoms: C_1  and  C_2
REMARK    2  A    between atoms: C_2  and  C_3
REMARK    3  A    between atoms: C_3  and  N_4
REMARK    4  A    between atoms: C_3  and  C_20
REMARK    5  A    between atoms: N_4  and  C_5
REMARK    6  A    between atoms: C_9  and  C_10
REMARK    7  A    between atoms: C_10  and  C_11
REMARK    8  A    between atoms: C_10  and  N_12
REMARK    9  A    between atoms: C_14  and  C_15
REMARK   10  A    between atoms: C_15  and  O_17
REMARK   11  A    between atoms: C_25  and  C_26
REMARK                            x       y       z     vdW  Elec       q    Type
REMARK                         _______ _______ _______ _____ _____    ______ ____
ROOT
ATOM      1  C   UNL     1       1.630   7.790  20.358  0.00  0.00    +0.000 A 
ATOM      2  C   UNL     1       0.793   7.725  21.475  0.00  0.00    +0.000 A 
ATOM      3  C   UNL     1      -0.177   8.703  21.716  0.00  0.00    +0.000 A 
ATOM      4  C   UNL     1      -0.302   9.803  20.870  0.00  0.00    +0.000 A 
ATOM      5  C   UNL     1       0.565   9.961  19.782  0.00  0.00    +0.000 A 
ATOM      6  C   UNL     1       1.522   8.942  19.543  0.00  0.00    +0.000 A 
ENDROOT
BRANCH   1   7
ATOM      7  N   UNL     1       2.647   6.851  20.107  0.00  0.00    +0.000 N 
ATOM      8  H   UNL     1       3.463   7.297  19.694  0.00  0.00    +0.000 HD
BRANCH   7   9
ATOM      9  C   UNL     1       2.346   5.559  19.460  0.00  0.00    +0.000 C 
BRANCH   9  10
ATOM     10  C   UNL     1       3.446   5.221  18.447  0.00  0.00    +0.000 A 
ATOM     11  C   UNL     1       3.361   4.099  17.608  0.00  0.00    +0.000 A 
ATOM     12  C   UNL     1       4.336   3.864  16.635  0.00  0.00    +0.000 A 
ATOM     13  C   UNL     1       5.420   4.734  16.496  0.00  0.00    +0.000 A 
ATOM     14 CL   UNL     1       6.560   4.385  15.246  0.00  0.00    +0.000 Cl
ATOM     15  C   UNL     1       5.550   5.845  17.340  0.00  0.00    +0.000 A 
ATOM     16  C   UNL     1       6.675   6.836  17.251  0.00  0.00    +0.000 C 
ATOM     17  C   UNL     1       4.551   6.077  18.306  0.00  0.00    +0.000 A 
ENDBRANCH   9  10
BRANCH   9  19
ATOM     18  C   UNL     1       0.944   3.620  20.435  0.00  0.00    +0.000 C 
ATOM     19  C   UNL     1       2.245   4.401  20.484  0.00  0.00    +0.000 C 
ENDBRANCH   9  19
ENDBRANCH   7   9
ENDBRANCH   1   7
BRANCH   5  20
ATOM     20  C   UNL     1       0.464  11.183  18.858  0.00  0.00    +0.000 C 
ATOM     21  C   UNL     1      -0.954  11.770  18.982  0.00  0.00    +0.000 C 
BRANCH  20  22
ATOM     22  N   UNL     1       1.457  12.263  19.152  0.00  0.00    +0.000 NA
ATOM     23  C   UNL     1       2.543  12.272  18.150  0.00  0.00    +0.000 C 
ATOM     24  C   UNL     1       2.233  13.738  17.820  0.00  0.00    +0.000 C 
ATOM     25  C   UNL     1       0.965  13.571  18.665  0.00  0.00    +0.000 C 
BRANCH  24  26
ATOM     26  C   UNL     1       3.270  14.814  18.210  0.00  0.00    +0.000 C 
ATOM     27  O   UNL     1       3.423  15.257  19.345  0.00  0.00    +0.000 OA
BRANCH  26  28
ATOM     28  O   UNL     1       4.054  15.256  17.189  0.00  0.00    +0.000 OA
ATOM     29  H   UNL     1       3.789  16.139  16.859  0.00  0.00    +0.000 HD
ENDBRANCH  26  28
ENDBRANCH  24  26
ENDBRANCH  20  22
ENDBRANCH   5  20
TORSDOF 8
ENDMDL
MODEL 8
REMARK VINA RESULT:      -7.8      2.559      3.023
REMARK  Name = 
REMARK  11 active torsions:
REMARK  status: ('A' for Active; 'I' for Inactive)
REMARK    1  A    between atoms: C_1  and  C_2
REMARK    2  A    between atoms: C_2  and  C_3
REMARK    3  A    between atoms: C_3  and  N_4
REMARK    4  A    between atoms: C_3  and  C_20
REMARK    5  A    between atoms: N_4  and  C_5
REMARK    6  A    between atoms: C_9  and  C_10
REMARK    7  A    between atoms: C_10  and  C_11
REMARK    8  A    between atoms: C_10  and  N_12
REMARK    9  A    between atoms: C_14  and  C_15
REMARK   10  A    between atoms: C_15  and  O_17
REMARK   11  A    between atoms: C_25  and  C_26
REMARK                            x       y       z     vdW  Elec       q    Type
REMARK                         _______ _______ _______ _____ _____    ______ ____
ROOT
ATOM      1  C   UNL     1       1.844   7.973  19.971  0.00  0.00    +0.000 A 
ATOM      2  C   UNL     1       1.906   8.426  18.651  0.00  0.00    +0.000 A 
ATOM      3  C   UNL     1       1.196   9.557  18.235  0.00  0.00    +0.000 A 
ATOM      4  C   UNL     1       0.363  10.238  19.121  0.00  0.00    +0.000 A 
ATOM      5  C   UNL     1       0.200   9.778  20.434  0.00  0.00    +0.000 A 
ATOM      6  C   UNL     1       0.951   8.646  20.838  0.00  0.00    +0.000 A 
ENDROOT
BRANCH   1   7
ATOM      7  N   UNL     1       2.506   6.813  20.415  0.00  0.00    +0.000 N 
ATOM      8  H   UNL     1       3.495   6.992  20.568  0.00  0.00    +0.000 HD
BRANCH   7   9
ATOM      9  C   UNL     1       2.284   5.512  19.753  0.00  0.00    +0.000 C 
BRANCH   9  10
ATOM     10  C   UNL     1       3.499   5.159  18.889  0.00  0.00    +0.000 A 
ATOM     11  C   UNL     1       3.362   4.571  17.622  0.00  0.00    +0.000 A 
ATOM     12  C   UNL     1       4.483   4.339  16.821  0.00  0.00    +0.000 A 
ATOM     13  C   UNL     1       5.760   4.674  17.278  0.00  0.00    +0.000 A 
ATOM     14 CL   UNL     1       7.085   4.383  16.209  0.00  0.00    +0.000 Cl
ATOM     15  C   UNL     1       5.932   5.232  18.551  0.00  0.00    +0.000 A 
ATOM     16  C   UNL     1       7.266   5.632  19.116  0.00  0.00    +0.000 C 
ATOM     17  C   UNL     1       4.792   5.474  19.342  0.00  0.00    +0.000 A 
ENDBRANCH   9  10
BRANCH   9  19
ATOM     18  C   UNL     1       1.043   3.323  20.338  0.00  0.00    +0.000 C 
ATOM     19  C   UNL     1       2.053   4.369  20.773  0.00  0.00    +0.000 C 
ENDBRANCH   9  19
ENDBRANCH   7   9
ENDBRANCH   1   7
BRANCH   5  20
ATOM     20  C   UNL     1      -0.739  10.496  21.414  0.00  0.00    +0.000 C 
ATOM     21  C   UNL     1      -0.347  10.093  22.847  0.00  0.00    +0.000 C 
BRANCH  20  22
ATOM     22  N   UNL     1      -0.713  11.989  21.313  0.00  0.00    +0.000 NA
ATOM     23  C   UNL     1      -2.010  12.510  20.833  0.00  0.00    +0.000 C 
ATOM     24  C   UNL     1      -2.128  13.387  22.087  0.00  0.00    +0.000 C 
ATOM     25  C   UNL     1      -0.931  12.605  22.640  0.00  0.00    +0.000 C 
BRANCH  24  26
ATOM     26  C   UNL     1      -2.026  14.919  21.924  0.00  0.00    +0.000 C 
ATOM     27  O   UNL     1      -1.006  15.520  21.601  0.00  0.00    +0.000 OA
BRANCH  26  28
ATOM     28  O   UNL     1      -3.183  15.600  22.151  0.00  0.00    +0.000 OA
ATOM     29  H   UNL     1      -3.882  15.394  21.496  0.00  0.00    +0.000 HD
ENDBRANCH  26  28
ENDBRANCH  24  26
ENDBRANCH  20  22
ENDBRANCH   5  20
TORSDOF 8
ENDMDL
MODEL 9
REMARK VINA RESULT:      -7.7      2.803      4.277
REMARK  Name = 
REMARK  11 active torsions:
REMARK  status: ('A' for Active; 'I' for Inactive)
REMARK    1  A    between atoms: C_1  and  C_2
REMARK    2  A    between atoms: C_2  and  C_3
REMARK    3  A    between atoms: C_3  and  N_4
REMARK    4  A    between atoms: C_3  and  C_20
REMARK    5  A    between atoms: N_4  and  C_5
REMARK    6  A    between atoms: C_9  and  C_10
REMARK    7  A    between atoms: C_10  and  C_11
REMARK    8  A    between atoms: C_10  and  N_12
REMARK    9  A    between atoms: C_14  and  C_15
REMARK   10  A    between atoms: C_15  and  O_17
REMARK   11  A    between atoms: C_25  and  C_26
REMARK                            x       y       z     vdW  Elec       q    Type
REMARK                         _______ _______ _______ _____ _____    ______ ____
ROOT
ATOM      1  C   UNL     1       2.223   4.473  18.441  0.00  0.00    +0.000 A 
ATOM      2  C   UNL     1       1.755   3.758  19.547  0.00  0.00    +0.000 A 
ATOM      3  C   UNL     1       1.295   4.410  20.695  0.00  0.00    +0.000 A 
ATOM      4  C   UNL     1       1.337   5.800  20.787  0.00  0.00    +0.000 A 
ATOM      5  C   UNL     1       1.872   6.563  19.742  0.00  0.00    +0.000 A 
ATOM      6  C   UNL     1       2.308   5.879  18.578  0.00  0.00    +0.000 A 
ENDROOT
BRANCH   1   7
ATOM      7  N   UNL     1       2.738   3.852  17.289  0.00  0.00    +0.000 N 
ATOM      8  H   UNL     1       2.083   3.166  16.919  0.00  0.00    +0.000 HD
BRANCH   7   9
ATOM      9  C   UNL     1       4.128   3.356  17.250  0.00  0.00    +0.000 C 
BRANCH   9  10
ATOM     10  C   UNL     1       5.100   4.540  17.269  0.00  0.00    +0.000 A 
ATOM     11  C   UNL     1       5.009   5.588  16.340  0.00  0.00    +0.000 A 
ATOM     12  C   UNL     1       5.854   6.696  16.435  0.00  0.00    +0.000 A 
ATOM     13  C   UNL     1       6.815   6.769  17.447  0.00  0.00    +0.000 A 
ATOM     14 CL   UNL     1       7.795   8.190  17.508  0.00  0.00    +0.000 Cl
ATOM     15  C   UNL     1       6.952   5.723  18.369  0.00  0.00    +0.000 A 
ATOM     16  C   UNL     1       7.948   5.725  19.494  0.00  0.00    +0.000 C 
ATOM     17  C   UNL     1       6.083   4.619  18.270  0.00  0.00    +0.000 A 
ENDBRANCH   9  10
BRANCH   9  19
ATOM     18  C   UNL     1       3.740   1.090  18.431  0.00  0.00    +0.000 C 
ATOM     19  C   UNL     1       4.452   2.431  18.450  0.00  0.00    +0.000 C 
ENDBRANCH   9  19
ENDBRANCH   7   9
ENDBRANCH   1   7
BRANCH   5  20
ATOM     20  C   UNL     1       1.958   8.092  19.839  0.00  0.00    +0.000 C 
ATOM     21  C   UNL     1       2.022   8.668  18.413  0.00  0.00    +0.000 C 
BRANCH  20  22
ATOM     22  N   UNL     1       0.813   8.730  20.562  0.00  0.00    +0.000 NA
ATOM     23  C   UNL     1       1.268   9.381  21.808  0.00  0.00    +0.000 C 
ATOM     24  C   UNL     1       0.680  10.716  21.330  0.00  0.00    +0.000 C 
ATOM     25  C   UNL     1       0.487  10.045  19.966  0.00  0.00    +0.000 C 
BRANCH  24  26
ATOM     26  C   UNL     1      -0.544  11.288  22.076  0.00  0.00    +0.000 C 
ATOM     27  O   UNL     1      -0.670  11.309  23.297  0.00  0.00    +0.000 OA
BRANCH  26  28
ATOM     28  O   UNL     1      -1.515  11.808  21.276  0.00  0.00    +0.000 OA
ATOM     29  H   UNL     1      -2.413  11.498  21.516  0.00  0.00    +0.000 HD
ENDBRANCH  26  28
ENDBRANCH  24  26
ENDBRANCH  20  22
ENDBRANCH   5  20
TORSDOF 8
ENDMDL
