MODEL 1
REMARK VINA RESULT:      -8.8      0.000      0.000
REMARK  Name = 
REMARK  3 active torsions:
REMARK  status: ('A' for Active; 'I' for Inactive)
REMARK    1  A    between atoms: C_1  and  N_2
REMARK    2  A    between atoms: C_5  and  C_6
REMARK    3  A    between atoms: C_13  and  C_14
REMARK                            x       y       z     vdW  Elec       q    Type
REMARK                         _______ _______ _______ _____ _____    ______ ____
ROOT
ATOM      1  C   UNL     1       1.103   8.917  20.361  0.00  0.00    +0.000 C 
ATOM      2  O   UNL     1       1.109   9.116  19.143  0.00  0.00    +0.000 OA
ATOM      3  N   UNL     1       1.572   7.767  20.958  0.00  0.00    +0.000 N 
ATOM      4  C   UNL     1       2.045   6.676  20.229  0.00  0.00    +0.000 A 
ATOM      5  C   UNL     1       2.917   6.832  19.161  0.00  0.00    +0.000 A 
ATOM      6  C   UNL     1       3.338   5.693  18.461  0.00  0.00    +0.000 A 
ATOM      7  C   UNL     1       4.264   5.771  17.410  0.00  0.00    +0.000 A 
ATOM      8  C   UNL     1       4.643   4.622  16.717  0.00  0.00    +0.000 A 
ATOM      9  C   UNL     1       4.049   3.429  17.108  0.00  0.00    +0.000 A 
ATOM     10  N   UNL     1       3.166   3.310  18.131  0.00  0.00    +0.000 NA
ATOM     11  C   UNL     1       2.836   4.430  18.811  0.00  0.00    +0.000 A 
ATOM     12  C   UNL     1       1.992   4.404  19.911  0.00  0.00    +0.000 A 
ATOM     13  N   UNL     1       1.622   5.476  20.660  0.00  0.00    +0.000 NA
ATOM     14  H   UNL     1       1.171   7.491  21.844  0.00  0.00    +0.000 HD
ENDROOT
BRANCH   1  19
ATOM     15  C   UNL     1      -2.076  12.591  23.406  0.00  0.00    +0.000 C 
ATOM     16  N   UNL     1      -1.517  11.613  22.471  0.00  0.00    +0.000 NA
ATOM     17  C   UNL     1      -0.486  12.242  21.634  0.00  0.00    +0.000 C 
ATOM     18  C   UNL     1       0.060  11.246  20.610  0.00  0.00    +0.000 C 
ATOM     19  C   UNL     1       0.597   9.991  21.304  0.00  0.00    +0.000 C 
ATOM     20  C   UNL     1      -0.456   9.400  22.241  0.00  0.00    +0.000 C 
ATOM     21  C   UNL     1      -0.982  10.460  23.206  0.00  0.00    +0.000 C 
ENDBRANCH   1  19
BRANCH   8  22
ATOM     22  C   UNL     1       5.643   4.687  15.660  0.00  0.00    +0.000 A 
ATOM     23  C   UNL     1       6.931   5.317  15.711  0.00  0.00    +0.000 A 
ATOM     24  N   UNL     1       7.688   5.257  14.620  0.00  0.00    +0.000 NA
ATOM     25  S   UNL     1       6.859   4.423  13.456  0.00  0.00    +0.000 S 
ATOM     26  C   UNL     1       5.465   4.126  14.408  0.00  0.00    +0.000 A 
ENDBRANCH   8  22
TORSDOF 2
ENDMDL
MODEL 2
REMARK VINA RESULT:      -8.2      1.100      1.527
REMARK  Name = 
REMARK  3 active torsions:
REMARK  status: ('A' for Active; 'I' for Inactive)
REMARK    1  A    between atoms: C_1  and  N_2
REMARK    2  A    between atoms: C_5  and  C_6
REMARK    3  A    between atoms: C_13  and  C_14
REMARK                            x       y       z     vdW  Elec       q    Type
REMARK                         _______ _______ _______ _____ _____    ______ ____
ROOT
ATOM      1  C   UNL     1       0.565   9.683  19.724  0.00  0.00    +0.000 C 
ATOM      2  O   UNL     1       0.553   9.573  18.495  0.00  0.00    +0.000 OA
ATOM      3  N   UNL     1       1.159   8.777  20.576  0.00  0.00    +0.000 N 
ATOM      4  C   UNL     1       1.755   7.598  20.129  0.00  0.00    +0.000 A 
ATOM      5  C   UNL     1       2.607   7.579  19.034  0.00  0.00    +0.000 A 
ATOM      6  C   UNL     1       3.158   6.355  18.629  0.00  0.00    +0.000 A 
ATOM      7  C   UNL     1       4.073   6.271  17.569  0.00  0.00    +0.000 A 
ATOM      8  C   UNL     1       4.582   5.035  17.173  0.00  0.00    +0.000 A 
ATOM      9  C   UNL     1       4.125   3.918  17.862  0.00  0.00    +0.000 A 
ATOM     10  N   UNL     1       3.257   3.962  18.904  0.00  0.00    +0.000 NA
ATOM     11  C   UNL     1       2.800   5.171  19.292  0.00  0.00    +0.000 A 
ATOM     12  C   UNL     1       1.960   5.328  20.385  0.00  0.00    +0.000 A 
ATOM     13  N   UNL     1       1.468   6.505  20.853  0.00  0.00    +0.000 NA
ATOM     14  H   UNL     1       0.787   8.688  21.512  0.00  0.00    +0.000 HD
ENDROOT
BRANCH   1  19
ATOM     15  C   UNL     1      -0.506  14.417  22.778  0.00  0.00    +0.000 C 
ATOM     16  N   UNL     1       0.019  13.198  22.160  0.00  0.00    +0.000 NA
ATOM     17  C   UNL     1      -0.844  12.053  22.482  0.00  0.00    +0.000 C 
ATOM     18  C   UNL     1      -0.269  10.762  21.895  0.00  0.00    +0.000 C 
ATOM     19  C   UNL     1      -0.063  10.896  20.384  0.00  0.00    +0.000 C 
ATOM     20  C   UNL     1       0.761  12.143  20.060  0.00  0.00    +0.000 C 
ATOM     21  C   UNL     1       0.150  13.382  20.709  0.00  0.00    +0.000 C 
ENDBRANCH   1  19
BRANCH   8  22
ATOM     22  C   UNL     1       5.573   4.945  16.109  0.00  0.00    +0.000 A 
ATOM     23  C   UNL     1       6.922   5.432  16.125  0.00  0.00    +0.000 A 
ATOM     24  N   UNL     1       7.657   5.243  15.034  0.00  0.00    +0.000 NA
ATOM     25  S   UNL     1       6.731   4.454  13.912  0.00  0.00    +0.000 S 
ATOM     26  C   UNL     1       5.322   4.352  14.884  0.00  0.00    +0.000 A 
ENDBRANCH   8  22
TORSDOF 2
ENDMDL
MODEL 3
REMARK VINA RESULT:      -8.2      1.094      1.201
REMARK  Name = 
REMARK  3 active torsions:
REMARK  status: ('A' for Active; 'I' for Inactive)
REMARK    1  A    between atoms: C_1  and  N_2
REMARK    2  A    between atoms: C_5  and  C_6
REMARK    3  A    between atoms: C_13  and  C_14
REMARK                            x       y       z     vdW  Elec       q    Type
REMARK                         _______ _______ _______ _____ _____    ______ ____
ROOT
ATOM      1  C   UNL     1       0.506   9.808  19.608  0.00  0.00    +0.000 C 
ATOM      2  O   UNL     1       0.491   9.657  18.384  0.00  0.00    +0.000 OA
ATOM      3  N   UNL     1       1.106   8.933  20.488  0.00  0.00    +0.000 N 
ATOM      4  C   UNL     1       1.706   7.743  20.078  0.00  0.00    +0.000 A 
ATOM      5  C   UNL     1       2.556   7.691  18.983  0.00  0.00    +0.000 A 
ATOM      6  C   UNL     1       3.111   6.457  18.616  0.00  0.00    +0.000 A 
ATOM      7  C   UNL     1       4.023   6.343  17.557  0.00  0.00    +0.000 A 
ATOM      8  C   UNL     1       4.537   5.096  17.201  0.00  0.00    +0.000 A 
ATOM      9  C   UNL     1       4.087   4.001  17.927  0.00  0.00    +0.000 A 
ATOM     10  N   UNL     1       3.221   4.074  18.969  0.00  0.00    +0.000 NA
ATOM     11  C   UNL     1       2.760   5.294  19.319  0.00  0.00    +0.000 A 
ATOM     12  C   UNL     1       1.922   5.483  20.407  0.00  0.00    +0.000 A 
ATOM     13  N   UNL     1       1.426   6.672  20.839  0.00  0.00    +0.000 NA
ATOM     14  H   UNL     1       0.737   8.873  21.427  0.00  0.00    +0.000 HD
ENDROOT
BRANCH   1  19
ATOM     15  C   UNL     1      -2.842  13.518  22.421  0.00  0.00    +0.000 C 
ATOM     16  N   UNL     1      -2.217  12.382  21.742  0.00  0.00    +0.000 NA
ATOM     17  C   UNL     1      -2.038  12.679  20.313  0.00  0.00    +0.000 C 
ATOM     18  C   UNL     1      -1.444  11.473  19.582  0.00  0.00    +0.000 C 
ATOM     19  C   UNL     1      -0.126  11.039  20.230  0.00  0.00    +0.000 C 
ATOM     20  C   UNL     1      -0.308  10.822  21.732  0.00  0.00    +0.000 C 
ATOM     21  C   UNL     1      -0.940  12.048  22.386  0.00  0.00    +0.000 C 
ENDBRANCH   1  19
BRANCH   8  22
ATOM     22  C   UNL     1       5.526   4.976  16.138  0.00  0.00    +0.000 A 
ATOM     23  C   UNL     1       6.857   5.510  16.115  0.00  0.00    +0.000 A 
ATOM     24  N   UNL     1       7.594   5.279  15.032  0.00  0.00    +0.000 NA
ATOM     25  S   UNL     1       6.690   4.392  13.967  0.00  0.00    +0.000 S 
ATOM     26  C   UNL     1       5.291   4.301  14.952  0.00  0.00    +0.000 A 
ENDBRANCH   8  22
TORSDOF 2
ENDMDL
MODEL 4
REMARK VINA RESULT:      -7.9      1.393      1.568
REMARK  Name = 
REMARK  3 active torsions:
REMARK  status: ('A' for Active; 'I' for Inactive)
REMARK    1  A    between atoms: C_1  and  N_2
REMARK    2  A    between atoms: C_5  and  C_6
REMARK    3  A    between atoms: C_13  and  C_14
REMARK                            x       y       z     vdW  Elec       q    Type
REMARK                         _______ _______ _______ _____ _____    ______ ____
ROOT
ATOM      1  C   UNL     1       0.622   9.672  19.711  0.00  0.00    +0.000 C 
ATOM      2  O   UNL     1       0.609   9.578  18.481  0.00  0.00    +0.000 OA
ATOM      3  N   UNL     1       1.200   8.745  20.552  0.00  0.00    +0.000 N 
ATOM      4  C   UNL     1       1.778   7.563  20.090  0.00  0.00    +0.000 A 
ATOM      5  C   UNL     1       2.630   7.544  18.995  0.00  0.00    +0.000 A 
ATOM      6  C   UNL     1       3.161   6.317  18.574  0.00  0.00    +0.000 A 
ATOM      7  C   UNL     1       4.075   6.232  17.514  0.00  0.00    +0.000 A 
ATOM      8  C   UNL     1       4.564   4.993  17.102  0.00  0.00    +0.000 A 
ATOM      9  C   UNL     1       4.089   3.875  17.776  0.00  0.00    +0.000 A 
ATOM     10  N   UNL     1       3.221   3.919  18.818  0.00  0.00    +0.000 NA
ATOM     11  C   UNL     1       2.784   5.130  19.222  0.00  0.00    +0.000 A 
ATOM     12  C   UNL     1       1.946   5.286  20.316  0.00  0.00    +0.000 A 
ATOM     13  N   UNL     1       1.473   6.465  20.799  0.00  0.00    +0.000 NA
ATOM     14  H   UNL     1       0.827   8.650  21.486  0.00  0.00    +0.000 HD
ENDROOT
BRANCH   1  19
ATOM     15  C   UNL     1      -1.510  14.843  20.975  0.00  0.00    +0.000 C 
ATOM     16  N   UNL     1      -0.870  13.658  20.402  0.00  0.00    +0.000 NA
ATOM     17  C   UNL     1       0.273  13.247  21.229  0.00  0.00    +0.000 C 
ATOM     18  C   UNL     1       0.988  12.047  20.605  0.00  0.00    +0.000 C 
ATOM     19  C   UNL     1       0.013  10.886  20.387  0.00  0.00    +0.000 C 
ATOM     20  C   UNL     1      -1.214  11.351  19.603  0.00  0.00    +0.000 C 
ATOM     21  C   UNL     1      -1.850  12.572  20.262  0.00  0.00    +0.000 C 
ENDBRANCH   1  19
BRANCH   8  22
ATOM     22  C   UNL     1       5.554   4.901  16.037  0.00  0.00    +0.000 A 
ATOM     23  C   UNL     1       6.863   5.486  16.006  0.00  0.00    +0.000 A 
ATOM     24  N   UNL     1       7.606   5.274  14.923  0.00  0.00    +0.000 NA
ATOM     25  S   UNL     1       6.735   4.342  13.869  0.00  0.00    +0.000 S 
ATOM     26  C   UNL     1       5.343   4.206  14.859  0.00  0.00    +0.000 A 
ENDBRANCH   8  22
TORSDOF 2
ENDMDL
MODEL 5
REMARK VINA RESULT:      -7.7      1.776      2.432
REMARK  Name = 
REMARK  3 active torsions:
REMARK  status: ('A' for Active; 'I' for Inactive)
REMARK    1  A    between atoms: C_1  and  N_2
REMARK    2  A    between atoms: C_5  and  C_6
REMARK    3  A    between atoms: C_13  and  C_14
REMARK                            x       y       z     vdW  Elec       q    Type
REMARK                         _______ _______ _______ _____ _____    ______ ____
ROOT
ATOM      1  C   UNL     1       0.076  10.209  18.742  0.00  0.00    +0.000 C 
ATOM      2  O   UNL     1       0.080   9.725  17.607  0.00  0.00    +0.000 OA
ATOM      3  N   UNL     1       0.751   9.670  19.816  0.00  0.00    +0.000 N 
ATOM      4  C   UNL     1       1.460   8.471  19.737  0.00  0.00    +0.000 A 
ATOM      5  C   UNL     1       2.314   8.195  18.679  0.00  0.00    +0.000 A 
ATOM      6  C   UNL     1       2.982   6.962  18.654  0.00  0.00    +0.000 A 
ATOM      7  C   UNL     1       3.905   6.641  17.648  0.00  0.00    +0.000 A 
ATOM      8  C   UNL     1       4.533   5.396  17.638  0.00  0.00    +0.000 A 
ATOM      9  C   UNL     1       4.183   4.509  18.648  0.00  0.00    +0.000 A 
ATOM     10  N   UNL     1       3.311   4.790  19.648  0.00  0.00    +0.000 NA
ATOM     11  C   UNL     1       2.738   6.012  19.659  0.00  0.00    +0.000 A 
ATOM     12  C   UNL     1       1.883   6.419  20.671  0.00  0.00    +0.000 A 
ATOM     13  N   UNL     1       1.277   7.632  20.769  0.00  0.00    +0.000 NA
ATOM     14  H   UNL     1       0.386   9.839  20.743  0.00  0.00    +0.000 HD
ENDROOT
BRANCH   1  19
ATOM     15  C   UNL     1      -1.624  15.354  20.620  0.00  0.00    +0.000 C 
ATOM     16  N   UNL     1      -0.990  14.060  20.363  0.00  0.00    +0.000 NA
ATOM     17  C   UNL     1      -1.939  12.968  20.623  0.00  0.00    +0.000 C 
ATOM     18  C   UNL     1      -1.267  11.609  20.419  0.00  0.00    +0.000 C 
ATOM     19  C   UNL     1      -0.668  11.503  19.014  0.00  0.00    +0.000 C 
ATOM     20  C   UNL     1       0.246  12.693  18.725  0.00  0.00    +0.000 C 
ATOM     21  C   UNL     1      -0.478  14.011  18.987  0.00  0.00    +0.000 C 
ENDBRANCH   1  19
BRANCH   8  22
ATOM     22  C   UNL     1       5.532   5.075  16.627  0.00  0.00    +0.000 A 
ATOM     23  C   UNL     1       6.943   4.904  16.815  0.00  0.00    +0.000 A 
ATOM     24  N   UNL     1       7.675   4.614  15.743  0.00  0.00    +0.000 NA
ATOM     25  S   UNL     1       6.670   4.537  14.432  0.00  0.00    +0.000 S 
ATOM     26  C   UNL     1       5.229   4.891  15.289  0.00  0.00    +0.000 A 
ENDBRANCH   8  22
TORSDOF 2
ENDMDL
MODEL 6
REMARK VINA RESULT:      -7.6      1.247      1.831
REMARK  Name = 
REMARK  3 active torsions:
REMARK  status: ('A' for Active; 'I' for Inactive)
REMARK    1  A    between atoms: C_1  and  N_2
REMARK    2  A    between atoms: C_5  and  C_6
REMARK    3  A    between atoms: C_13  and  C_14
REMARK                            x       y       z     vdW  Elec       q    Type
REMARK                         _______ _______ _______ _____ _____    ______ ____
ROOT
ATOM      1  C   UNL     1       0.976   9.423  19.136  0.00  0.00    +0.000 C 
ATOM      2  O   UNL     1       0.846   9.260  17.920  0.00  0.00    +0.000 OA
ATOM      3  N   UNL     1       1.664   8.561  19.963  0.00  0.00    +0.000 N 
ATOM      4  C   UNL     1       2.233   7.372  19.508  0.00  0.00    +0.000 A 
ATOM      5  C   UNL     1       2.974   7.316  18.337  0.00  0.00    +0.000 A 
ATOM      6  C   UNL     1       3.502   6.083  17.930  0.00  0.00    +0.000 A 
ATOM      7  C   UNL     1       4.311   5.965  16.790  0.00  0.00    +0.000 A 
ATOM      8  C   UNL     1       4.798   4.718  16.397  0.00  0.00    +0.000 A 
ATOM      9  C   UNL     1       4.429   3.627  17.173  0.00  0.00    +0.000 A 
ATOM     10  N   UNL     1       3.666   3.704  18.292  0.00  0.00    +0.000 NA
ATOM     11  C   UNL     1       3.230   4.924  18.674  0.00  0.00    +0.000 A 
ATOM     12  C   UNL     1       2.498   5.117  19.836  0.00  0.00    +0.000 A 
ATOM     13  N   UNL     1       2.035   6.307  20.301  0.00  0.00    +0.000 NA
ATOM     14  H   UNL     1       1.387   8.508  20.933  0.00  0.00    +0.000 HD
ENDROOT
BRANCH   1  19
ATOM     15  C   UNL     1       0.087  14.167  22.233  0.00  0.00    +0.000 C 
ATOM     16  N   UNL     1       0.563  12.932  21.607  0.00  0.00    +0.000 NA
ATOM     17  C   UNL     1      -0.353  11.823  21.908  0.00  0.00    +0.000 C 
ATOM     18  C   UNL     1       0.170  10.514  21.312  0.00  0.00    +0.000 C 
ATOM     19  C   UNL     1       0.396  10.656  19.804  0.00  0.00    +0.000 C 
ATOM     20  C   UNL     1       1.276  11.868  19.501  0.00  0.00    +0.000 C 
ATOM     21  C   UNL     1       0.715  13.126  20.159  0.00  0.00    +0.000 C 
ENDBRANCH   1  19
BRANCH   8  22
ATOM     22  C   UNL     1       5.682   4.595  15.246  0.00  0.00    +0.000 A 
ATOM     23  C   UNL     1       5.437   3.882  14.026  0.00  0.00    +0.000 A 
ATOM     24  N   UNL     1       6.391   3.901  13.100  0.00  0.00    +0.000 NA
ATOM     25  S   UNL     1       7.657   4.797  13.675  0.00  0.00    +0.000 S 
ATOM     26  C   UNL     1       6.936   5.178  15.183  0.00  0.00    +0.000 A 
ENDBRANCH   8  22
TORSDOF 2
ENDMDL
MODEL 7
REMARK VINA RESULT:      -7.5      3.009      4.394
REMARK  Name = 
REMARK  3 active torsions:
REMARK  status: ('A' for Active; 'I' for Inactive)
REMARK    1  A    between atoms: C_1  and  N_2
REMARK    2  A    between atoms: C_5  and  C_6
REMARK    3  A    between atoms: C_13  and  C_14
REMARK                            x       y       z     vdW  Elec       q    Type
REMARK                         _______ _______ _______ _____ _____    ______ ____
ROOT
ATOM      1  C   UNL     1      -0.232  11.261  21.566  0.00  0.00    +0.000 C 
ATOM      2  O   UNL     1       0.550  10.728  22.357  0.00  0.00    +0.000 OA
ATOM      3  N   UNL     1      -0.292  10.968  20.221  0.00  0.00    +0.000 N 
ATOM      4  C   UNL     1       0.583  10.074  19.603  0.00  0.00    +0.000 A 
ATOM      5  C   UNL     1       0.885   8.841  20.163  0.00  0.00    +0.000 A 
ATOM      6  C   UNL     1       1.787   7.999  19.497  0.00  0.00    +0.000 A 
ATOM      7  C   UNL     1       2.091   6.716  19.974  0.00  0.00    +0.000 A 
ATOM      8  C   UNL     1       3.013   5.914  19.301  0.00  0.00    +0.000 A 
ATOM      9  C   UNL     1       3.609   6.457  18.170  0.00  0.00    +0.000 A 
ATOM     10  N   UNL     1       3.326   7.684  17.667  0.00  0.00    +0.000 NA
ATOM     11  C   UNL     1       2.408   8.433  18.315  0.00  0.00    +0.000 A 
ATOM     12  C   UNL     1       2.003   9.674  17.846  0.00  0.00    +0.000 A 
ATOM     13  N   UNL     1       1.077  10.483  18.423  0.00  0.00    +0.000 NA
ATOM     14  H   UNL     1      -0.613  11.688  19.589  0.00  0.00    +0.000 HD
ENDROOT
BRANCH   1  19
ATOM     15  C   UNL     1      -4.971  14.067  23.165  0.00  0.00    +0.000 C 
ATOM     16  N   UNL     1      -3.954  13.156  22.637  0.00  0.00    +0.000 NA
ATOM     17  C   UNL     1      -3.175  13.820  21.582  0.00  0.00    +0.000 C 
ATOM     18  C   UNL     1      -2.152  12.855  20.978  0.00  0.00    +0.000 C 
ATOM     19  C   UNL     1      -1.240  12.279  22.065  0.00  0.00    +0.000 C 
ATOM     20  C   UNL     1      -2.066  11.673  23.199  0.00  0.00    +0.000 C 
ATOM     21  C   UNL     1      -3.089  12.678  23.723  0.00  0.00    +0.000 C 
ENDBRANCH   1  19
BRANCH   8  22
ATOM     22  C   UNL     1       3.294   4.561  19.761  0.00  0.00    +0.000 A 
ATOM     23  C   UNL     1       2.587   3.809  20.756  0.00  0.00    +0.000 A 
ATOM     24  N   UNL     1       3.021   2.580  21.023  0.00  0.00    +0.000 NA
ATOM     25  S   UNL     1       4.335   2.273  20.066  0.00  0.00    +0.000 S 
ATOM     26  C   UNL     1       4.337   3.792  19.272  0.00  0.00    +0.000 A 
ENDBRANCH   8  22
TORSDOF 2
ENDMDL
MODEL 8
REMARK VINA RESULT:      -7.5      1.678      1.780
REMARK  Name = 
REMARK  3 active torsions:
REMARK  status: ('A' for Active; 'I' for Inactive)
REMARK    1  A    between atoms: C_1  and  N_2
REMARK    2  A    between atoms: C_5  and  C_6
REMARK    3  A    between atoms: C_13  and  C_14
REMARK                            x       y       z     vdW  Elec       q    Type
REMARK                         _______ _______ _______ _____ _____    ______ ____
ROOT
ATOM      1  C   UNL     1       1.000   9.251  19.006  0.00  0.00    +0.000 C 
ATOM      2  O   UNL     1       0.873   9.088  17.790  0.00  0.00    +0.000 OA
ATOM      3  N   UNL     1       1.751   8.432  19.822  0.00  0.00    +0.000 N 
ATOM      4  C   UNL     1       2.393   7.285  19.355  0.00  0.00    +0.000 A 
ATOM      5  C   UNL     1       3.129   7.287  18.178  0.00  0.00    +0.000 A 
ATOM      6  C   UNL     1       3.734   6.094  17.759  0.00  0.00    +0.000 A 
ATOM      7  C   UNL     1       4.541   6.038  16.613  0.00  0.00    +0.000 A 
ATOM      8  C   UNL     1       5.107   4.829  16.208  0.00  0.00    +0.000 A 
ATOM      9  C   UNL     1       4.816   3.710  16.979  0.00  0.00    +0.000 A 
ATOM     10  N   UNL     1       4.058   3.729  18.103  0.00  0.00    +0.000 NA
ATOM     11  C   UNL     1       3.545   4.915  18.496  0.00  0.00    +0.000 A 
ATOM     12  C   UNL     1       2.810   5.051  19.664  0.00  0.00    +0.000 A 
ATOM     13  N   UNL     1       2.273   6.204  20.142  0.00  0.00    +0.000 NA
ATOM     14  H   UNL     1       1.484   8.353  20.794  0.00  0.00    +0.000 HD
ENDROOT
BRANCH   1  19
ATOM     15  C   UNL     1      -1.337  14.328  20.289  0.00  0.00    +0.000 C 
ATOM     16  N   UNL     1      -0.651  13.171  19.712  0.00  0.00    +0.000 NA
ATOM     17  C   UNL     1       0.511  12.805  20.535  0.00  0.00    +0.000 C 
ATOM     18  C   UNL     1       1.272  11.637  19.905  0.00  0.00    +0.000 C 
ATOM     19  C   UNL     1       0.345  10.438  19.687  0.00  0.00    +0.000 C 
ATOM     20  C   UNL     1      -0.902  10.854  18.907  0.00  0.00    +0.000 C 
ATOM     21  C   UNL     1      -1.586  12.047  19.571  0.00  0.00    +0.000 C 
ENDBRANCH   1  19
BRANCH   8  22
ATOM     22  C   UNL     1       5.989   4.773  15.050  0.00  0.00    +0.000 A 
ATOM     23  C   UNL     1       7.217   5.486  14.848  0.00  0.00    +0.000 A 
ATOM     24  N   UNL     1       7.865   5.284  13.705  0.00  0.00    +0.000 NA
ATOM     25  S   UNL     1       6.999   4.203  12.800  0.00  0.00    +0.000 S 
ATOM     26  C   UNL     1       5.737   3.987  13.939  0.00  0.00    +0.000 A 
ENDBRANCH   8  22
TORSDOF 2
ENDMDL
MODEL 9
REMARK VINA RESULT:      -7.5      2.058      3.002
REMARK  Name = 
REMARK  3 active torsions:
REMARK  status: ('A' for Active; 'I' for Inactive)
REMARK    1  A    between atoms: C_1  and  N_2
REMARK    2  A    between atoms: C_5  and  C_6
REMARK    3  A    between atoms: C_13  and  C_14
REMARK                            x       y       z     vdW  Elec       q    Type
REMARK                         _______ _______ _______ _____ _____    ______ ____
ROOT
ATOM      1  C   UNL     1      -0.368  10.955  18.911  0.00  0.00    +0.000 C 
ATOM      2  O   UNL     1      -0.497  10.375  17.831  0.00  0.00    +0.000 OA
ATOM      3  N   UNL     1       0.394  10.483  19.958  0.00  0.00    +0.000 N 
ATOM      4  C   UNL     1       1.050   9.252  19.918  0.00  0.00    +0.000 A 
ATOM      5  C   UNL     1       1.782   8.848  18.811  0.00  0.00    +0.000 A 
ATOM      6  C   UNL     1       2.401   7.591  18.833  0.00  0.00    +0.000 A 
ATOM      7  C   UNL     1       3.205   7.144  17.774  0.00  0.00    +0.000 A 
ATOM      8  C   UNL     1       3.786   5.877  17.815  0.00  0.00    +0.000 A 
ATOM      9  C   UNL     1       3.511   5.097  18.931  0.00  0.00    +0.000 A 
ATOM     10  N   UNL     1       2.756   5.501  19.983  0.00  0.00    +0.000 NA
ATOM     11  C   UNL     1       2.229   6.743  19.938  0.00  0.00    +0.000 A 
ATOM     12  C   UNL     1       1.496   7.273  20.990  0.00  0.00    +0.000 A 
ATOM     13  N   UNL     1       0.945   8.515  21.035  0.00  0.00    +0.000 NA
ATOM     14  H   UNL     1       0.132  10.747  20.897  0.00  0.00    +0.000 HD
ENDROOT
BRANCH   1  19
ATOM     15  C   UNL     1      -1.949  16.126  20.824  0.00  0.00    +0.000 C 
ATOM     16  N   UNL     1      -1.391  14.792  20.592  0.00  0.00    +0.000 NA
ATOM     17  C   UNL     1      -2.463  13.786  20.586  0.00  0.00    +0.000 C 
ATOM     18  C   UNL     1      -1.884  12.381  20.409  0.00  0.00    +0.000 C 
ATOM     19  C   UNL     1      -1.037  12.298  19.137  0.00  0.00    +0.000 C 
ATOM     20  C   UNL     1       0.015  13.407  19.115  0.00  0.00    +0.000 C 
ATOM     21  C   UNL     1      -0.629  14.773  19.337  0.00  0.00    +0.000 C 
ENDBRANCH   1  19
BRANCH   8  22
ATOM     22  C   UNL     1       4.664   5.427  16.744  0.00  0.00    +0.000 A 
ATOM     23  C   UNL     1       5.289   6.226  15.730  0.00  0.00    +0.000 A 
ATOM     24  N   UNL     1       6.058   5.602  14.842  0.00  0.00    +0.000 NA
ATOM     25  S   UNL     1       6.056   3.986  15.197  0.00  0.00    +0.000 S 
ATOM     26  C   UNL     1       5.022   4.103  16.558  0.00  0.00    +0.000 A 
ENDBRANCH   8  22
TORSDOF 2
ENDMDL
