MODEL 1
REMARK VINA RESULT:      -7.7      0.000      0.000
REMARK  Name = 
REMARK  5 active torsions:
REMARK  status: ('A' for Active; 'I' for Inactive)
REMARK    1  A    between atoms: C_1  and  O_2
REMARK    2  A    between atoms: O_2  and  C_3
REMARK    3  A    between atoms: C_5  and  C_6
REMARK    4  A    between atoms: N_17  and  C_18
REMARK    5  A    between atoms: C_18  and  C_19
REMARK                            x       y       z     vdW  Elec       q    Type
REMARK                         _______ _______ _______ _____ _____    ______ ____
ROOT
ATOM      1  C   UNL     1       2.828   7.791  17.813  0.00  0.00    +0.000 A 
ATOM      2  N   UNL     1       2.082   6.786  18.307  0.00  0.00    +0.000 NA
ATOM      3  C   UNL     1       2.699   5.621  18.630  0.00  0.00    +0.000 A 
ATOM      4  C   UNL     1       4.069   5.488  18.418  0.00  0.00    +0.000 A 
ATOM      5  N   UNL     1       4.938   4.429  18.547  0.00  0.00    +0.000 NA
ATOM      6  C   UNL     1       6.080   4.874  18.083  0.00  0.00    +0.000 A 
ATOM      7  N   UNL     1       6.043   6.215  17.748  0.00  0.00    +0.000 N 
ATOM      8  C   UNL     1       7.143   6.910  17.242  0.00  0.00    +0.000 C 
ATOM      9  O   UNL     1       7.940   6.307  16.533  0.00  0.00    +0.000 OA
ATOM     10  N   UNL     1       7.255   8.193  17.710  0.00  0.00    +0.000 N 
ATOM     11  C   UNL     1       4.733   6.618  17.943  0.00  0.00    +0.000 A 
ATOM     12  N   UNL     1       4.169   7.808  17.638  0.00  0.00    +0.000 NA
ATOM     13  H   UNL     1       6.550   8.591  18.321  0.00  0.00    +0.000 HD
ENDROOT
BRANCH   3  14
ATOM     14  C   UNL     1       1.895   4.524  19.131  0.00  0.00    +0.000 A 
ATOM     15  C   UNL     1       1.359   4.191  20.363  0.00  0.00    +0.000 A 
ATOM     16  C   UNL     1       0.670   2.967  20.199  0.00  0.00    +0.000 A 
ATOM     17  C   UNL     1       0.821   2.619  18.880  0.00  0.00    +0.000 A 
ATOM     18  O   UNL     1       1.558   3.553  18.223  0.00  0.00    +0.000 OA
ENDBRANCH   3  14
BRANCH   1  20
ATOM     19  C   UNL     1       1.261   9.446  18.361  0.00  0.00    +0.000 C 
ATOM     20  O   UNL     1       2.189   8.942  17.397  0.00  0.00    +0.000 OA
ENDBRANCH   1  20
BRANCH  10  21
ATOM     21  C   UNL     1       8.357   9.025  17.281  0.00  0.00    +0.000 C 
BRANCH  21  22
ATOM     22  C   UNL     1       8.681  10.133  18.247  0.00  0.00    +0.000 A 
ATOM     23  C   UNL     1       9.071   9.850  19.564  0.00  0.00    +0.000 A 
ATOM     24  C   UNL     1       9.433  10.882  20.436  0.00  0.00    +0.000 A 
ATOM     25  C   UNL     1       9.401  12.208  20.006  0.00  0.00    +0.000 A 
ATOM     26  C   UNL     1       9.001  12.503  18.704  0.00  0.00    +0.000 A 
ATOM     27  C   UNL     1       8.635  11.470  17.834  0.00  0.00    +0.000 A 
ENDBRANCH  21  22
ENDBRANCH  10  21
TORSDOF 4
ENDMDL
MODEL 2
REMARK VINA RESULT:      -7.5      2.775      6.672
REMARK  Name = 
REMARK  5 active torsions:
REMARK  status: ('A' for Active; 'I' for Inactive)
REMARK    1  A    between atoms: C_1  and  O_2
REMARK    2  A    between atoms: O_2  and  C_3
REMARK    3  A    between atoms: C_5  and  C_6
REMARK    4  A    between atoms: N_17  and  C_18
REMARK    5  A    between atoms: C_18  and  C_19
REMARK                            x       y       z     vdW  Elec       q    Type
REMARK                         _______ _______ _______ _____ _____    ______ ____
ROOT
ATOM      1  C   UNL     1       6.847   6.557  17.489  0.00  0.00    +0.000 A 
ATOM      2  N   UNL     1       7.155   6.098  16.262  0.00  0.00    +0.000 NA
ATOM      3  C   UNL     1       6.264   5.292  15.631  0.00  0.00    +0.000 A 
ATOM      4  C   UNL     1       5.079   4.941  16.275  0.00  0.00    +0.000 A 
ATOM      5  N   UNL     1       4.053   4.085  15.946  0.00  0.00    +0.000 NA
ATOM      6  C   UNL     1       3.275   4.075  17.001  0.00  0.00    +0.000 A 
ATOM      7  N   UNL     1       3.676   4.966  17.978  0.00  0.00    +0.000 N 
ATOM      8  C   UNL     1       2.997   5.136  19.187  0.00  0.00    +0.000 C 
ATOM      9  O   UNL     1       2.438   4.166  19.685  0.00  0.00    +0.000 OA
ATOM     10  N   UNL     1       2.945   6.436  19.618  0.00  0.00    +0.000 N 
ATOM     11  C   UNL     1       4.861   5.519  17.524  0.00  0.00    +0.000 A 
ATOM     12  N   UNL     1       5.701   6.352  18.178  0.00  0.00    +0.000 NA
ATOM     13  H   UNL     1       3.422   7.174  19.113  0.00  0.00    +0.000 HD
ENDROOT
BRANCH   3  14
ATOM     14  C   UNL     1       6.605   4.768  14.324  0.00  0.00    +0.000 A 
ATOM     15  C   UNL     1       6.184   3.689  13.565  0.00  0.00    +0.000 A 
ATOM     16  C   UNL     1       6.922   3.718  12.359  0.00  0.00    +0.000 A 
ATOM     17  C   UNL     1       7.751   4.808  12.444  0.00  0.00    +0.000 A 
ATOM     18  O   UNL     1       7.568   5.453  13.627  0.00  0.00    +0.000 OA
ENDBRANCH   3  14
BRANCH   1  20
ATOM     19  C   UNL     1       7.894   8.644  17.694  0.00  0.00    +0.000 C 
ATOM     20  O   UNL     1       7.790   7.300  18.170  0.00  0.00    +0.000 OA
ENDBRANCH   1  20
BRANCH  10  21
ATOM     21  C   UNL     1       2.259   6.762  20.849  0.00  0.00    +0.000 C 
BRANCH  21  22
ATOM     22  C   UNL     1       1.492   8.056  20.781  0.00  0.00    +0.000 A 
ATOM     23  C   UNL     1       0.889   8.597  21.926  0.00  0.00    +0.000 A 
ATOM     24  C   UNL     1       0.235   9.831  21.867  0.00  0.00    +0.000 A 
ATOM     25  C   UNL     1       0.167  10.535  20.665  0.00  0.00    +0.000 A 
ATOM     26  C   UNL     1       0.749  10.000  19.518  0.00  0.00    +0.000 A 
ATOM     27  C   UNL     1       1.401   8.762  19.577  0.00  0.00    +0.000 A 
ENDBRANCH  21  22
ENDBRANCH  10  21
TORSDOF 4
ENDMDL
MODEL 3
REMARK VINA RESULT:      -7.5      2.851      6.615
REMARK  Name = 
REMARK  5 active torsions:
REMARK  status: ('A' for Active; 'I' for Inactive)
REMARK    1  A    between atoms: C_1  and  O_2
REMARK    2  A    between atoms: O_2  and  C_3
REMARK    3  A    between atoms: C_5  and  C_6
REMARK    4  A    between atoms: N_17  and  C_18
REMARK    5  A    between atoms: C_18  and  C_19
REMARK                            x       y       z     vdW  Elec       q    Type
REMARK                         _______ _______ _______ _____ _____    ______ ____
ROOT
ATOM      1  C   UNL     1       6.176   7.020  17.151  0.00  0.00    +0.000 A 
ATOM      2  N   UNL     1       6.482   6.423  15.984  0.00  0.00    +0.000 NA
ATOM      3  C   UNL     1       5.742   5.356  15.589  0.00  0.00    +0.000 A 
ATOM      4  C   UNL     1       4.714   4.893  16.407  0.00  0.00    +0.000 A 
ATOM      5  N   UNL     1       3.876   3.804  16.331  0.00  0.00    +0.000 NA
ATOM      6  C   UNL     1       3.202   3.822  17.455  0.00  0.00    +0.000 A 
ATOM      7  N   UNL     1       3.472   4.934  18.231  0.00  0.00    +0.000 N 
ATOM      8  C   UNL     1       2.866   5.173  19.466  0.00  0.00    +0.000 C 
ATOM      9  O   UNL     1       2.570   4.213  20.168  0.00  0.00    +0.000 OA
ATOM     10  N   UNL     1       2.566   6.491  19.693  0.00  0.00    +0.000 N 
ATOM     11  C   UNL     1       4.471   5.625  17.568  0.00  0.00    +0.000 A 
ATOM     12  N   UNL     1       5.158   6.712  17.986  0.00  0.00    +0.000 NA
ATOM     13  H   UNL     1       2.831   7.210  19.029  0.00  0.00    +0.000 HD
ENDROOT
BRANCH   3  14
ATOM     14  C   UNL     1       6.089   4.690  14.349  0.00  0.00    +0.000 A 
ATOM     15  C   UNL     1       5.537   3.660  13.609  0.00  0.00    +0.000 A 
ATOM     16  C   UNL     1       6.369   3.468  12.481  0.00  0.00    +0.000 A 
ATOM     17  C   UNL     1       7.380   4.389  12.591  0.00  0.00    +0.000 A 
ATOM     18  O   UNL     1       7.221   5.136  13.716  0.00  0.00    +0.000 OA
ENDBRANCH   3  14
BRANCH   1  20
ATOM     19  C   UNL     1       8.142   7.579  18.297  0.00  0.00    +0.000 C 
ATOM     20  O   UNL     1       6.984   8.044  17.599  0.00  0.00    +0.000 OA
ENDBRANCH   1  20
BRANCH  10  21
ATOM     21  C   UNL     1       1.920   6.883  20.927  0.00  0.00    +0.000 C 
BRANCH  21  22
ATOM     22  C   UNL     1       1.311   8.258  20.871  0.00  0.00    +0.000 A 
ATOM     23  C   UNL     1       1.292   8.990  19.675  0.00  0.00    +0.000 A 
ATOM     24  C   UNL     1       0.666  10.239  19.618  0.00  0.00    +0.000 A 
ATOM     25  C   UNL     1       0.061  10.776  20.754  0.00  0.00    +0.000 A 
ATOM     26  C   UNL     1       0.088  10.065  21.952  0.00  0.00    +0.000 A 
ATOM     27  C   UNL     1       0.717   8.816  22.009  0.00  0.00    +0.000 A 
ENDBRANCH  21  22
ENDBRANCH  10  21
TORSDOF 4
ENDMDL
MODEL 4
REMARK VINA RESULT:      -7.3      3.901      6.873
REMARK  Name = 
REMARK  5 active torsions:
REMARK  status: ('A' for Active; 'I' for Inactive)
REMARK    1  A    between atoms: C_1  and  O_2
REMARK    2  A    between atoms: O_2  and  C_3
REMARK    3  A    between atoms: C_5  and  C_6
REMARK    4  A    between atoms: N_17  and  C_18
REMARK    5  A    between atoms: C_18  and  C_19
REMARK                            x       y       z     vdW  Elec       q    Type
REMARK                         _______ _______ _______ _____ _____    ______ ____
ROOT
ATOM      1  C   UNL     1       2.833   3.915  17.597  0.00  0.00    +0.000 A 
ATOM      2  N   UNL     1       2.230   4.768  18.446  0.00  0.00    +0.000 NA
ATOM      3  C   UNL     1       2.746   6.015  18.585  0.00  0.00    +0.000 A 
ATOM      4  C   UNL     1       3.892   6.368  17.875  0.00  0.00    +0.000 A 
ATOM      5  N   UNL     1       4.688   7.491  17.880  0.00  0.00    +0.000 NA
ATOM      6  C   UNL     1       5.693   7.191  17.094  0.00  0.00    +0.000 A 
ATOM      7  N   UNL     1       5.551   5.961  16.478  0.00  0.00    +0.000 N 
ATOM      8  C   UNL     1       6.492   5.435  15.590  0.00  0.00    +0.000 C 
ATOM      9  O   UNL     1       7.675   5.700  15.767  0.00  0.00    +0.000 OA
ATOM     10  N   UNL     1       5.942   4.759  14.532  0.00  0.00    +0.000 N 
ATOM     11  C   UNL     1       4.393   5.409  16.997  0.00  0.00    +0.000 A 
ATOM     12  N   UNL     1       3.896   4.167  16.800  0.00  0.00    +0.000 NA
ATOM     13  H   UNL     1       4.940   4.620  14.465  0.00  0.00    +0.000 HD
ENDROOT
BRANCH   3  14
ATOM     14  C   UNL     1       2.120   6.926  19.523  0.00  0.00    +0.000 A 
ATOM     15  C   UNL     1       1.670   6.825  20.828  0.00  0.00    +0.000 A 
ATOM     16  C   UNL     1       1.139   8.087  21.182  0.00  0.00    +0.000 A 
ATOM     17  C   UNL     1       1.292   8.889  20.079  0.00  0.00    +0.000 A 
ATOM     18  O   UNL     1       1.886   8.200  19.069  0.00  0.00    +0.000 OA
ENDBRANCH   3  14
BRANCH   1  20
ATOM     19  C   UNL     1       3.104   1.712  18.348  0.00  0.00    +0.000 C 
ATOM     20  O   UNL     1       2.367   2.619  17.524  0.00  0.00    +0.000 OA
ENDBRANCH   1  20
BRANCH  10  21
ATOM     21  C   UNL     1       6.799   4.174  13.525  0.00  0.00    +0.000 C 
BRANCH  21  22
ATOM     22  C   UNL     1       6.048   3.379  12.490  0.00  0.00    +0.000 A 
ATOM     23  C   UNL     1       6.602   2.217  11.932  0.00  0.00    +0.000 A 
ATOM     24  C   UNL     1       5.871   1.450  11.020  0.00  0.00    +0.000 A 
ATOM     25  C   UNL     1       4.584   1.838  10.648  0.00  0.00    +0.000 A 
ATOM     26  C   UNL     1       4.029   2.998  11.183  0.00  0.00    +0.000 A 
ATOM     27  C   UNL     1       4.764   3.768  12.093  0.00  0.00    +0.000 A 
ENDBRANCH  21  22
ENDBRANCH  10  21
TORSDOF 4
ENDMDL
MODEL 5
REMARK VINA RESULT:      -7.3      4.087      6.834
REMARK  Name = 
REMARK  5 active torsions:
REMARK  status: ('A' for Active; 'I' for Inactive)
REMARK    1  A    between atoms: C_1  and  O_2
REMARK    2  A    between atoms: O_2  and  C_3
REMARK    3  A    between atoms: C_5  and  C_6
REMARK    4  A    between atoms: N_17  and  C_18
REMARK    5  A    between atoms: C_18  and  C_19
REMARK                            x       y       z     vdW  Elec       q    Type
REMARK                         _______ _______ _______ _____ _____    ______ ____
ROOT
ATOM      1  C   UNL     1       4.155   6.473  17.231  0.00  0.00    +0.000 A 
ATOM      2  N   UNL     1       4.317   5.161  17.486  0.00  0.00    +0.000 NA
ATOM      3  C   UNL     1       3.627   4.612  18.518  0.00  0.00    +0.000 A 
ATOM      4  C   UNL     1       2.800   5.418  19.297  0.00  0.00    +0.000 A 
ATOM      5  N   UNL     1       2.069   5.182  20.439  0.00  0.00    +0.000 NA
ATOM      6  C   UNL     1       1.594   6.355  20.779  0.00  0.00    +0.000 A 
ATOM      7  N   UNL     1       1.883   7.345  19.859  0.00  0.00    +0.000 N 
ATOM      8  C   UNL     1       1.471   8.671  20.005  0.00  0.00    +0.000 C 
ATOM      9  O   UNL     1       1.391   9.138  21.134  0.00  0.00    +0.000 OA
ATOM     10  N   UNL     1       1.089   9.267  18.831  0.00  0.00    +0.000 N 
ATOM     11  C   UNL     1       2.685   6.749  18.901  0.00  0.00    +0.000 A 
ATOM     12  N   UNL     1       3.325   7.334  17.864  0.00  0.00    +0.000 NA
ATOM     13  H   UNL     1       1.169   8.780  17.946  0.00  0.00    +0.000 HD
ENDROOT
BRANCH   3  14
ATOM     14  C   UNL     1       3.824   3.207  18.816  0.00  0.00    +0.000 A 
ATOM     15  C   UNL     1       3.326   2.023  18.303  0.00  0.00    +0.000 A 
ATOM     16  C   UNL     1       3.910   0.971  19.046  0.00  0.00    +0.000 A 
ATOM     17  C   UNL     1       4.731   1.567  19.970  0.00  0.00    +0.000 A 
ATOM     18  O   UNL     1       4.690   2.919  19.840  0.00  0.00    +0.000 OA
ENDBRANCH   3  14
BRANCH   1  20
ATOM     19  C   UNL     1       5.482   6.097  15.337  0.00  0.00    +0.000 C 
ATOM     20  O   UNL     1       4.924   7.052  16.244  0.00  0.00    +0.000 OA
ENDBRANCH   1  20
BRANCH  10  21
ATOM     21  C   UNL     1       0.624  10.638  18.835  0.00  0.00    +0.000 C 
BRANCH  21  22
ATOM     22  C   UNL     1      -0.827  10.777  18.460  0.00  0.00    +0.000 A 
ATOM     23  C   UNL     1      -1.402   9.950  17.483  0.00  0.00    +0.000 A 
ATOM     24  C   UNL     1      -2.765  10.043  17.187  0.00  0.00    +0.000 A 
ATOM     25  C   UNL     1      -3.569  10.967  17.855  0.00  0.00    +0.000 A 
ATOM     26  C   UNL     1      -3.006  11.804  18.817  0.00  0.00    +0.000 A 
ATOM     27  C   UNL     1      -1.640  11.713  19.109  0.00  0.00    +0.000 A 
ENDBRANCH  21  22
ENDBRANCH  10  21
TORSDOF 4
ENDMDL
MODEL 6
REMARK VINA RESULT:      -7.3      3.969      7.214
REMARK  Name = 
REMARK  5 active torsions:
REMARK  status: ('A' for Active; 'I' for Inactive)
REMARK    1  A    between atoms: C_1  and  O_2
REMARK    2  A    between atoms: O_2  and  C_3
REMARK    3  A    between atoms: C_5  and  C_6
REMARK    4  A    between atoms: N_17  and  C_18
REMARK    5  A    between atoms: C_18  and  C_19
REMARK                            x       y       z     vdW  Elec       q    Type
REMARK                         _______ _______ _______ _____ _____    ______ ____
ROOT
ATOM      1  C   UNL     1      -0.636  10.781  18.729  0.00  0.00    +0.000 A 
ATOM      2  N   UNL     1      -0.885  11.728  19.652  0.00  0.00    +0.000 NA
ATOM      3  C   UNL     1      -0.344  11.582  20.889  0.00  0.00    +0.000 A 
ATOM      4  C   UNL     1       0.422  10.455  21.176  0.00  0.00    +0.000 A 
ATOM      5  N   UNL     1       1.003   9.987  22.333  0.00  0.00    +0.000 NA
ATOM      6  C   UNL     1       1.487   8.812  22.012  0.00  0.00    +0.000 A 
ATOM      7  N   UNL     1       1.351   8.518  20.668  0.00  0.00    +0.000 N 
ATOM      8  C   UNL     1       1.801   7.327  20.094  0.00  0.00    +0.000 C 
ATOM      9  O   UNL     1       1.770   6.305  20.768  0.00  0.00    +0.000 OA
ATOM     10  N   UNL     1       2.343   7.482  18.845  0.00  0.00    +0.000 N 
ATOM     11  C   UNL     1       0.640   9.572  20.120  0.00  0.00    +0.000 A 
ATOM     12  N   UNL     1       0.152   9.690  18.865  0.00  0.00    +0.000 NA
ATOM     13  H   UNL     1       2.346   8.384  18.383  0.00  0.00    +0.000 HD
ENDROOT
BRANCH   3  14
ATOM     14  C   UNL     1      -0.636  12.582  21.897  0.00  0.00    +0.000 A 
ATOM     15  C   UNL     1      -1.425  12.620  23.034  0.00  0.00    +0.000 A 
ATOM     16  C   UNL     1      -1.288  13.912  23.591  0.00  0.00    +0.000 A 
ATOM     17  C   UNL     1      -0.427  14.594  22.768  0.00  0.00    +0.000 A 
ATOM     18  O   UNL     1      -0.023  13.800  21.741  0.00  0.00    +0.000 OA
ENDBRANCH   3  14
BRANCH   1  20
ATOM     19  C   UNL     1      -2.331   9.945  17.343  0.00  0.00    +0.000 C 
ATOM     20  O   UNL     1      -1.259  10.878  17.502  0.00  0.00    +0.000 OA
ENDBRANCH   1  20
BRANCH  10  21
ATOM     21  C   UNL     1       2.865   6.333  18.137  0.00  0.00    +0.000 C 
BRANCH  21  22
ATOM     22  C   UNL     1       4.366   6.232  18.186  0.00  0.00    +0.000 A 
ATOM     23  C   UNL     1       5.005   5.472  19.177  0.00  0.00    +0.000 A 
ATOM     24  C   UNL     1       6.396   5.331  19.176  0.00  0.00    +0.000 A 
ATOM     25  C   UNL     1       7.165   5.953  18.193  0.00  0.00    +0.000 A 
ATOM     26  C   UNL     1       6.543   6.723  17.213  0.00  0.00    +0.000 A 
ATOM     27  C   UNL     1       5.151   6.867  17.217  0.00  0.00    +0.000 A 
ENDBRANCH  21  22
ENDBRANCH  10  21
TORSDOF 4
ENDMDL
MODEL 7
REMARK VINA RESULT:      -7.1      2.981      6.492
REMARK  Name = 
REMARK  5 active torsions:
REMARK  status: ('A' for Active; 'I' for Inactive)
REMARK    1  A    between atoms: C_1  and  O_2
REMARK    2  A    between atoms: O_2  and  C_3
REMARK    3  A    between atoms: C_5  and  C_6
REMARK    4  A    between atoms: N_17  and  C_18
REMARK    5  A    between atoms: C_18  and  C_19
REMARK                            x       y       z     vdW  Elec       q    Type
REMARK                         _______ _______ _______ _____ _____    ______ ____
ROOT
ATOM      1  C   UNL     1       6.184   6.878  16.943  0.00  0.00    +0.000 A 
ATOM      2  N   UNL     1       6.456   6.263  15.777  0.00  0.00    +0.000 NA
ATOM      3  C   UNL     1       5.689   5.205  15.410  0.00  0.00    +0.000 A 
ATOM      4  C   UNL     1       4.670   4.769  16.253  0.00  0.00    +0.000 A 
ATOM      5  N   UNL     1       3.812   3.694  16.207  0.00  0.00    +0.000 NA
ATOM      6  C   UNL     1       3.161   3.737  17.344  0.00  0.00    +0.000 A 
ATOM      7  N   UNL     1       3.467   4.852  18.102  0.00  0.00    +0.000 N 
ATOM      8  C   UNL     1       2.890   5.115  19.346  0.00  0.00    +0.000 C 
ATOM      9  O   UNL     1       2.592   4.169  20.065  0.00  0.00    +0.000 OA
ATOM     10  N   UNL     1       2.619   6.441  19.564  0.00  0.00    +0.000 N 
ATOM     11  C   UNL     1       4.464   5.519  17.410  0.00  0.00    +0.000 A 
ATOM     12  N   UNL     1       5.178   6.597  17.803  0.00  0.00    +0.000 NA
ATOM     13  H   UNL     1       2.882   7.148  18.887  0.00  0.00    +0.000 HD
ENDROOT
BRANCH   3  14
ATOM     14  C   UNL     1       5.998   4.520  14.170  0.00  0.00    +0.000 A 
ATOM     15  C   UNL     1       7.140   4.355  13.407  0.00  0.00    +0.000 A 
ATOM     16  C   UNL     1       6.780   3.573  12.284  0.00  0.00    +0.000 A 
ATOM     17  C   UNL     1       5.441   3.303  12.422  0.00  0.00    +0.000 A 
ATOM     18  O   UNL     1       4.957   3.868  13.560  0.00  0.00    +0.000 OA
ENDBRANCH   3  14
BRANCH   1  20
ATOM     19  C   UNL     1       8.035   7.445  18.264  0.00  0.00    +0.000 C 
ATOM     20  O   UNL     1       7.019   7.893  17.363  0.00  0.00    +0.000 OA
ENDBRANCH   1  20
BRANCH  10  21
ATOM     21  C   UNL     1       2.005   6.858  20.806  0.00  0.00    +0.000 C 
BRANCH  21  22
ATOM     22  C   UNL     1       1.341   8.206  20.722  0.00  0.00    +0.000 A 
ATOM     23  C   UNL     1       0.736   8.784  21.848  0.00  0.00    +0.000 A 
ATOM     24  C   UNL     1       0.178  10.064  21.776  0.00  0.00    +0.000 A 
ATOM     25  C   UNL     1       0.209  10.778  20.578  0.00  0.00    +0.000 A 
ATOM     26  C   UNL     1       0.794  10.209  19.449  0.00  0.00    +0.000 A 
ATOM     27  C   UNL     1       1.348   8.925  19.521  0.00  0.00    +0.000 A 
ENDBRANCH  21  22
ENDBRANCH  10  21
TORSDOF 4
ENDMDL
MODEL 8
REMARK VINA RESULT:      -6.9      3.830      6.572
REMARK  Name = 
REMARK  5 active torsions:
REMARK  status: ('A' for Active; 'I' for Inactive)
REMARK    1  A    between atoms: C_1  and  O_2
REMARK    2  A    between atoms: O_2  and  C_3
REMARK    3  A    between atoms: C_5  and  C_6
REMARK    4  A    between atoms: N_17  and  C_18
REMARK    5  A    between atoms: C_18  and  C_19
REMARK                            x       y       z     vdW  Elec       q    Type
REMARK                         _______ _______ _______ _____ _____    ______ ____
ROOT
ATOM      1  C   UNL     1       2.525   5.218  20.385  0.00  0.00    +0.000 A 
ATOM      2  N   UNL     1       3.540   4.777  19.618  0.00  0.00    +0.000 NA
ATOM      3  C   UNL     1       3.983   5.573  18.612  0.00  0.00    +0.000 A 
ATOM      4  C   UNL     1       3.365   6.800  18.384  0.00  0.00    +0.000 A 
ATOM      5  N   UNL     1       3.517   7.758  17.408  0.00  0.00    +0.000 NA
ATOM      6  C   UNL     1       2.570   8.632  17.647  0.00  0.00    +0.000 A 
ATOM      7  N   UNL     1       1.860   8.360  18.801  0.00  0.00    +0.000 N 
ATOM      8  C   UNL     1       0.811   9.158  19.263  0.00  0.00    +0.000 C 
ATOM      9  O   UNL     1       0.102   9.726  18.440  0.00  0.00    +0.000 OA
ATOM     10  N   UNL     1       0.777   9.299  20.626  0.00  0.00    +0.000 N 
ATOM     11  C   UNL     1       2.356   7.158  19.277  0.00  0.00    +0.000 A 
ATOM     12  N   UNL     1       1.902   6.416  20.311  0.00  0.00    +0.000 NA
ATOM     13  H   UNL     1       1.432   8.804  21.220  0.00  0.00    +0.000 HD
ENDROOT
BRANCH   3  14
ATOM     14  C   UNL     1       5.053   5.089  17.763  0.00  0.00    +0.000 A 
ATOM     15  C   UNL     1       5.118   4.548  16.491  0.00  0.00    +0.000 A 
ATOM     16  C   UNL     1       6.479   4.264  16.230  0.00  0.00    +0.000 A 
ATOM     17  C   UNL     1       7.170   4.646  17.353  0.00  0.00    +0.000 A 
ATOM     18  O   UNL     1       6.319   5.149  18.286  0.00  0.00    +0.000 OA
ENDBRANCH   3  14
BRANCH   1  20
ATOM     19  C   UNL     1       1.221   3.315  20.798  0.00  0.00    +0.000 C 
ATOM     20  O   UNL     1       2.012   4.372  21.347  0.00  0.00    +0.000 OA
ENDBRANCH   1  20
BRANCH  10  21
ATOM     21  C   UNL     1      -0.249  10.112  21.242  0.00  0.00    +0.000 C 
BRANCH  21  22
ATOM     22  C   UNL     1       0.127  11.566  21.352  0.00  0.00    +0.000 A 
ATOM     23  C   UNL     1      -0.614  12.443  22.156  0.00  0.00    +0.000 A 
ATOM     24  C   UNL     1      -0.219  13.776  22.303  0.00  0.00    +0.000 A 
ATOM     25  C   UNL     1       0.913  14.251  21.642  0.00  0.00    +0.000 A 
ATOM     26  C   UNL     1       1.649  13.393  20.828  0.00  0.00    +0.000 A 
ATOM     27  C   UNL     1       1.250  12.059  20.678  0.00  0.00    +0.000 A 
ENDBRANCH  21  22
ENDBRANCH  10  21
TORSDOF 4
ENDMDL
MODEL 9
REMARK VINA RESULT:      -6.8      5.566      8.968
REMARK  Name = 
REMARK  5 active torsions:
REMARK  status: ('A' for Active; 'I' for Inactive)
REMARK    1  A    between atoms: C_1  and  O_2
REMARK    2  A    between atoms: O_2  and  C_3
REMARK    3  A    between atoms: C_5  and  C_6
REMARK    4  A    between atoms: N_17  and  C_18
REMARK    5  A    between atoms: C_18  and  C_19
REMARK                            x       y       z     vdW  Elec       q    Type
REMARK                         _______ _______ _______ _____ _____    ______ ____
ROOT
ATOM      1  C   UNL     1      -0.611  10.532  22.855  0.00  0.00    +0.000 A 
ATOM      2  N   UNL     1      -1.689  11.200  23.307  0.00  0.00    +0.000 NA
ATOM      3  C   UNL     1      -2.289  12.093  22.480  0.00  0.00    +0.000 A 
ATOM      4  C   UNL     1      -1.764  12.313  21.209  0.00  0.00    +0.000 A 
ATOM      5  N   UNL     1      -2.081  13.200  20.206  0.00  0.00    +0.000 NA
ATOM      6  C   UNL     1      -1.156  13.019  19.295  0.00  0.00    +0.000 A 
ATOM      7  N   UNL     1      -0.298  11.977  19.593  0.00  0.00    +0.000 N 
ATOM      8  C   UNL     1       0.759  11.593  18.766  0.00  0.00    +0.000 C 
ATOM      9  O   UNL     1       1.333  12.455  18.112  0.00  0.00    +0.000 OA
ATOM     10  N   UNL     1       0.952  10.237  18.704  0.00  0.00    +0.000 N 
ATOM     11  C   UNL     1      -0.673  11.525  20.847  0.00  0.00    +0.000 A 
ATOM     12  N   UNL     1      -0.061  10.602  21.622  0.00  0.00    +0.000 NA
ATOM     13  H   UNL     1       0.399   9.603  19.268  0.00  0.00    +0.000 HD
ENDROOT
BRANCH   3  14
ATOM     14  C   UNL     1      -3.430  12.839  22.973  0.00  0.00    +0.000 A 
ATOM     15  C   UNL     1      -3.594  13.926  23.813  0.00  0.00    +0.000 A 
ATOM     16  C   UNL     1      -4.984  14.172  23.907  0.00  0.00    +0.000 A 
ATOM     17  C   UNL     1      -5.592  13.225  23.122  0.00  0.00    +0.000 A 
ATOM     18  O   UNL     1      -4.664  12.414  22.550  0.00  0.00    +0.000 OA
ENDBRANCH   3  14
BRANCH   1  20
ATOM     19  C   UNL     1       1.255   9.149  23.168  0.00  0.00    +0.000 C 
ATOM     20  O   UNL     1       0.056   9.694  23.725  0.00  0.00    +0.000 OA
ENDBRANCH   1  20
BRANCH  10  21
ATOM     21  C   UNL     1       2.004   9.695  17.871  0.00  0.00    +0.000 C 
BRANCH  21  22
ATOM     22  C   UNL     1       2.445   8.317  18.287  0.00  0.00    +0.000 A 
ATOM     23  C   UNL     1       3.383   7.601  17.529  0.00  0.00    +0.000 A 
ATOM     24  C   UNL     1       3.835   6.349  17.957  0.00  0.00    +0.000 A 
ATOM     25  C   UNL     1       3.349   5.793  19.140  0.00  0.00    +0.000 A 
ATOM     26  C   UNL     1       2.405   6.488  19.893  0.00  0.00    +0.000 A 
ATOM     27  C   UNL     1       1.950   7.740  19.462  0.00  0.00    +0.000 A 
ENDBRANCH  21  22
ENDBRANCH  10  21
TORSDOF 4
ENDMDL
