MODEL 1
REMARK VINA RESULT:      -5.5      0.000      0.000
REMARK  Name = 
REMARK  14 active torsions:
REMARK  status: ('A' for Active; 'I' for Inactive)
REMARK    1  A    between atoms: C_2  and  C_3
REMARK    2  A    between atoms: C_3  and  C_4
REMARK    3  A    between atoms: C_4  and  C_5
REMARK    4  A    between atoms: C_5  and  C_6
REMARK    5  A    between atoms: C_6  and  C_7
REMARK    6  A    between atoms: C_7  and  C_8
REMARK    7  A    between atoms: C_8  and  C_9
REMARK    8  A    between atoms: C_9  and  C_10
REMARK    9  A    between atoms: C_10  and  C_11
REMARK   10  A    between atoms: C_11  and  C_12
REMARK   11  A    between atoms: C_12  and  O_13
REMARK   12  A    between atoms: C_12  and  C_14
REMARK   13  A    between atoms: C_14  and  C_15
REMARK   14  A    between atoms: C_14  and  N_16
REMARK                            x       y       z     vdW  Elec       q    Type
REMARK                         _______ _______ _______ _____ _____    ______ ____
ROOT
ATOM      1  C   UNL     1       4.530   4.530  16.955  0.00  0.00    +0.000 C 
ENDROOT
BRANCH   1   2
ATOM      2  C   UNL     1       3.464   5.468  17.532  0.00  0.00    +0.000 C 
BRANCH   2   3
ATOM      3  C   UNL     1       3.531   5.556  19.056  0.00  0.00    +0.000 C 
BRANCH   3   4
ATOM      4  C   UNL     1       2.532   6.557  19.623  0.00  0.00    +0.000 C 
BRANCH   4   5
ATOM      5  C   UNL     1       1.692   5.888  20.710  0.00  0.00    +0.000 C 
BRANCH   5   6
ATOM      6  C   UNL     1       2.131   4.445  20.930  0.00  0.00    +0.000 C 
BRANCH   6   7
ATOM      7  C   UNL     1       0.986   3.472  20.657  0.00  0.00    +0.000 C 
BRANCH   7   8
ATOM      8  C   UNL     1       1.029   2.994  19.207  0.00  0.00    +0.000 C 
BRANCH   8  10
ATOM      9  C   UNL     1       3.137   1.779  18.609  0.00  0.00    +0.000 C 
ATOM     10  C   UNL     1       1.874   1.763  19.060  0.00  0.00    +0.000 C 
ENDBRANCH   8  10
ENDBRANCH   7   8
ENDBRANCH   6   7
ENDBRANCH   5   6
ENDBRANCH   4   5
ENDBRANCH   3   4
ENDBRANCH   2   3
ENDBRANCH   1   2
BRANCH   1  11
ATOM     11  C   UNL     1       5.588   5.271  16.127  0.00  0.00    +0.000 C 
BRANCH  11  12
ATOM     12  C   UNL     1       6.606   6.006  17.006  0.00  0.00    +0.000 C 
BRANCH  12  13
ATOM     13  O   UNL     1       7.650   6.531  16.184  0.00  0.00    +0.000 OA
ATOM     14  H   UNL     1       7.473   7.479  16.068  0.00  0.00    +0.000 HD
ENDBRANCH  12  13
BRANCH  12  15
ATOM     15  C   UNL     1       7.191   5.093  18.121  0.00  0.00    +0.000 C 
ATOM     16  C   UNL     1       7.885   5.930  19.195  0.00  0.00    +0.000 C 
BRANCH  15  17
ATOM     17  N   UNL     1       8.152   4.096  17.627  0.00  0.00    +0.000 NA
ATOM     18  H   UNL     1       8.473   4.343  16.695  0.00  0.00    +0.000 HD
ATOM     19  H   UNL     1       7.732   3.169  17.581  0.00  0.00    +0.000 HD
ENDBRANCH  15  17
ENDBRANCH  12  15
ENDBRANCH  11  12
ENDBRANCH   1  11
TORSDOF 13
ENDMDL
MODEL 2
REMARK VINA RESULT:      -5.4      1.777      2.974
REMARK  Name = 
REMARK  14 active torsions:
REMARK  status: ('A' for Active; 'I' for Inactive)
REMARK    1  A    between atoms: C_2  and  C_3
REMARK    2  A    between atoms: C_3  and  C_4
REMARK    3  A    between atoms: C_4  and  C_5
REMARK    4  A    between atoms: C_5  and  C_6
REMARK    5  A    between atoms: C_6  and  C_7
REMARK    6  A    between atoms: C_7  and  C_8
REMARK    7  A    between atoms: C_8  and  C_9
REMARK    8  A    between atoms: C_9  and  C_10
REMARK    9  A    between atoms: C_10  and  C_11
REMARK   10  A    between atoms: C_11  and  C_12
REMARK   11  A    between atoms: C_12  and  O_13
REMARK   12  A    between atoms: C_12  and  C_14
REMARK   13  A    between atoms: C_14  and  C_15
REMARK   14  A    between atoms: C_14  and  N_16
REMARK                            x       y       z     vdW  Elec       q    Type
REMARK                         _______ _______ _______ _____ _____    ______ ____
ROOT
ATOM      1  C   UNL     1       5.041   4.061  19.245  0.00  0.00    +0.000 C 
ENDROOT
BRANCH   1   2
ATOM      2  C   UNL     1       4.426   3.628  17.910  0.00  0.00    +0.000 C 
BRANCH   2   3
ATOM      3  C   UNL     1       3.244   4.506  17.503  0.00  0.00    +0.000 C 
BRANCH   3   4
ATOM      4  C   UNL     1       1.979   3.695  17.254  0.00  0.00    +0.000 C 
BRANCH   4   5
ATOM      5  C   UNL     1       1.924   2.513  18.222  0.00  0.00    +0.000 C 
BRANCH   5   6
ATOM      6  C   UNL     1       0.970   2.796  19.375  0.00  0.00    +0.000 C 
BRANCH   6   7
ATOM      7  C   UNL     1       1.645   2.553  20.723  0.00  0.00    +0.000 C 
BRANCH   7   8
ATOM      8  C   UNL     1       2.084   3.877  21.345  0.00  0.00    +0.000 C 
BRANCH   8  10
ATOM      9  C   UNL     1       2.009   6.204  20.419  0.00  0.00    +0.000 C 
ATOM     10  C   UNL     1       1.397   5.042  20.697  0.00  0.00    +0.000 C 
ENDBRANCH   8  10
ENDBRANCH   7   8
ENDBRANCH   6   7
ENDBRANCH   5   6
ENDBRANCH   4   5
ENDBRANCH   3   4
ENDBRANCH   2   3
ENDBRANCH   1   2
BRANCH   1  11
ATOM     11  C   UNL     1       5.710   5.440  19.172  0.00  0.00    +0.000 C 
BRANCH  11  12
ATOM     12  C   UNL     1       7.126   5.371  18.590  0.00  0.00    +0.000 C 
BRANCH  12  13
ATOM     13  O   UNL     1       8.078   5.603  19.630  0.00  0.00    +0.000 OA
ATOM     14  H   UNL     1       7.646   5.369  20.469  0.00  0.00    +0.000 HD
ENDBRANCH  12  13
BRANCH  12  15
ATOM     15  C   UNL     1       7.333   6.379  17.423  0.00  0.00    +0.000 C 
ATOM     16  C   UNL     1       7.872   7.710  17.949  0.00  0.00    +0.000 C 
BRANCH  15  17
ATOM     17  N   UNL     1       6.113   6.652  16.652  0.00  0.00    +0.000 NA
ATOM     18  H   UNL     1       5.564   5.803  16.542  0.00  0.00    +0.000 HD
ATOM     19  H   UNL     1       6.334   7.008  15.723  0.00  0.00    +0.000 HD
ENDBRANCH  15  17
ENDBRANCH  12  15
ENDBRANCH  11  12
ENDBRANCH   1  11
TORSDOF 13
ENDMDL
MODEL 3
REMARK VINA RESULT:      -5.4      1.184      1.786
REMARK  Name = 
REMARK  14 active torsions:
REMARK  status: ('A' for Active; 'I' for Inactive)
REMARK    1  A    between atoms: C_2  and  C_3
REMARK    2  A    between atoms: C_3  and  C_4
REMARK    3  A    between atoms: C_4  and  C_5
REMARK    4  A    between atoms: C_5  and  C_6
REMARK    5  A    between atoms: C_6  and  C_7
REMARK    6  A    between atoms: C_7  and  C_8
REMARK    7  A    between atoms: C_8  and  C_9
REMARK    8  A    between atoms: C_9  and  C_10
REMARK    9  A    between atoms: C_10  and  C_11
REMARK   10  A    between atoms: C_11  and  C_12
REMARK   11  A    between atoms: C_12  and  O_13
REMARK   12  A    between atoms: C_12  and  C_14
REMARK   13  A    between atoms: C_14  and  C_15
REMARK   14  A    between atoms: C_14  and  N_16
REMARK                            x       y       z     vdW  Elec       q    Type
REMARK                         _______ _______ _______ _____ _____    ______ ____
ROOT
ATOM      1  C   UNL     1       5.093   4.320  15.981  0.00  0.00    +0.000 C 
ENDROOT
BRANCH   1   2
ATOM      2  C   UNL     1       4.002   4.046  17.021  0.00  0.00    +0.000 C 
BRANCH   2   3
ATOM      3  C   UNL     1       4.580   3.730  18.400  0.00  0.00    +0.000 C 
BRANCH   3   4
ATOM      4  C   UNL     1       4.309   4.838  19.410  0.00  0.00    +0.000 C 
BRANCH   4   5
ATOM      5  C   UNL     1       3.242   5.785  18.862  0.00  0.00    +0.000 C 
BRANCH   5   6
ATOM      6  C   UNL     1       2.232   6.153  19.942  0.00  0.00    +0.000 C 
BRANCH   6   7
ATOM      7  C   UNL     1       1.971   4.975  20.879  0.00  0.00    +0.000 C 
BRANCH   7   8
ATOM      8  C   UNL     1       0.826   4.116  20.348  0.00  0.00    +0.000 C 
BRANCH   8  10
ATOM      9  C   UNL     1       1.127   2.193  18.770  0.00  0.00    +0.000 C 
ATOM     10  C   UNL     1       1.296   2.739  19.984  0.00  0.00    +0.000 C 
ENDBRANCH   8  10
ENDBRANCH   7   8
ENDBRANCH   6   7
ENDBRANCH   5   6
ENDBRANCH   4   5
ENDBRANCH   3   4
ENDBRANCH   2   3
ENDBRANCH   1   2
BRANCH   1  11
ATOM     11  C   UNL     1       5.609   5.765  16.026  0.00  0.00    +0.000 C 
BRANCH  11  12
ATOM     12  C   UNL     1       7.065   5.849  16.498  0.00  0.00    +0.000 C 
BRANCH  12  13
ATOM     13  O   UNL     1       7.681   4.568  16.364  0.00  0.00    +0.000 OA
ATOM     14  H   UNL     1       7.595   4.305  15.433  0.00  0.00    +0.000 HD
ENDBRANCH  12  13
BRANCH  12  15
ATOM     15  C   UNL     1       7.181   6.365  17.961  0.00  0.00    +0.000 C 
ATOM     16  C   UNL     1       7.983   7.666  18.011  0.00  0.00    +0.000 C 
BRANCH  15  17
ATOM     17  N   UNL     1       7.810   5.406  18.880  0.00  0.00    +0.000 NA
ATOM     18  H   UNL     1       7.429   4.474  18.736  0.00  0.00    +0.000 HD
ATOM     19  H   UNL     1       7.651   5.666  19.851  0.00  0.00    +0.000 HD
ENDBRANCH  15  17
ENDBRANCH  12  15
ENDBRANCH  11  12
ENDBRANCH   1  11
TORSDOF 13
ENDMDL
MODEL 4
REMARK VINA RESULT:      -5.3      1.229      2.643
REMARK  Name = 
REMARK  14 active torsions:
REMARK  status: ('A' for Active; 'I' for Inactive)
REMARK    1  A    between atoms: C_2  and  C_3
REMARK    2  A    between atoms: C_3  and  C_4
REMARK    3  A    between atoms: C_4  and  C_5
REMARK    4  A    between atoms: C_5  and  C_6
REMARK    5  A    between atoms: C_6  and  C_7
REMARK    6  A    between atoms: C_7  and  C_8
REMARK    7  A    between atoms: C_8  and  C_9
REMARK    8  A    between atoms: C_9  and  C_10
REMARK    9  A    between atoms: C_10  and  C_11
REMARK   10  A    between atoms: C_11  and  C_12
REMARK   11  A    between atoms: C_12  and  O_13
REMARK   12  A    between atoms: C_12  and  C_14
REMARK   13  A    between atoms: C_14  and  C_15
REMARK   14  A    between atoms: C_14  and  N_16
REMARK                            x       y       z     vdW  Elec       q    Type
REMARK                         _______ _______ _______ _____ _____    ______ ____
ROOT
ATOM      1  C   UNL     1       5.292   5.706  15.888  0.00  0.00    +0.000 C 
ENDROOT
BRANCH   1   2
ATOM      2  C   UNL     1       4.769   4.268  15.972  0.00  0.00    +0.000 C 
BRANCH   2   3
ATOM      3  C   UNL     1       4.090   3.975  17.309  0.00  0.00    +0.000 C 
BRANCH   3   4
ATOM      4  C   UNL     1       2.645   3.522  17.137  0.00  0.00    +0.000 C 
BRANCH   4   5
ATOM      5  C   UNL     1       2.392   2.273  17.980  0.00  0.00    +0.000 C 
BRANCH   5   6
ATOM      6  C   UNL     1       2.854   2.480  19.417  0.00  0.00    +0.000 C 
BRANCH   6   7
ATOM      7  C   UNL     1       1.667   2.536  20.376  0.00  0.00    +0.000 C 
BRANCH   7   8
ATOM      8  C   UNL     1       0.999   3.909  20.317  0.00  0.00    +0.000 C 
BRANCH   8  10
ATOM      9  C   UNL     1       2.251   6.050  19.961  0.00  0.00    +0.000 C 
ATOM     10  C   UNL     1       1.943   4.997  20.734  0.00  0.00    +0.000 C 
ENDBRANCH   8  10
ENDBRANCH   7   8
ENDBRANCH   6   7
ENDBRANCH   5   6
ENDBRANCH   4   5
ENDBRANCH   3   4
ENDBRANCH   2   3
ENDBRANCH   1   2
BRANCH   1  11
ATOM     11  C   UNL     1       5.420   6.374  17.263  0.00  0.00    +0.000 C 
BRANCH  11  12
ATOM     12  C   UNL     1       6.870   6.739  17.601  0.00  0.00    +0.000 C 
BRANCH  12  13
ATOM     13  O   UNL     1       7.637   6.799  16.398  0.00  0.00    +0.000 OA
ATOM     14  H   UNL     1       8.467   6.323  16.565  0.00  0.00    +0.000 HD
ENDBRANCH  12  13
BRANCH  12  15
ATOM     15  C   UNL     1       7.508   5.741  18.610  0.00  0.00    +0.000 C 
ATOM     16  C   UNL     1       7.952   4.464  17.896  0.00  0.00    +0.000 C 
BRANCH  15  17
ATOM     17  N   UNL     1       6.616   5.361  19.714  0.00  0.00    +0.000 NA
ATOM     18  H   UNL     1       5.927   6.090  19.882  0.00  0.00    +0.000 HD
ATOM     19  H   UNL     1       7.138   5.214  20.577  0.00  0.00    +0.000 HD
ENDBRANCH  15  17
ENDBRANCH  12  15
ENDBRANCH  11  12
ENDBRANCH   1  11
TORSDOF 13
ENDMDL
MODEL 5
REMARK VINA RESULT:      -5.3      4.046      6.837
REMARK  Name = 
REMARK  14 active torsions:
REMARK  status: ('A' for Active; 'I' for Inactive)
REMARK    1  A    between atoms: C_2  and  C_3
REMARK    2  A    between atoms: C_3  and  C_4
REMARK    3  A    between atoms: C_4  and  C_5
REMARK    4  A    between atoms: C_5  and  C_6
REMARK    5  A    between atoms: C_6  and  C_7
REMARK    6  A    between atoms: C_7  and  C_8
REMARK    7  A    between atoms: C_8  and  C_9
REMARK    8  A    between atoms: C_9  and  C_10
REMARK    9  A    between atoms: C_10  and  C_11
REMARK   10  A    between atoms: C_11  and  C_12
REMARK   11  A    between atoms: C_12  and  O_13
REMARK   12  A    between atoms: C_12  and  C_14
REMARK   13  A    between atoms: C_14  and  C_15
REMARK   14  A    between atoms: C_14  and  N_16
REMARK                            x       y       z     vdW  Elec       q    Type
REMARK                         _______ _______ _______ _____ _____    ______ ____
ROOT
ATOM      1  C   UNL     1       4.590   4.360  16.963  0.00  0.00    +0.000 C 
ENDROOT
BRANCH   1   2
ATOM      2  C   UNL     1       5.220   5.643  16.410  0.00  0.00    +0.000 C 
BRANCH   2   3
ATOM      3  C   UNL     1       5.628   5.504  14.943  0.00  0.00    +0.000 C 
BRANCH   3   4
ATOM      4  C   UNL     1       6.582   4.338  14.716  0.00  0.00    +0.000 C 
BRANCH   4   5
ATOM      5  C   UNL     1       6.434   3.822  13.285  0.00  0.00    +0.000 C 
BRANCH   5   6
ATOM      6  C   UNL     1       4.968   3.599  12.934  0.00  0.00    +0.000 C 
BRANCH   6   7
ATOM      7  C   UNL     1       4.756   3.605  11.421  0.00  0.00    +0.000 C 
BRANCH   7   8
ATOM      8  C   UNL     1       3.405   2.986  11.070  0.00  0.00    +0.000 C 
BRANCH   8  10
ATOM      9  C   UNL     1       2.717   4.657   9.335  0.00  0.00    +0.000 C 
ATOM     10  C   UNL     1       2.957   3.387   9.697  0.00  0.00    +0.000 C 
ENDBRANCH   8  10
ENDBRANCH   7   8
ENDBRANCH   6   7
ENDBRANCH   5   6
ENDBRANCH   4   5
ENDBRANCH   3   4
ENDBRANCH   2   3
ENDBRANCH   1   2
BRANCH   1  11
ATOM     11  C   UNL     1       3.964   4.556  18.350  0.00  0.00    +0.000 C 
BRANCH  11  12
ATOM     12  C   UNL     1       3.946   3.261  19.170  0.00  0.00    +0.000 C 
BRANCH  12  13
ATOM     13  O   UNL     1       5.287   2.871  19.470  0.00  0.00    +0.000 OA
ATOM     14  H   UNL     1       5.871   3.387  18.890  0.00  0.00    +0.000 HD
ENDBRANCH  12  13
BRANCH  12  15
ATOM     15  C   UNL     1       3.191   2.113  18.440  0.00  0.00    +0.000 C 
ATOM     16  C   UNL     1       1.806   1.904  19.053  0.00  0.00    +0.000 C 
BRANCH  15  17
ATOM     17  N   UNL     1       3.901   0.826  18.465  0.00  0.00    +0.000 NA
ATOM     18  H   UNL     1       4.120   0.523  17.520  0.00  0.00    +0.000 HD
ATOM     19  H   UNL     1       3.337   0.102  18.907  0.00  0.00    +0.000 HD
ENDBRANCH  15  17
ENDBRANCH  12  15
ENDBRANCH  11  12
ENDBRANCH   1  11
TORSDOF 13
ENDMDL
MODEL 6
REMARK VINA RESULT:      -5.3      1.537      2.214
REMARK  Name = 
REMARK  14 active torsions:
REMARK  status: ('A' for Active; 'I' for Inactive)
REMARK    1  A    between atoms: C_2  and  C_3
REMARK    2  A    between atoms: C_3  and  C_4
REMARK    3  A    between atoms: C_4  and  C_5
REMARK    4  A    between atoms: C_5  and  C_6
REMARK    5  A    between atoms: C_6  and  C_7
REMARK    6  A    between atoms: C_7  and  C_8
REMARK    7  A    between atoms: C_8  and  C_9
REMARK    8  A    between atoms: C_9  and  C_10
REMARK    9  A    between atoms: C_10  and  C_11
REMARK   10  A    between atoms: C_11  and  C_12
REMARK   11  A    between atoms: C_12  and  O_13
REMARK   12  A    between atoms: C_12  and  C_14
REMARK   13  A    between atoms: C_14  and  C_15
REMARK   14  A    between atoms: C_14  and  N_16
REMARK                            x       y       z     vdW  Elec       q    Type
REMARK                         _______ _______ _______ _____ _____    ______ ____
ROOT
ATOM      1  C   UNL     1       5.355   5.560  18.656  0.00  0.00    +0.000 C 
ENDROOT
BRANCH   1   2
ATOM      2  C   UNL     1       4.017   6.042  18.086  0.00  0.00    +0.000 C 
BRANCH   2   3
ATOM      3  C   UNL     1       3.055   6.511  19.178  0.00  0.00    +0.000 C 
BRANCH   3   4
ATOM      4  C   UNL     1       1.933   5.512  19.429  0.00  0.00    +0.000 C 
BRANCH   4   5
ATOM      5  C   UNL     1       1.986   5.029  20.878  0.00  0.00    +0.000 C 
BRANCH   5   6
ATOM      6  C   UNL     1       1.677   3.539  20.969  0.00  0.00    +0.000 C 
BRANCH   6   7
ATOM      7  C   UNL     1       0.894   3.062  19.748  0.00  0.00    +0.000 C 
BRANCH   7   8
ATOM      8  C   UNL     1       1.597   1.873  19.096  0.00  0.00    +0.000 C 
BRANCH   8  10
ATOM      9  C   UNL     1       3.684   2.290  17.775  0.00  0.00    +0.000 C 
ATOM     10  C   UNL     1       2.345   2.285  17.864  0.00  0.00    +0.000 C 
ENDBRANCH   8  10
ENDBRANCH   7   8
ENDBRANCH   6   7
ENDBRANCH   5   6
ENDBRANCH   4   5
ENDBRANCH   3   4
ENDBRANCH   2   3
ENDBRANCH   1   2
BRANCH   1  11
ATOM     11  C   UNL     1       6.530   5.800  17.698  0.00  0.00    +0.000 C 
BRANCH  11  12
ATOM     12  C   UNL     1       6.762   4.616  16.752  0.00  0.00    +0.000 C 
BRANCH  12  13
ATOM     13  O   UNL     1       8.073   4.090  16.963  0.00  0.00    +0.000 OA
ATOM     14  H   UNL     1       7.992   3.377  17.618  0.00  0.00    +0.000 HD
ENDBRANCH  12  13
BRANCH  12  15
ATOM     15  C   UNL     1       6.561   5.007  15.260  0.00  0.00    +0.000 C 
ATOM     16  C   UNL     1       6.026   3.819  14.459  0.00  0.00    +0.000 C 
BRANCH  15  17
ATOM     17  N   UNL     1       7.784   5.488  14.602  0.00  0.00    +0.000 NA
ATOM     18  H   UNL     1       8.498   5.703  15.294  0.00  0.00    +0.000 HD
ATOM     19  H   UNL     1       7.605   6.330  14.060  0.00  0.00    +0.000 HD
ENDBRANCH  15  17
ENDBRANCH  12  15
ENDBRANCH  11  12
ENDBRANCH   1  11
TORSDOF 13
ENDMDL
MODEL 7
REMARK VINA RESULT:      -5.2      0.981      2.805
REMARK  Name = 
REMARK  14 active torsions:
REMARK  status: ('A' for Active; 'I' for Inactive)
REMARK    1  A    between atoms: C_2  and  C_3
REMARK    2  A    between atoms: C_3  and  C_4
REMARK    3  A    between atoms: C_4  and  C_5
REMARK    4  A    between atoms: C_5  and  C_6
REMARK    5  A    between atoms: C_6  and  C_7
REMARK    6  A    between atoms: C_7  and  C_8
REMARK    7  A    between atoms: C_8  and  C_9
REMARK    8  A    between atoms: C_9  and  C_10
REMARK    9  A    between atoms: C_10  and  C_11
REMARK   10  A    between atoms: C_11  and  C_12
REMARK   11  A    between atoms: C_12  and  O_13
REMARK   12  A    between atoms: C_12  and  C_14
REMARK   13  A    between atoms: C_14  and  C_15
REMARK   14  A    between atoms: C_14  and  N_16
REMARK                            x       y       z     vdW  Elec       q    Type
REMARK                         _______ _______ _______ _____ _____    ______ ____
ROOT
ATOM      1  C   UNL     1       4.495   4.381  17.658  0.00  0.00    +0.000 C 
ENDROOT
BRANCH   1   2
ATOM      2  C   UNL     1       3.921   3.063  17.127  0.00  0.00    +0.000 C 
BRANCH   2   3
ATOM      3  C   UNL     1       2.428   2.922  17.419  0.00  0.00    +0.000 C 
BRANCH   3   4
ATOM      4  C   UNL     1       2.161   2.291  18.780  0.00  0.00    +0.000 C 
BRANCH   4   5
ATOM      5  C   UNL     1       0.835   2.807  19.337  0.00  0.00    +0.000 C 
BRANCH   5   6
ATOM      6  C   UNL     1       1.033   3.467  20.696  0.00  0.00    +0.000 C 
BRANCH   6   7
ATOM      7  C   UNL     1       2.249   4.391  20.689  0.00  0.00    +0.000 C 
BRANCH   7   8
ATOM      8  C   UNL     1       1.812   5.846  20.533  0.00  0.00    +0.000 C 
BRANCH   8  10
ATOM      9  C   UNL     1       2.300   7.280  18.537  0.00  0.00    +0.000 C 
ATOM     10  C   UNL     1       2.726   6.598  19.612  0.00  0.00    +0.000 C 
ENDBRANCH   8  10
ENDBRANCH   7   8
ENDBRANCH   6   7
ENDBRANCH   5   6
ENDBRANCH   4   5
ENDBRANCH   3   4
ENDBRANCH   2   3
ENDBRANCH   1   2
BRANCH   1  11
ATOM     11  C   UNL     1       4.935   5.332  16.536  0.00  0.00    +0.000 C 
BRANCH  11  12
ATOM     12  C   UNL     1       6.458   5.501  16.479  0.00  0.00    +0.000 C 
BRANCH  12  13
ATOM     13  O   UNL     1       6.991   4.658  15.457  0.00  0.00    +0.000 OA
ATOM     14  H   UNL     1       7.162   5.221  14.684  0.00  0.00    +0.000 HD
ENDBRANCH  12  13
BRANCH  12  15
ATOM     15  C   UNL     1       7.135   5.200  17.847  0.00  0.00    +0.000 C 
ATOM     16  C   UNL     1       7.783   6.463  18.416  0.00  0.00    +0.000 C 
BRANCH  15  17
ATOM     17  N   UNL     1       8.161   4.150  17.783  0.00  0.00    +0.000 NA
ATOM     18  H   UNL     1       7.772   3.255  18.069  0.00  0.00    +0.000 HD
ATOM     19  H   UNL     1       8.947   4.363  18.395  0.00  0.00    +0.000 HD
ENDBRANCH  15  17
ENDBRANCH  12  15
ENDBRANCH  11  12
ENDBRANCH   1  11
TORSDOF 13
ENDMDL
MODEL 8
REMARK VINA RESULT:      -5.2      1.142      1.610
REMARK  Name = 
REMARK  14 active torsions:
REMARK  status: ('A' for Active; 'I' for Inactive)
REMARK    1  A    between atoms: C_2  and  C_3
REMARK    2  A    between atoms: C_3  and  C_4
REMARK    3  A    between atoms: C_4  and  C_5
REMARK    4  A    between atoms: C_5  and  C_6
REMARK    5  A    between atoms: C_6  and  C_7
REMARK    6  A    between atoms: C_7  and  C_8
REMARK    7  A    between atoms: C_8  and  C_9
REMARK    8  A    between atoms: C_9  and  C_10
REMARK    9  A    between atoms: C_10  and  C_11
REMARK   10  A    between atoms: C_11  and  C_12
REMARK   11  A    between atoms: C_12  and  O_13
REMARK   12  A    between atoms: C_12  and  C_14
REMARK   13  A    between atoms: C_14  and  C_15
REMARK   14  A    between atoms: C_14  and  N_16
REMARK                            x       y       z     vdW  Elec       q    Type
REMARK                         _______ _______ _______ _____ _____    ______ ____
ROOT
ATOM      1  C   UNL     1       3.691   5.632  17.367  0.00  0.00    +0.000 C 
ENDROOT
BRANCH   1   2
ATOM      2  C   UNL     1       2.720   6.226  18.392  0.00  0.00    +0.000 C 
BRANCH   2   3
ATOM      3  C   UNL     1       3.027   5.766  19.817  0.00  0.00    +0.000 C 
BRANCH   3   4
ATOM      4  C   UNL     1       1.763   5.457  20.610  0.00  0.00    +0.000 C 
BRANCH   4   5
ATOM      5  C   UNL     1       1.577   3.943  20.715  0.00  0.00    +0.000 C 
BRANCH   5   6
ATOM      6  C   UNL     1       0.596   3.439  19.664  0.00  0.00    +0.000 C 
BRANCH   6   7
ATOM      7  C   UNL     1       1.072   2.125  19.049  0.00  0.00    +0.000 C 
BRANCH   7   8
ATOM      8  C   UNL     1       2.222   2.377  18.076  0.00  0.00    +0.000 C 
BRANCH   8  10
ATOM      9  C   UNL     1       4.489   2.446  19.140  0.00  0.00    +0.000 C 
ATOM     10  C   UNL     1       3.497   1.754  18.559  0.00  0.00    +0.000 C 
ENDBRANCH   8  10
ENDBRANCH   7   8
ENDBRANCH   6   7
ENDBRANCH   5   6
ENDBRANCH   4   5
ENDBRANCH   3   4
ENDBRANCH   2   3
ENDBRANCH   1   2
BRANCH   1  11
ATOM     11  C   UNL     1       5.000   6.425  17.259  0.00  0.00    +0.000 C 
BRANCH  11  12
ATOM     12  C   UNL     1       6.177   5.550  16.814  0.00  0.00    +0.000 C 
BRANCH  12  13
ATOM     13  O   UNL     1       5.682   4.422  16.089  0.00  0.00    +0.000 OA
ATOM     14  H   UNL     1       5.636   3.680  16.714  0.00  0.00    +0.000 HD
ENDBRANCH  12  13
BRANCH  12  15
ATOM     15  C   UNL     1       7.056   5.090  18.012  0.00  0.00    +0.000 C 
ATOM     16  C   UNL     1       7.749   6.287  18.662  0.00  0.00    +0.000 C 
BRANCH  15  17
ATOM     17  N   UNL     1       8.086   4.107  17.649  0.00  0.00    +0.000 NA
ATOM     18  H   UNL     1       7.849   3.190  18.021  0.00  0.00    +0.000 HD
ATOM     19  H   UNL     1       8.997   4.372  18.020  0.00  0.00    +0.000 HD
ENDBRANCH  15  17
ENDBRANCH  12  15
ENDBRANCH  11  12
ENDBRANCH   1  11
TORSDOF 13
ENDMDL
MODEL 9
REMARK VINA RESULT:      -5.2      1.436      2.888
REMARK  Name = 
REMARK  14 active torsions:
REMARK  status: ('A' for Active; 'I' for Inactive)
REMARK    1  A    between atoms: C_2  and  C_3
REMARK    2  A    between atoms: C_3  and  C_4
REMARK    3  A    between atoms: C_4  and  C_5
REMARK    4  A    between atoms: C_5  and  C_6
REMARK    5  A    between atoms: C_6  and  C_7
REMARK    6  A    between atoms: C_7  and  C_8
REMARK    7  A    between atoms: C_8  and  C_9
REMARK    8  A    between atoms: C_9  and  C_10
REMARK    9  A    between atoms: C_10  and  C_11
REMARK   10  A    between atoms: C_11  and  C_12
REMARK   11  A    between atoms: C_12  and  O_13
REMARK   12  A    between atoms: C_12  and  C_14
REMARK   13  A    between atoms: C_14  and  C_15
REMARK   14  A    between atoms: C_14  and  N_16
REMARK                            x       y       z     vdW  Elec       q    Type
REMARK                         _______ _______ _______ _____ _____    ______ ____
ROOT
ATOM      1  C   UNL     1       5.134   4.137  17.976  0.00  0.00    +0.000 C 
ENDROOT
BRANCH   1   2
ATOM      2  C   UNL     1       4.345   2.917  17.488  0.00  0.00    +0.000 C 
BRANCH   2   3
ATOM      3  C   UNL     1       2.841   3.182  17.432  0.00  0.00    +0.000 C 
BRANCH   3   4
ATOM      4  C   UNL     1       2.029   2.027  18.003  0.00  0.00    +0.000 C 
BRANCH   4   5
ATOM      5  C   UNL     1       0.826   2.572  18.773  0.00  0.00    +0.000 C 
BRANCH   5   6
ATOM      6  C   UNL     1       1.237   3.048  20.162  0.00  0.00    +0.000 C 
BRANCH   6   7
ATOM      7  C   UNL     1       0.958   4.539  20.339  0.00  0.00    +0.000 C 
BRANCH   7   8
ATOM      8  C   UNL     1       2.197   5.252  20.877  0.00  0.00    +0.000 C 
BRANCH   8  10
ATOM      9  C   UNL     1       2.243   6.460  18.683  0.00  0.00    +0.000 C 
ATOM     10  C   UNL     1       2.853   6.087  19.818  0.00  0.00    +0.000 C 
ENDBRANCH   8  10
ENDBRANCH   7   8
ENDBRANCH   6   7
ENDBRANCH   5   6
ENDBRANCH   4   5
ENDBRANCH   3   4
ENDBRANCH   2   3
ENDBRANCH   1   2
BRANCH   1  11
ATOM     11  C   UNL     1       5.809   4.905  16.833  0.00  0.00    +0.000 C 
BRANCH  11  12
ATOM     12  C   UNL     1       7.250   5.306  17.170  0.00  0.00    +0.000 C 
BRANCH  12  13
ATOM     13  O   UNL     1       8.042   4.129  17.338  0.00  0.00    +0.000 OA
ATOM     14  H   UNL     1       8.889   4.409  17.723  0.00  0.00    +0.000 HD
ENDBRANCH  12  13
BRANCH  12  15
ATOM     15  C   UNL     1       7.330   6.207  18.436  0.00  0.00    +0.000 C 
ATOM     16  C   UNL     1       7.905   7.579  18.085  0.00  0.00    +0.000 C 
BRANCH  15  17
ATOM     17  N   UNL     1       8.140   5.636  19.520  0.00  0.00    +0.000 NA
ATOM     18  H   UNL     1       8.026   6.179  20.373  0.00  0.00    +0.000 HD
ATOM     19  H   UNL     1       9.130   5.631  19.279  0.00  0.00    +0.000 HD
ENDBRANCH  15  17
ENDBRANCH  12  15
ENDBRANCH  11  12
ENDBRANCH   1  11
TORSDOF 13
ENDMDL
