MODEL 1
REMARK VINA RESULT:      -7.0      0.000      0.000
REMARK  Name = 
REMARK  3 active torsions:
REMARK  status: ('A' for Active; 'I' for Inactive)
REMARK    1  A    between atoms: C_1  and  C_2
REMARK    2  A    between atoms: C_2  and  C_3
REMARK    3  A    between atoms: C_11  and  C_12
REMARK                            x       y       z     vdW  Elec       q    Type
REMARK                         _______ _______ _______ _____ _____    ______ ____
ROOT
ATOM      1  C   UNL     1       6.366   5.313  17.221  0.00  0.00    +0.000 A 
ATOM      2  N   UNL     1       7.296   5.742  16.300  0.00  0.00    +0.000 N 
ATOM      3  C   UNL     1       7.061   5.182  15.080  0.00  0.00    +0.000 A 
ATOM      4  N   UNL     1       7.813   5.414  13.988  0.00  0.00    +0.000 NA
ATOM      5  C   UNL     1       7.382   4.731  12.903  0.00  0.00    +0.000 A 
ATOM      6  C   UNL     1       6.290   3.878  12.866  0.00  0.00    +0.000 A 
ATOM      7  C   UNL     1       5.547   3.679  14.031  0.00  0.00    +0.000 A 
ATOM      8  C   UNL     1       5.949   4.362  15.194  0.00  0.00    +0.000 A 
ATOM      9  C   UNL     1       5.481   4.460  16.548  0.00  0.00    +0.000 A 
ATOM     10  H   UNL     1       8.073   6.361  16.471  0.00  0.00    +0.000 HD
ENDROOT
BRANCH   9  11
ATOM     11  C   UNL     1       4.332   3.788  17.115  0.00  0.00    +0.000 C 
ATOM     12  N   UNL     1       3.190   4.378  17.323  0.00  0.00    +0.000 NA
ATOM     13  C   UNL     1       2.363   3.319  17.966  0.00  0.00    +0.000 C 
ATOM     14  C   UNL     1       3.254   2.080  18.139  0.00  0.00    +0.000 C 
ATOM     15  N   UNL     1       4.476   2.483  17.486  0.00  0.00    +0.000 N 
ATOM     16  H   UNL     1       5.341   2.286  17.979  0.00  0.00    +0.000 HD
ENDBRANCH   9  11
BRANCH   1  18
ATOM     17  C   UNL     1       7.826   5.790  19.256  0.00  0.00    +0.000 C 
ATOM     18  C   UNL     1       6.425   5.707  18.669  0.00  0.00    +0.000 C 
ENDBRANCH   1  18
TORSDOF 2
ENDMDL
MODEL 2
REMARK VINA RESULT:      -6.8      2.305      2.971
REMARK  Name = 
REMARK  3 active torsions:
REMARK  status: ('A' for Active; 'I' for Inactive)
REMARK    1  A    between atoms: C_1  and  C_2
REMARK    2  A    between atoms: C_2  and  C_3
REMARK    3  A    between atoms: C_11  and  C_12
REMARK                            x       y       z     vdW  Elec       q    Type
REMARK                         _______ _______ _______ _____ _____    ______ ____
ROOT
ATOM      1  C   UNL     1       3.418   6.380  17.814  0.00  0.00    +0.000 A 
ATOM      2  N   UNL     1       4.416   6.934  17.042  0.00  0.00    +0.000 N 
ATOM      3  C   UNL     1       5.115   5.963  16.389  0.00  0.00    +0.000 A 
ATOM      4  N   UNL     1       6.152   6.207  15.566  0.00  0.00    +0.000 NA
ATOM      5  C   UNL     1       6.685   5.077  15.050  0.00  0.00    +0.000 A 
ATOM      6  C   UNL     1       6.248   3.786  15.304  0.00  0.00    +0.000 A 
ATOM      7  C   UNL     1       5.165   3.598  16.165  0.00  0.00    +0.000 A 
ATOM      8  C   UNL     1       4.569   4.737  16.735  0.00  0.00    +0.000 A 
ATOM      9  C   UNL     1       3.469   4.994  17.622  0.00  0.00    +0.000 A 
ATOM     10  H   UNL     1       4.646   7.912  16.964  0.00  0.00    +0.000 HD
ENDROOT
BRANCH   9  11
ATOM     11  C   UNL     1       2.595   4.008  18.222  0.00  0.00    +0.000 C 
ATOM     12  N   UNL     1       1.452   3.658  17.706  0.00  0.00    +0.000 NA
ATOM     13  C   UNL     1       0.906   2.688  18.696  0.00  0.00    +0.000 C 
ATOM     14  C   UNL     1       1.897   2.616  19.866  0.00  0.00    +0.000 C 
ATOM     15  N   UNL     1       2.980   3.455  19.409  0.00  0.00    +0.000 N 
ATOM     16  H   UNL     1       3.350   4.124  20.076  0.00  0.00    +0.000 HD
ENDBRANCH   9  11
BRANCH   1  18
ATOM     17  C   UNL     1       1.999   8.483  18.074  0.00  0.00    +0.000 C 
ATOM     18  C   UNL     1       2.537   7.208  18.705  0.00  0.00    +0.000 C 
ENDBRANCH   1  18
TORSDOF 2
ENDMDL
MODEL 3
REMARK VINA RESULT:      -6.7      0.469      1.073
REMARK  Name = 
REMARK  3 active torsions:
REMARK  status: ('A' for Active; 'I' for Inactive)
REMARK    1  A    between atoms: C_1  and  C_2
REMARK    2  A    between atoms: C_2  and  C_3
REMARK    3  A    between atoms: C_11  and  C_12
REMARK                            x       y       z     vdW  Elec       q    Type
REMARK                         _______ _______ _______ _____ _____    ______ ____
ROOT
ATOM      1  C   UNL     1       6.295   5.101  17.570  0.00  0.00    +0.000 A 
ATOM      2  N   UNL     1       7.292   5.476  16.696  0.00  0.00    +0.000 N 
ATOM      3  C   UNL     1       7.016   5.042  15.435  0.00  0.00    +0.000 A 
ATOM      4  N   UNL     1       7.815   5.257  14.373  0.00  0.00    +0.000 NA
ATOM      5  C   UNL     1       7.326   4.716  13.234  0.00  0.00    +0.000 A 
ATOM      6  C   UNL     1       6.138   4.012  13.118  0.00  0.00    +0.000 A 
ATOM      7  C   UNL     1       5.350   3.823  14.255  0.00  0.00    +0.000 A 
ATOM      8  C   UNL     1       5.808   4.362  15.471  0.00  0.00    +0.000 A 
ATOM      9  C   UNL     1       5.327   4.418  16.823  0.00  0.00    +0.000 A 
ATOM     10  H   UNL     1       8.136   5.978  16.924  0.00  0.00    +0.000 HD
ENDROOT
BRANCH   9  11
ATOM     11  C   UNL     1       4.090   3.856  17.324  0.00  0.00    +0.000 C 
ATOM     12  N   UNL     1       3.924   2.586  17.553  0.00  0.00    +0.000 NA
ATOM     13  C   UNL     1       2.501   2.493  17.984  0.00  0.00    +0.000 C 
ATOM     14  C   UNL     1       1.897   3.901  17.887  0.00  0.00    +0.000 C 
ATOM     15  N   UNL     1       3.040   4.705  17.521  0.00  0.00    +0.000 N 
ATOM     16  H   UNL     1       2.903   5.375  16.772  0.00  0.00    +0.000 HD
ENDBRANCH   9  11
BRANCH   1  18
ATOM     17  C   UNL     1       7.758   5.731  19.562  0.00  0.00    +0.000 C 
ATOM     18  C   UNL     1       6.372   5.376  19.045  0.00  0.00    +0.000 C 
ENDBRANCH   1  18
TORSDOF 2
ENDMDL
MODEL 4
REMARK VINA RESULT:      -6.6      2.405      3.156
REMARK  Name = 
REMARK  3 active torsions:
REMARK  status: ('A' for Active; 'I' for Inactive)
REMARK    1  A    between atoms: C_1  and  C_2
REMARK    2  A    between atoms: C_2  and  C_3
REMARK    3  A    between atoms: C_11  and  C_12
REMARK                            x       y       z     vdW  Elec       q    Type
REMARK                         _______ _______ _______ _____ _____    ______ ____
ROOT
ATOM      1  C   UNL     1       3.361   6.507  17.860  0.00  0.00    +0.000 A 
ATOM      2  N   UNL     1       4.286   7.020  16.977  0.00  0.00    +0.000 N 
ATOM      3  C   UNL     1       4.989   6.018  16.379  0.00  0.00    +0.000 A 
ATOM      4  N   UNL     1       5.964   6.219  15.473  0.00  0.00    +0.000 NA
ATOM      5  C   UNL     1       6.516   5.065  15.036  0.00  0.00    +0.000 A 
ATOM      6  C   UNL     1       6.153   3.790  15.441  0.00  0.00    +0.000 A 
ATOM      7  C   UNL     1       5.132   3.645  16.382  0.00  0.00    +0.000 A 
ATOM      8  C   UNL     1       4.520   4.811  16.876  0.00  0.00    +0.000 A 
ATOM      9  C   UNL     1       3.463   5.112  17.800  0.00  0.00    +0.000 A 
ATOM     10  H   UNL     1       4.467   7.994  16.791  0.00  0.00    +0.000 HD
ENDROOT
BRANCH   9  11
ATOM     11  C   UNL     1       2.671   4.157  18.546  0.00  0.00    +0.000 C 
ATOM     12  N   UNL     1       3.069   3.611  19.658  0.00  0.00    +0.000 NA
ATOM     13  C   UNL     1       1.965   2.673  20.002  0.00  0.00    +0.000 C 
ATOM     14  C   UNL     1       0.933   2.740  18.866  0.00  0.00    +0.000 C 
ATOM     15  N   UNL     1       1.465   3.786  18.025  0.00  0.00    +0.000 N 
ATOM     16  H   UNL     1       1.485   3.601  17.027  0.00  0.00    +0.000 HD
ENDBRANCH   9  11
BRANCH   1  18
ATOM     17  C   UNL     1       1.943   8.620  18.028  0.00  0.00    +0.000 C 
ATOM     18  C   UNL     1       2.498   7.385  18.721  0.00  0.00    +0.000 C 
ENDBRANCH   1  18
TORSDOF 2
ENDMDL
MODEL 5
REMARK VINA RESULT:      -6.5      3.095      5.447
REMARK  Name = 
REMARK  3 active torsions:
REMARK  status: ('A' for Active; 'I' for Inactive)
REMARK    1  A    between atoms: C_1  and  C_2
REMARK    2  A    between atoms: C_2  and  C_3
REMARK    3  A    between atoms: C_11  and  C_12
REMARK                            x       y       z     vdW  Elec       q    Type
REMARK                         _______ _______ _______ _____ _____    ______ ____
ROOT
ATOM      1  C   UNL     1       3.226   6.272  18.044  0.00  0.00    +0.000 A 
ATOM      2  N   UNL     1       2.034   5.586  17.975  0.00  0.00    +0.000 N 
ATOM      3  C   UNL     1       2.234   4.251  18.162  0.00  0.00    +0.000 A 
ATOM      4  N   UNL     1       1.249   3.333  18.141  0.00  0.00    +0.000 NA
ATOM      5  C   UNL     1       1.705   2.075  18.340  0.00  0.00    +0.000 A 
ATOM      6  C   UNL     1       3.028   1.718  18.550  0.00  0.00    +0.000 A 
ATOM      7  C   UNL     1       4.004   2.716  18.562  0.00  0.00    +0.000 A 
ATOM      8  C   UNL     1       3.590   4.046  18.359  0.00  0.00    +0.000 A 
ATOM      9  C   UNL     1       4.229   5.331  18.313  0.00  0.00    +0.000 A 
ATOM     10  H   UNL     1       1.123   5.976  17.788  0.00  0.00    +0.000 HD
ENDROOT
BRANCH   9  11
ATOM     11  C   UNL     1       5.640   5.601  18.488  0.00  0.00    +0.000 C 
ATOM     12  N   UNL     1       6.303   5.274  19.559  0.00  0.00    +0.000 NA
ATOM     13  C   UNL     1       7.670   5.806  19.299  0.00  0.00    +0.000 C 
ATOM     14  C   UNL     1       7.631   6.535  17.949  0.00  0.00    +0.000 C 
ATOM     15  N   UNL     1       6.288   6.270  17.490  0.00  0.00    +0.000 N 
ATOM     16  H   UNL     1       5.770   7.059  17.117  0.00  0.00    +0.000 HD
ENDBRANCH   9  11
BRANCH   1  18
ATOM     17  C   UNL     1       1.996   8.498  17.858  0.00  0.00    +0.000 C 
ATOM     18  C   UNL     1       3.320   7.751  17.798  0.00  0.00    +0.000 C 
ENDBRANCH   1  18
TORSDOF 2
ENDMDL
MODEL 6
REMARK VINA RESULT:      -6.5      2.885      3.654
REMARK  Name = 
REMARK  3 active torsions:
REMARK  status: ('A' for Active; 'I' for Inactive)
REMARK    1  A    between atoms: C_1  and  C_2
REMARK    2  A    between atoms: C_2  and  C_3
REMARK    3  A    between atoms: C_11  and  C_12
REMARK                            x       y       z     vdW  Elec       q    Type
REMARK                         _______ _______ _______ _____ _____    ______ ____
ROOT
ATOM      1  C   UNL     1       3.126   7.035  18.004  0.00  0.00    +0.000 A 
ATOM      2  N   UNL     1       4.001   7.392  17.002  0.00  0.00    +0.000 N 
ATOM      3  C   UNL     1       4.703   6.309  16.566  0.00  0.00    +0.000 A 
ATOM      4  N   UNL     1       5.635   6.357  15.596  0.00  0.00    +0.000 NA
ATOM      5  C   UNL     1       6.198   5.151  15.354  0.00  0.00    +0.000 A 
ATOM      6  C   UNL     1       5.884   3.966  16.001  0.00  0.00    +0.000 A 
ATOM      7  C   UNL     1       4.906   3.980  16.998  0.00  0.00    +0.000 A 
ATOM      8  C   UNL     1       4.286   5.207  17.296  0.00  0.00    +0.000 A 
ATOM      9  C   UNL     1       3.260   5.655  18.196  0.00  0.00    +0.000 A 
ATOM     10  H   UNL     1       4.150   8.319  16.632  0.00  0.00    +0.000 HD
ENDROOT
BRANCH   9  11
ATOM     11  C   UNL     1       2.523   4.840  19.139  0.00  0.00    +0.000 C 
ATOM     12  N   UNL     1       1.507   4.100  18.803  0.00  0.00    +0.000 NA
ATOM     13  C   UNL     1       1.055   3.518  20.098  0.00  0.00    +0.000 C 
ATOM     14  C   UNL     1       1.941   4.111  21.203  0.00  0.00    +0.000 C 
ATOM     15  N   UNL     1       2.896   4.891  20.451  0.00  0.00    +0.000 N 
ATOM     16  H   UNL     1       3.086   5.828  20.791  0.00  0.00    +0.000 HD
ENDBRANCH   9  11
BRANCH   1  18
ATOM     17  C   UNL     1       1.840   9.235  17.891  0.00  0.00    +0.000 C 
ATOM     18  C   UNL     1       2.277   8.041  18.727  0.00  0.00    +0.000 C 
ENDBRANCH   1  18
TORSDOF 2
ENDMDL
MODEL 7
REMARK VINA RESULT:      -6.5      2.834      5.989
REMARK  Name = 
REMARK  3 active torsions:
REMARK  status: ('A' for Active; 'I' for Inactive)
REMARK    1  A    between atoms: C_1  and  C_2
REMARK    2  A    between atoms: C_2  and  C_3
REMARK    3  A    between atoms: C_11  and  C_12
REMARK                            x       y       z     vdW  Elec       q    Type
REMARK                         _______ _______ _______ _____ _____    ______ ____
ROOT
ATOM      1  C   UNL     1       3.370   6.204  18.563  0.00  0.00    +0.000 A 
ATOM      2  N   UNL     1       2.231   6.032  19.317  0.00  0.00    +0.000 N 
ATOM      3  C   UNL     1       2.265   4.840  19.977  0.00  0.00    +0.000 A 
ATOM      4  N   UNL     1       1.283   4.400  20.786  0.00  0.00    +0.000 NA
ATOM      5  C   UNL     1       1.548   3.183  21.313  0.00  0.00    +0.000 A 
ATOM      6  C   UNL     1       2.690   2.432  21.081  0.00  0.00    +0.000 A 
ATOM      7  C   UNL     1       3.674   2.944  20.233  0.00  0.00    +0.000 A 
ATOM      8  C   UNL     1       3.454   4.206  19.653  0.00  0.00    +0.000 A 
ATOM      9  C   UNL     1       4.179   5.080  18.774  0.00  0.00    +0.000 A 
ATOM     10  H   UNL     1       1.446   6.663  19.379  0.00  0.00    +0.000 HD
ENDROOT
BRANCH   9  11
ATOM     11  C   UNL     1       5.484   4.836  18.197  0.00  0.00    +0.000 C 
ATOM     12  N   UNL     1       6.594   4.942  18.869  0.00  0.00    +0.000 NA
ATOM     13  C   UNL     1       7.645   4.664  17.851  0.00  0.00    +0.000 C 
ATOM     14  C   UNL     1       6.938   4.460  16.503  0.00  0.00    +0.000 C 
ATOM     15  N   UNL     1       5.544   4.522  16.870  0.00  0.00    +0.000 N 
ATOM     16  H   UNL     1       4.943   5.091  16.282  0.00  0.00    +0.000 HD
ENDBRANCH   9  11
BRANCH   1  18
ATOM     17  C   UNL     1       2.481   8.452  17.750  0.00  0.00    +0.000 C 
ATOM     18  C   UNL     1       3.571   7.394  17.669  0.00  0.00    +0.000 C 
ENDBRANCH   1  18
TORSDOF 2
ENDMDL
MODEL 8
REMARK VINA RESULT:      -6.4      2.817      4.574
REMARK  Name = 
REMARK  3 active torsions:
REMARK  status: ('A' for Active; 'I' for Inactive)
REMARK    1  A    between atoms: C_1  and  C_2
REMARK    2  A    between atoms: C_2  and  C_3
REMARK    3  A    between atoms: C_11  and  C_12
REMARK                            x       y       z     vdW  Elec       q    Type
REMARK                         _______ _______ _______ _____ _____    ______ ____
ROOT
ATOM      1  C   UNL     1       2.772   4.484  17.750  0.00  0.00    +0.000 A 
ATOM      2  N   UNL     1       3.773   3.746  17.156  0.00  0.00    +0.000 N 
ATOM      3  C   UNL     1       4.895   4.501  16.992  0.00  0.00    +0.000 A 
ATOM      4  N   UNL     1       6.033   4.046  16.433  0.00  0.00    +0.000 NA
ATOM      5  C   UNL     1       6.998   4.991  16.374  0.00  0.00    +0.000 A 
ATOM      6  C   UNL     1       6.883   6.296  16.827  0.00  0.00    +0.000 A 
ATOM      7  C   UNL     1       5.678   6.708  17.399  0.00  0.00    +0.000 A 
ATOM      8  C   UNL     1       4.634   5.769  17.488  0.00  0.00    +0.000 A 
ATOM      9  C   UNL     1       3.292   5.760  17.998  0.00  0.00    +0.000 A 
ATOM     10  H   UNL     1       3.714   2.788  16.848  0.00  0.00    +0.000 HD
ENDROOT
BRANCH   9  11
ATOM     11  C   UNL     1       2.600   6.865  18.627  0.00  0.00    +0.000 C 
ATOM     12  N   UNL     1       2.238   7.939  17.987  0.00  0.00    +0.000 NA
ATOM     13  C   UNL     1       1.636   8.792  19.050  0.00  0.00    +0.000 C 
ATOM     14  C   UNL     1       1.790   8.045  20.382  0.00  0.00    +0.000 C 
ATOM     15  N   UNL     1       2.359   6.785  19.968  0.00  0.00    +0.000 N 
ATOM     16  H   UNL     1       3.145   6.441  20.510  0.00  0.00    +0.000 HD
ENDBRANCH   9  11
BRANCH   1  18
ATOM     17  C   UNL     1       1.160   3.351  19.369  0.00  0.00    +0.000 C 
ATOM     18  C   UNL     1       1.395   3.931  17.983  0.00  0.00    +0.000 C 
ENDBRANCH   1  18
TORSDOF 2
ENDMDL
MODEL 9
REMARK VINA RESULT:      -6.4      1.687      4.652
REMARK  Name = 
REMARK  3 active torsions:
REMARK  status: ('A' for Active; 'I' for Inactive)
REMARK    1  A    between atoms: C_1  and  C_2
REMARK    2  A    between atoms: C_2  and  C_3
REMARK    3  A    between atoms: C_11  and  C_12
REMARK                            x       y       z     vdW  Elec       q    Type
REMARK                         _______ _______ _______ _____ _____    ______ ____
ROOT
ATOM      1  C   UNL     1       6.233   5.218  18.481  0.00  0.00    +0.000 A 
ATOM      2  N   UNL     1       5.371   5.202  19.555  0.00  0.00    +0.000 N 
ATOM      3  C   UNL     1       4.124   4.812  19.167  0.00  0.00    +0.000 A 
ATOM      4  N   UNL     1       3.074   4.708  20.003  0.00  0.00    +0.000 NA
ATOM      5  C   UNL     1       1.944   4.313  19.374  0.00  0.00    +0.000 A 
ATOM      6  C   UNL     1       1.827   4.030  18.022  0.00  0.00    +0.000 A 
ATOM      7  C   UNL     1       2.953   4.153  17.206  0.00  0.00    +0.000 A 
ATOM      8  C   UNL     1       4.159   4.563  17.804  0.00  0.00    +0.000 A 
ATOM      9  C   UNL     1       5.506   4.792  17.362  0.00  0.00    +0.000 A 
ATOM     10  H   UNL     1       5.586   5.461  20.506  0.00  0.00    +0.000 HD
ENDROOT
BRANCH   9  11
ATOM     11  C   UNL     1       6.011   4.637  16.014  0.00  0.00    +0.000 C 
ATOM     12  N   UNL     1       6.485   5.624  15.310  0.00  0.00    +0.000 NA
ATOM     13  C   UNL     1       6.810   4.994  14.000  0.00  0.00    +0.000 C 
ATOM     14  C   UNL     1       6.373   3.524  14.076  0.00  0.00    +0.000 C 
ATOM     15  N   UNL     1       5.942   3.397  15.448  0.00  0.00    +0.000 N 
ATOM     16  H   UNL     1       5.061   2.919  15.605  0.00  0.00    +0.000 HD
ENDBRANCH   9  11
BRANCH   1  18
ATOM     17  C   UNL     1       7.892   7.134  18.204  0.00  0.00    +0.000 C 
ATOM     18  C   UNL     1       7.656   5.684  18.598  0.00  0.00    +0.000 C 
ENDBRANCH   1  18
TORSDOF 2
ENDMDL
