MODEL 1
REMARK VINA RESULT:      -7.8      0.000      0.000
REMARK  Name = 
REMARK  8 active torsions:
REMARK  status: ('A' for Active; 'I' for Inactive)
REMARK    1  A    between atoms: C_1  and  O_2
REMARK    2  A    between atoms: O_2  and  C_3
REMARK    3  A    between atoms: C_5  and  N_6
REMARK    4  A    between atoms: C_7  and  C_9
REMARK    5  A    between atoms: C_24  and  O_25
REMARK    6  A    between atoms: O_25  and  C_26
REMARK    7  A    between atoms: C_27  and  O_28
REMARK    8  A    between atoms: O_28  and  C_29
REMARK                            x       y       z     vdW  Elec       q    Type
REMARK                         _______ _______ _______ _____ _____    ______ ____
ROOT
ATOM      1  N   UNL     1       2.369   7.527  18.964  0.00  0.00    +0.000 N 
ATOM      2  C   UNL     1       1.696   7.859  20.128  0.00  0.00    +0.000 C 
ATOM      3  O   UNL     1       1.629   7.128  21.115  0.00  0.00    +0.000 OA
ATOM      4  H   UNL     1       2.515   8.241  18.262  0.00  0.00    +0.000 HD
ENDROOT
BRANCH   2   5
ATOM      5  C   UNL     1       1.006   9.187  20.251  0.00  0.00    +0.000 A 
ATOM      6  C   UNL     1       0.337   9.585  19.088  0.00  0.00    +0.000 A 
ATOM      7  C   UNL     1      -0.570  10.630  19.112  0.00  0.00    +0.000 A 
ATOM      8  C   UNL     1      -0.840  11.299  20.311  0.00  0.00    +0.000 A 
ATOM      9  C   UNL     1      -1.976  12.111  20.464  0.00  0.00    +0.000 A 
ATOM     10 CL   UNL     1      -3.124  12.372  19.195  0.00  0.00    +0.000 Cl
ATOM     11  C   UNL     1      -2.211  12.683  21.685  0.00  0.00    +0.000 A 
ATOM     12  C   UNL     1      -1.190  12.691  22.608  0.00  0.00    +0.000 A 
ATOM     13  N   UNL     1      -0.118  11.875  22.544  0.00  0.00    +0.000 NA
ATOM     14  C   UNL     1      -0.006  11.085  21.440  0.00  0.00    +0.000 A 
ATOM     15  C   UNL     1       0.887   9.992  21.397  0.00  0.00    +0.000 A 
ATOM     16  C   UNL     1      -1.488  13.725  23.674  0.00  0.00    +0.000 C 
ATOM     17  C   UNL     1      -2.848  14.300  23.200  0.00  0.00    +0.000 C 
ATOM     18  C   UNL     1      -3.452  13.239  22.290  0.00  0.00    +0.000 C 
ENDBRANCH   2   5
BRANCH   1  21
ATOM     19  C   UNL     1       4.667   4.551  18.552  0.00  0.00    +0.000 A 
ATOM     20  C   UNL     1       4.220   5.875  18.742  0.00  0.00    +0.000 A 
ATOM     21  C   UNL     1       2.870   6.225  18.662  0.00  0.00    +0.000 A 
ATOM     22  C   UNL     1       1.970   5.217  18.318  0.00  0.00    +0.000 A 
ATOM     23  C   UNL     1       2.399   3.896  18.043  0.00  0.00    +0.000 A 
ATOM     24  C   UNL     1       3.761   3.548  18.158  0.00  0.00    +0.000 A 
BRANCH  19  26
ATOM     25  C   UNL     1       6.892   4.793  17.755  0.00  0.00    +0.000 C 
ATOM     26  O   UNL     1       5.995   4.240  18.719  0.00  0.00    +0.000 OA
ENDBRANCH  19  26
BRANCH  23  27
ATOM     27  O   UNL     1       1.338   3.084  17.702  0.00  0.00    +0.000 OA
ATOM     28  C   UNL     1       0.615   2.414  18.726  0.00  0.00    +0.000 C 
ENDBRANCH  23  27
BRANCH  24  29
ATOM     29  O   UNL     1       4.094   2.254  17.850  0.00  0.00    +0.000 OA
ATOM     30  C   UNL     1       4.002   1.225  18.820  0.00  0.00    +0.000 C 
ENDBRANCH  24  29
ENDBRANCH   1  21
TORSDOF 5
ENDMDL
MODEL 2
REMARK VINA RESULT:      -7.6      1.691      3.070
REMARK  Name = 
REMARK  8 active torsions:
REMARK  status: ('A' for Active; 'I' for Inactive)
REMARK    1  A    between atoms: C_1  and  O_2
REMARK    2  A    between atoms: O_2  and  C_3
REMARK    3  A    between atoms: C_5  and  N_6
REMARK    4  A    between atoms: C_7  and  C_9
REMARK    5  A    between atoms: C_24  and  O_25
REMARK    6  A    between atoms: O_25  and  C_26
REMARK    7  A    between atoms: C_27  and  O_28
REMARK    8  A    between atoms: O_28  and  C_29
REMARK                            x       y       z     vdW  Elec       q    Type
REMARK                         _______ _______ _______ _____ _____    ______ ____
ROOT
ATOM      1  N   UNL     1       2.072   8.556  17.949  0.00  0.00    +0.000 N 
ATOM      2  C   UNL     1       1.425   8.892  19.127  0.00  0.00    +0.000 C 
ATOM      3  O   UNL     1       1.654   8.360  20.212  0.00  0.00    +0.000 OA
ATOM      4  H   UNL     1       1.946   9.145  17.136  0.00  0.00    +0.000 HD
ENDROOT
BRANCH   2   5
ATOM      5  C   UNL     1       0.387   9.977  19.137  0.00  0.00    +0.000 A 
ATOM      6  C   UNL     1      -0.383  10.032  17.970  0.00  0.00    +0.000 A 
ATOM      7  C   UNL     1      -1.549  10.775  17.923  0.00  0.00    +0.000 A 
ATOM      8  C   UNL     1      -1.982  11.477  19.054  0.00  0.00    +0.000 A 
ATOM      9  C   UNL     1      -3.301  11.948  19.171  0.00  0.00    +0.000 A 
ATOM     10 CL   UNL     1      -4.492  11.726  17.936  0.00  0.00    +0.000 Cl
ATOM     11  C   UNL     1      -3.672  12.570  20.333  0.00  0.00    +0.000 A 
ATOM     12  C   UNL     1      -2.683  12.972  21.202  0.00  0.00    +0.000 A 
ATOM     13  N   UNL     1      -1.424  12.489  21.176  0.00  0.00    +0.000 NA
ATOM     14  C   UNL     1      -1.106  11.640  20.160  0.00  0.00    +0.000 A 
ATOM     15  C   UNL     1       0.059  10.845  20.194  0.00  0.00    +0.000 A 
ATOM     16  C   UNL     1      -3.248  13.998  22.162  0.00  0.00    +0.000 C 
ATOM     17  C   UNL     1      -4.722  14.107  21.692  0.00  0.00    +0.000 C 
ATOM     18  C   UNL     1      -5.011  12.821  20.931  0.00  0.00    +0.000 C 
ENDBRANCH   2   5
BRANCH   1  21
ATOM     19  C   UNL     1       3.303   4.984  17.750  0.00  0.00    +0.000 A 
ATOM     20  C   UNL     1       2.491   6.102  18.037  0.00  0.00    +0.000 A 
ATOM     21  C   UNL     1       2.908   7.411  17.784  0.00  0.00    +0.000 A 
ATOM     22  C   UNL     1       4.201   7.584  17.290  0.00  0.00    +0.000 A 
ATOM     23  C   UNL     1       5.067   6.487  17.068  0.00  0.00    +0.000 A 
ATOM     24  C   UNL     1       4.624   5.167  17.298  0.00  0.00    +0.000 A 
BRANCH  19  26
ATOM     25  C   UNL     1       1.459   3.619  18.367  0.00  0.00    +0.000 C 
ATOM     26  O   UNL     1       2.819   3.712  17.942  0.00  0.00    +0.000 OA
ENDBRANCH  19  26
BRANCH  23  27
ATOM     27  O   UNL     1       6.297   6.903  16.605  0.00  0.00    +0.000 OA
ATOM     28  C   UNL     1       7.330   7.197  17.535  0.00  0.00    +0.000 C 
ENDBRANCH  23  27
BRANCH  24  29
ATOM     29  O   UNL     1       5.534   4.165  17.082  0.00  0.00    +0.000 OA
ATOM     30  C   UNL     1       5.802   3.691  15.773  0.00  0.00    +0.000 C 
ENDBRANCH  24  29
ENDBRANCH   1  21
TORSDOF 5
ENDMDL
MODEL 3
REMARK VINA RESULT:      -7.5      1.323      1.484
REMARK  Name = 
REMARK  8 active torsions:
REMARK  status: ('A' for Active; 'I' for Inactive)
REMARK    1  A    between atoms: C_1  and  O_2
REMARK    2  A    between atoms: O_2  and  C_3
REMARK    3  A    between atoms: C_5  and  N_6
REMARK    4  A    between atoms: C_7  and  C_9
REMARK    5  A    between atoms: C_24  and  O_25
REMARK    6  A    between atoms: O_25  and  C_26
REMARK    7  A    between atoms: C_27  and  O_28
REMARK    8  A    between atoms: O_28  and  C_29
REMARK                            x       y       z     vdW  Elec       q    Type
REMARK                         _______ _______ _______ _____ _____    ______ ____
ROOT
ATOM      1  N   UNL     1       2.194   7.389  19.098  0.00  0.00    +0.000 N 
ATOM      2  C   UNL     1       1.623   8.068  20.161  0.00  0.00    +0.000 C 
ATOM      3  O   UNL     1       1.751   7.734  21.338  0.00  0.00    +0.000 OA
ATOM      4  H   UNL     1       2.178   7.815  18.180  0.00  0.00    +0.000 HD
ENDROOT
BRANCH   2   5
ATOM      5  C   UNL     1       0.804   9.303  19.918  0.00  0.00    +0.000 A 
ATOM      6  C   UNL     1       0.380   9.448  18.593  0.00  0.00    +0.000 A 
ATOM      7  C   UNL     1      -0.600  10.364  18.256  0.00  0.00    +0.000 A 
ATOM      8  C   UNL     1      -1.194  11.155  19.247  0.00  0.00    +0.000 A 
ATOM      9  C   UNL     1      -2.405  11.831  19.025  0.00  0.00    +0.000 A 
ATOM     10 CL   UNL     1      -3.256  11.767  17.519  0.00  0.00    +0.000 Cl
ATOM     11  C   UNL     1      -2.960  12.535  20.059  0.00  0.00    +0.000 A 
ATOM     12  C   UNL     1      -2.178  12.799  21.161  0.00  0.00    +0.000 A 
ATOM     13  N   UNL     1      -1.049  12.123  21.455  0.00  0.00    +0.000 NA
ATOM     14  C   UNL     1      -0.619  11.207  20.544  0.00  0.00    +0.000 A 
ATOM     15  C   UNL     1       0.357  10.240  20.867  0.00  0.00    +0.000 A 
ATOM     16  C   UNL     1      -2.802  13.926  21.957  0.00  0.00    +0.000 C 
ATOM     17  C   UNL     1      -4.068  14.254  21.122  0.00  0.00    +0.000 C 
ATOM     18  C   UNL     1      -4.351  13.009  20.293  0.00  0.00    +0.000 C 
ENDBRANCH   2   5
BRANCH   1  21
ATOM     19  C   UNL     1       4.747   4.598  19.122  0.00  0.00    +0.000 A 
ATOM     20  C   UNL     1       4.148   5.857  18.904  0.00  0.00    +0.000 A 
ATOM     21  C   UNL     1       2.803   6.102  19.193  0.00  0.00    +0.000 A 
ATOM     22  C   UNL     1       2.043   5.026  19.651  0.00  0.00    +0.000 A 
ATOM     23  C   UNL     1       2.597   3.733  19.803  0.00  0.00    +0.000 A 
ATOM     24  C   UNL     1       3.964   3.504  19.537  0.00  0.00    +0.000 A 
BRANCH  19  26
ATOM     25  C   UNL     1       6.924   5.547  19.197  0.00  0.00    +0.000 C 
ATOM     26  O   UNL     1       6.092   4.426  18.897  0.00  0.00    +0.000 OA
ENDBRANCH  19  26
BRANCH  23  27
ATOM     27  O   UNL     1       1.652   2.830  20.242  0.00  0.00    +0.000 OA
ATOM     28  C   UNL     1       1.492   2.612  21.637  0.00  0.00    +0.000 C 
ENDBRANCH  23  27
BRANCH  24  29
ATOM     29  O   UNL     1       4.413   2.218  19.686  0.00  0.00    +0.000 OA
ATOM     30  C   UNL     1       4.057   1.207  18.759  0.00  0.00    +0.000 C 
ENDBRANCH  24  29
ENDBRANCH   1  21
TORSDOF 5
ENDMDL
MODEL 4
REMARK VINA RESULT:      -7.4      1.103      1.345
REMARK  Name = 
REMARK  8 active torsions:
REMARK  status: ('A' for Active; 'I' for Inactive)
REMARK    1  A    between atoms: C_1  and  O_2
REMARK    2  A    between atoms: O_2  and  C_3
REMARK    3  A    between atoms: C_5  and  N_6
REMARK    4  A    between atoms: C_7  and  C_9
REMARK    5  A    between atoms: C_24  and  O_25
REMARK    6  A    between atoms: O_25  and  C_26
REMARK    7  A    between atoms: C_27  and  O_28
REMARK    8  A    between atoms: O_28  and  C_29
REMARK                            x       y       z     vdW  Elec       q    Type
REMARK                         _______ _______ _______ _____ _____    ______ ____
ROOT
ATOM      1  N   UNL     1       2.041   7.688  18.352  0.00  0.00    +0.000 N 
ATOM      2  C   UNL     1       1.561   8.344  19.474  0.00  0.00    +0.000 C 
ATOM      3  O   UNL     1       1.845   8.028  20.628  0.00  0.00    +0.000 OA
ATOM      4  H   UNL     1       1.892   8.104  17.442  0.00  0.00    +0.000 HD
ENDROOT
BRANCH   2   5
ATOM      5  C   UNL     1       0.650   9.529  19.326  0.00  0.00    +0.000 A 
ATOM      6  C   UNL     1       0.016   9.601  18.081  0.00  0.00    +0.000 A 
ATOM      7  C   UNL     1      -1.052  10.457  17.876  0.00  0.00    +0.000 A 
ATOM      8  C   UNL     1      -1.522  11.257  18.923  0.00  0.00    +0.000 A 
ATOM      9  C   UNL     1      -2.788  11.867  18.876  0.00  0.00    +0.000 A 
ATOM     10 CL   UNL     1      -3.861  11.704  17.528  0.00  0.00    +0.000 Cl
ATOM     11  C   UNL     1      -3.208  12.584  19.963  0.00  0.00    +0.000 A 
ATOM     12  C   UNL     1      -2.278  12.928  20.917  0.00  0.00    +0.000 A 
ATOM     13  N   UNL     1      -1.082  12.317  21.049  0.00  0.00    +0.000 NA
ATOM     14  C   UNL     1      -0.754  11.388  20.110  0.00  0.00    +0.000 A 
ATOM     15  C   UNL     1       0.310  10.480  20.303  0.00  0.00    +0.000 A 
ATOM     16  C   UNL     1      -2.827  14.055  21.767  0.00  0.00    +0.000 C 
ATOM     17  C   UNL     1      -4.223  14.290  21.135  0.00  0.00    +0.000 C 
ATOM     18  C   UNL     1      -4.568  13.002  20.400  0.00  0.00    +0.000 C 
ENDBRANCH   2   5
BRANCH   1  21
ATOM     19  C   UNL     1       4.689   5.037  18.870  0.00  0.00    +0.000 A 
ATOM     20  C   UNL     1       4.071   6.299  18.740  0.00  0.00    +0.000 A 
ATOM     21  C   UNL     1       2.729   6.438  18.379  0.00  0.00    +0.000 A 
ATOM     22  C   UNL     1       2.024   5.272  18.082  0.00  0.00    +0.000 A 
ATOM     23  C   UNL     1       2.639   3.998  18.126  0.00  0.00    +0.000 A 
ATOM     24  C   UNL     1       3.986   3.867  18.522  0.00  0.00    +0.000 A 
BRANCH  19  26
ATOM     25  C   UNL     1       6.991   4.982  18.288  0.00  0.00    +0.000 C 
ATOM     26  O   UNL     1       5.989   4.946  19.304  0.00  0.00    +0.000 OA
ENDBRANCH  19  26
BRANCH  23  27
ATOM     27  O   UNL     1       1.755   3.001  17.771  0.00  0.00    +0.000 OA
ATOM     28  C   UNL     1       0.880   2.462  18.752  0.00  0.00    +0.000 C 
ENDBRANCH  23  27
BRANCH  24  29
ATOM     29  O   UNL     1       4.511   2.600  18.514  0.00  0.00    +0.000 OA
ATOM     30  C   UNL     1       4.486   1.790  19.677  0.00  0.00    +0.000 C 
ENDBRANCH  24  29
ENDBRANCH   1  21
TORSDOF 5
ENDMDL
MODEL 5
REMARK VINA RESULT:      -7.4      1.947      3.108
REMARK  Name = 
REMARK  8 active torsions:
REMARK  status: ('A' for Active; 'I' for Inactive)
REMARK    1  A    between atoms: C_1  and  O_2
REMARK    2  A    between atoms: O_2  and  C_3
REMARK    3  A    between atoms: C_5  and  N_6
REMARK    4  A    between atoms: C_7  and  C_9
REMARK    5  A    between atoms: C_24  and  O_25
REMARK    6  A    between atoms: O_25  and  C_26
REMARK    7  A    between atoms: C_27  and  O_28
REMARK    8  A    between atoms: O_28  and  C_29
REMARK                            x       y       z     vdW  Elec       q    Type
REMARK                         _______ _______ _______ _____ _____    ______ ____
ROOT
ATOM      1  N   UNL     1       2.477   7.626  18.906  0.00  0.00    +0.000 N 
ATOM      2  C   UNL     1       1.952   8.762  18.312  0.00  0.00    +0.000 C 
ATOM      3  O   UNL     1       1.892   8.936  17.096  0.00  0.00    +0.000 OA
ATOM      4  H   UNL     1       2.344   7.487  19.899  0.00  0.00    +0.000 HD
ENDROOT
BRANCH   2   5
ATOM      5  C   UNL     1       1.393   9.869  19.159  0.00  0.00    +0.000 A 
ATOM      6  C   UNL     1       1.668  11.150  18.667  0.00  0.00    +0.000 A 
ATOM      7  C   UNL     1       1.003  12.258  19.161  0.00  0.00    +0.000 A 
ATOM      8  C   UNL     1       0.031  12.109  20.157  0.00  0.00    +0.000 A 
ATOM      9  C   UNL     1      -0.899  13.124  20.438  0.00  0.00    +0.000 A 
ATOM     10 CL   UNL     1      -0.918  14.641  19.605  0.00  0.00    +0.000 Cl
ATOM     11  C   UNL     1      -1.862  12.885  21.382  0.00  0.00    +0.000 A 
ATOM     12  C   UNL     1      -1.701  11.802  22.216  0.00  0.00    +0.000 A 
ATOM     13  N   UNL     1      -0.878  10.768  21.948  0.00  0.00    +0.000 NA
ATOM     14  C   UNL     1      -0.092  10.872  20.842  0.00  0.00    +0.000 A 
ATOM     15  C   UNL     1       0.575   9.753  20.296  0.00  0.00    +0.000 A 
ATOM     16  C   UNL     1      -2.595  11.969  23.428  0.00  0.00    +0.000 C 
ATOM     17  C   UNL     1      -3.288  13.325  23.138  0.00  0.00    +0.000 C 
ATOM     18  C   UNL     1      -3.176  13.535  21.634  0.00  0.00    +0.000 C 
ENDBRANCH   2   5
BRANCH   1  21
ATOM     19  C   UNL     1       3.462   4.385  17.221  0.00  0.00    +0.000 A 
ATOM     20  C   UNL     1       2.757   5.319  18.010  0.00  0.00    +0.000 A 
ATOM     21  C   UNL     1       3.219   6.621  18.215  0.00  0.00    +0.000 A 
ATOM     22  C   UNL     1       4.454   6.955  17.659  0.00  0.00    +0.000 A 
ATOM     23  C   UNL     1       5.222   6.015  16.931  0.00  0.00    +0.000 A 
ATOM     24  C   UNL     1       4.731   4.712  16.704  0.00  0.00    +0.000 A 
BRANCH  19  26
ATOM     25  C   UNL     1       2.161   2.577  18.045  0.00  0.00    +0.000 C 
ATOM     26  O   UNL     1       2.930   3.141  16.983  0.00  0.00    +0.000 OA
ENDBRANCH  19  26
BRANCH  23  27
ATOM     27  O   UNL     1       6.412   6.563  16.502  0.00  0.00    +0.000 OA
ATOM     28  C   UNL     1       7.328   7.076  17.459  0.00  0.00    +0.000 C 
ENDBRANCH  23  27
BRANCH  24  29
ATOM     29  O   UNL     1       5.549   3.858  16.011  0.00  0.00    +0.000 OA
ATOM     30  C   UNL     1       5.778   4.030  14.623  0.00  0.00    +0.000 C 
ENDBRANCH  24  29
ENDBRANCH   1  21
TORSDOF 5
ENDMDL
MODEL 6
REMARK VINA RESULT:      -7.4      2.757      3.908
REMARK  Name = 
REMARK  8 active torsions:
REMARK  status: ('A' for Active; 'I' for Inactive)
REMARK    1  A    between atoms: C_1  and  O_2
REMARK    2  A    between atoms: O_2  and  C_3
REMARK    3  A    between atoms: C_5  and  N_6
REMARK    4  A    between atoms: C_7  and  C_9
REMARK    5  A    between atoms: C_24  and  O_25
REMARK    6  A    between atoms: O_25  and  C_26
REMARK    7  A    between atoms: C_27  and  O_28
REMARK    8  A    between atoms: O_28  and  C_29
REMARK                            x       y       z     vdW  Elec       q    Type
REMARK                         _______ _______ _______ _____ _____    ______ ____
ROOT
ATOM      1  N   UNL     1       2.678   7.760  18.113  0.00  0.00    +0.000 N 
ATOM      2  C   UNL     1       1.945   8.466  19.052  0.00  0.00    +0.000 C 
ATOM      3  O   UNL     1       1.628   8.020  20.153  0.00  0.00    +0.000 OA
ATOM      4  H   UNL     1       3.035   8.249  17.302  0.00  0.00    +0.000 HD
ENDROOT
BRANCH   2   5
ATOM      5  C   UNL     1       1.501   9.871  18.764  0.00  0.00    +0.000 A 
ATOM      6  C   UNL     1       0.143  10.096  19.012  0.00  0.00    +0.000 A 
ATOM      7  C   UNL     1      -0.366  11.382  19.068  0.00  0.00    +0.000 A 
ATOM      8  C   UNL     1       0.481  12.482  18.887  0.00  0.00    +0.000 A 
ATOM      9  C   UNL     1       0.099  13.779  19.271  0.00  0.00    +0.000 A 
ATOM     10 CL   UNL     1      -1.441  14.136  19.976  0.00  0.00    +0.000 Cl
ATOM     11  C   UNL     1       1.003  14.796  19.124  0.00  0.00    +0.000 A 
ATOM     12  C   UNL     1       2.114  14.573  18.343  0.00  0.00    +0.000 A 
ATOM     13  N   UNL     1       2.562  13.344  18.014  0.00  0.00    +0.000 NA
ATOM     14  C   UNL     1       1.798  12.284  18.395  0.00  0.00    +0.000 A 
ATOM     15  C   UNL     1       2.298  10.964  18.380  0.00  0.00    +0.000 A 
ATOM     16  C   UNL     1       2.725  15.903  17.953  0.00  0.00    +0.000 C 
ATOM     17  C   UNL     1       1.775  16.914  18.646  0.00  0.00    +0.000 C 
ATOM     18  C   UNL     1       1.085  16.139  19.760  0.00  0.00    +0.000 C 
ENDBRANCH   2   5
BRANCH   1  21
ATOM     19  C   UNL     1       2.345   3.994  17.965  0.00  0.00    +0.000 A 
ATOM     20  C   UNL     1       2.007   5.364  17.998  0.00  0.00    +0.000 A 
ATOM     21  C   UNL     1       2.963   6.364  18.192  0.00  0.00    +0.000 A 
ATOM     22  C   UNL     1       4.276   5.954  18.422  0.00  0.00    +0.000 A 
ATOM     23  C   UNL     1       4.631   4.585  18.475  0.00  0.00    +0.000 A 
ATOM     24  C   UNL     1       3.663   3.585  18.247  0.00  0.00    +0.000 A 
BRANCH  19  26
ATOM     25  C   UNL     1       0.688   2.524  18.822  0.00  0.00    +0.000 C 
ATOM     26  O   UNL     1       1.383   3.052  17.693  0.00  0.00    +0.000 OA
ENDBRANCH  19  26
BRANCH  23  27
ATOM     27  O   UNL     1       5.975   4.424  18.739  0.00  0.00    +0.000 OA
ATOM     28  C   UNL     1       6.751   5.551  19.119  0.00  0.00    +0.000 C 
ENDBRANCH  23  27
BRANCH  24  29
ATOM     29  O   UNL     1       4.086   2.284  18.341  0.00  0.00    +0.000 OA
ATOM     30  C   UNL     1       4.239   1.654  19.602  0.00  0.00    +0.000 C 
ENDBRANCH  24  29
ENDBRANCH   1  21
TORSDOF 5
ENDMDL
MODEL 7
REMARK VINA RESULT:      -7.3      1.219      2.768
REMARK  Name = 
REMARK  8 active torsions:
REMARK  status: ('A' for Active; 'I' for Inactive)
REMARK    1  A    between atoms: C_1  and  O_2
REMARK    2  A    between atoms: O_2  and  C_3
REMARK    3  A    between atoms: C_5  and  N_6
REMARK    4  A    between atoms: C_7  and  C_9
REMARK    5  A    between atoms: C_24  and  O_25
REMARK    6  A    between atoms: O_25  and  C_26
REMARK    7  A    between atoms: C_27  and  O_28
REMARK    8  A    between atoms: O_28  and  C_29
REMARK                            x       y       z     vdW  Elec       q    Type
REMARK                         _______ _______ _______ _____ _____    ______ ____
ROOT
ATOM      1  N   UNL     1       2.152   7.441  18.900  0.00  0.00    +0.000 N 
ATOM      2  C   UNL     1       1.601   8.137  19.963  0.00  0.00    +0.000 C 
ATOM      3  O   UNL     1       1.779   7.843  21.143  0.00  0.00    +0.000 OA
ATOM      4  H   UNL     1       2.092   7.837  17.971  0.00  0.00    +0.000 HD
ENDROOT
BRANCH   2   5
ATOM      5  C   UNL     1       0.741   9.342  19.713  0.00  0.00    +0.000 A 
ATOM      6  C   UNL     1       0.289   9.450  18.393  0.00  0.00    +0.000 A 
ATOM      7  C   UNL     1      -0.724  10.330  18.058  0.00  0.00    +0.000 A 
ATOM      8  C   UNL     1      -1.323  11.121  19.044  0.00  0.00    +0.000 A 
ATOM      9  C   UNL     1      -2.558  11.757  18.833  0.00  0.00    +0.000 A 
ATOM     10 CL   UNL     1      -3.434  11.639  17.345  0.00  0.00    +0.000 Cl
ATOM     11  C   UNL     1      -3.115  12.463  19.865  0.00  0.00    +0.000 A 
ATOM     12  C   UNL     1      -2.321  12.771  20.947  0.00  0.00    +0.000 A 
ATOM     13  N   UNL     1      -1.167  12.135  21.232  0.00  0.00    +0.000 NA
ATOM     14  C   UNL     1      -0.727  11.215  20.330  0.00  0.00    +0.000 A 
ATOM     15  C   UNL     1       0.283  10.283  20.652  0.00  0.00    +0.000 A 
ATOM     16  C   UNL     1      -2.964  13.895  21.733  0.00  0.00    +0.000 C 
ATOM     17  C   UNL     1      -4.254  14.169  20.917  0.00  0.00    +0.000 C 
ATOM     18  C   UNL     1      -4.515  12.901  20.115  0.00  0.00    +0.000 C 
ENDBRANCH   2   5
BRANCH   1  21
ATOM     19  C   UNL     1       2.858   3.726  18.778  0.00  0.00    +0.000 A 
ATOM     20  C   UNL     1       2.161   4.953  18.775  0.00  0.00    +0.000 A 
ATOM     21  C   UNL     1       2.799   6.173  19.012  0.00  0.00    +0.000 A 
ATOM     22  C   UNL     1       4.158   6.132  19.321  0.00  0.00    +0.000 A 
ATOM     23  C   UNL     1       4.866   4.910  19.410  0.00  0.00    +0.000 A 
ATOM     24  C   UNL     1       4.218   3.686  19.138  0.00  0.00    +0.000 A 
BRANCH  19  26
ATOM     25  C   UNL     1       0.851   2.462  18.909  0.00  0.00    +0.000 C 
ATOM     26  O   UNL     1       2.203   2.560  18.462  0.00  0.00    +0.000 OA
ENDBRANCH  19  26
BRANCH  23  27
ATOM     27  O   UNL     1       6.186   5.117  19.752  0.00  0.00    +0.000 OA
ATOM     28  C   UNL     1       7.070   5.696  18.802  0.00  0.00    +0.000 C 
ENDBRANCH  23  27
BRANCH  24  29
ATOM     29  O   UNL     1       4.971   2.548  19.272  0.00  0.00    +0.000 OA
ATOM     30  C   UNL     1       4.867   1.734  20.427  0.00  0.00    +0.000 C 
ENDBRANCH  24  29
ENDBRANCH   1  21
TORSDOF 5
ENDMDL
MODEL 8
REMARK VINA RESULT:      -7.3      2.186      2.433
REMARK  Name = 
REMARK  8 active torsions:
REMARK  status: ('A' for Active; 'I' for Inactive)
REMARK    1  A    between atoms: C_1  and  O_2
REMARK    2  A    between atoms: O_2  and  C_3
REMARK    3  A    between atoms: C_5  and  N_6
REMARK    4  A    between atoms: C_7  and  C_9
REMARK    5  A    between atoms: C_24  and  O_25
REMARK    6  A    between atoms: O_25  and  C_26
REMARK    7  A    between atoms: C_27  and  O_28
REMARK    8  A    between atoms: O_28  and  C_29
REMARK                            x       y       z     vdW  Elec       q    Type
REMARK                         _______ _______ _______ _____ _____    ______ ____
ROOT
ATOM      1  N   UNL     1       2.345   7.951  18.260  0.00  0.00    +0.000 N 
ATOM      2  C   UNL     1       1.682   8.576  19.303  0.00  0.00    +0.000 C 
ATOM      3  O   UNL     1       1.651   8.144  20.454  0.00  0.00    +0.000 OA
ATOM      4  H   UNL     1       2.460   8.447  17.386  0.00  0.00    +0.000 HD
ENDROOT
BRANCH   2   5
ATOM      5  C   UNL     1       0.958   9.871  19.071  0.00  0.00    +0.000 A 
ATOM      6  C   UNL     1      -0.422   9.793  19.291  0.00  0.00    +0.000 A 
ATOM      7  C   UNL     1      -1.191  10.939  19.394  0.00  0.00    +0.000 A 
ATOM      8  C   UNL     1      -0.591  12.200  19.291  0.00  0.00    +0.000 A 
ATOM      9  C   UNL     1      -1.244  13.366  19.726  0.00  0.00    +0.000 A 
ATOM     10 CL   UNL     1      -2.836  13.356  20.403  0.00  0.00    +0.000 Cl
ATOM     11  C   UNL     1      -0.572  14.556  19.654  0.00  0.00    +0.000 A 
ATOM     12  C   UNL     1       0.575  14.612  18.894  0.00  0.00    +0.000 A 
ATOM     13  N   UNL     1       1.277  13.523  18.520  0.00  0.00    +0.000 NA
ATOM     14  C   UNL     1       0.747  12.308  18.827  0.00  0.00    +0.000 A 
ATOM     15  C   UNL     1       1.514  11.125  18.762  0.00  0.00    +0.000 A 
ATOM     16  C   UNL     1       0.900  16.059  18.587  0.00  0.00    +0.000 C 
ATOM     17  C   UNL     1      -0.254  16.811  19.300  0.00  0.00    +0.000 C 
ATOM     18  C   UNL     1      -0.785  15.851  20.355  0.00  0.00    +0.000 C 
ENDBRANCH   2   5
BRANCH   1  21
ATOM     19  C   UNL     1       4.646   5.009  18.861  0.00  0.00    +0.000 A 
ATOM     20  C   UNL     1       4.187   6.334  18.701  0.00  0.00    +0.000 A 
ATOM     21  C   UNL     1       2.876   6.628  18.317  0.00  0.00    +0.000 A 
ATOM     22  C   UNL     1       2.040   5.550  18.028  0.00  0.00    +0.000 A 
ATOM     23  C   UNL     1       2.495   4.212  18.102  0.00  0.00    +0.000 A 
ATOM     24  C   UNL     1       3.812   3.926  18.521  0.00  0.00    +0.000 A 
BRANCH  19  26
ATOM     25  C   UNL     1       6.945   5.599  18.769  0.00  0.00    +0.000 C 
ATOM     26  O   UNL     1       5.919   4.769  19.317  0.00  0.00    +0.000 OA
ENDBRANCH  19  26
BRANCH  23  27
ATOM     27  O   UNL     1       1.502   3.322  17.749  0.00  0.00    +0.000 OA
ATOM     28  C   UNL     1       0.797   2.625  18.765  0.00  0.00    +0.000 C 
ENDBRANCH  23  27
BRANCH  24  29
ATOM     29  O   UNL     1       4.179   2.605  18.541  0.00  0.00    +0.000 OA
ATOM     30  C   UNL     1       4.280   1.892  19.762  0.00  0.00    +0.000 C 
ENDBRANCH  24  29
ENDBRANCH   1  21
TORSDOF 5
ENDMDL
MODEL 9
REMARK VINA RESULT:      -7.3      1.766      2.759
REMARK  Name = 
REMARK  8 active torsions:
REMARK  status: ('A' for Active; 'I' for Inactive)
REMARK    1  A    between atoms: C_1  and  O_2
REMARK    2  A    between atoms: O_2  and  C_3
REMARK    3  A    between atoms: C_5  and  N_6
REMARK    4  A    between atoms: C_7  and  C_9
REMARK    5  A    between atoms: C_24  and  O_25
REMARK    6  A    between atoms: O_25  and  C_26
REMARK    7  A    between atoms: C_27  and  O_28
REMARK    8  A    between atoms: O_28  and  C_29
REMARK                            x       y       z     vdW  Elec       q    Type
REMARK                         _______ _______ _______ _____ _____    ______ ____
ROOT
ATOM      1  N   UNL     1       1.846   7.751  19.006  0.00  0.00    +0.000 N 
ATOM      2  C   UNL     1       1.420   8.613  20.003  0.00  0.00    +0.000 C 
ATOM      3  O   UNL     1       1.798   8.550  21.172  0.00  0.00    +0.000 OA
ATOM      4  H   UNL     1       1.616   7.965  18.044  0.00  0.00    +0.000 HD
ENDROOT
BRANCH   2   5
ATOM      5  C   UNL     1       0.452   9.716  19.687  0.00  0.00    +0.000 A 
ATOM      6  C   UNL     1       0.045   9.744  18.349  0.00  0.00    +0.000 A 
ATOM      7  C   UNL     1      -1.039  10.507  17.952  0.00  0.00    +0.000 A 
ATOM      8  C   UNL     1      -1.754  11.257  18.893  0.00  0.00    +0.000 A 
ATOM      9  C   UNL     1      -3.038  11.757  18.618  0.00  0.00    +0.000 A 
ATOM     10 CL   UNL     1      -3.838  11.513  17.103  0.00  0.00    +0.000 Cl
ATOM     11  C   UNL     1      -3.704  12.427  19.608  0.00  0.00    +0.000 A 
ATOM     12  C   UNL     1      -2.990  12.841  20.710  0.00  0.00    +0.000 A 
ATOM     13  N   UNL     1      -1.789  12.334  21.056  0.00  0.00    +0.000 NA
ATOM     14  C   UNL     1      -1.222  11.443  20.197  0.00  0.00    +0.000 A 
ATOM     15  C   UNL     1      -0.136  10.628  20.582  0.00  0.00    +0.000 A 
ATOM     16  C   UNL     1      -3.775  13.911  21.440  0.00  0.00    +0.000 C 
ATOM     17  C   UNL     1      -5.052  14.031  20.569  0.00  0.00    +0.000 C 
ATOM     18  C   UNL     1      -5.150  12.724  19.795  0.00  0.00    +0.000 C 
ENDBRANCH   2   5
BRANCH   1  21
ATOM     19  C   UNL     1       2.951   4.393  20.351  0.00  0.00    +0.000 A 
ATOM     20  C   UNL     1       2.272   5.624  20.229  0.00  0.00    +0.000 A 
ATOM     21  C   UNL     1       2.586   6.552  19.233  0.00  0.00    +0.000 A 
ATOM     22  C   UNL     1       3.653   6.246  18.389  0.00  0.00    +0.000 A 
ATOM     23  C   UNL     1       4.403   5.055  18.538  0.00  0.00    +0.000 A 
ATOM     24  C   UNL     1       4.058   4.111  19.528  0.00  0.00    +0.000 A 
BRANCH  19  26
ATOM     25  C   UNL     1       1.226   2.973  21.160  0.00  0.00    +0.000 C 
ATOM     26  O   UNL     1       2.555   3.478  21.296  0.00  0.00    +0.000 OA
ENDBRANCH  19  26
BRANCH  23  27
ATOM     27  O   UNL     1       5.420   4.982  17.610  0.00  0.00    +0.000 OA
ATOM     28  C   UNL     1       5.180   4.348  16.361  0.00  0.00    +0.000 C 
ENDBRANCH  23  27
BRANCH  24  29
ATOM     29  O   UNL     1       4.852   2.997  19.620  0.00  0.00    +0.000 OA
ATOM     30  C   UNL     1       4.361   1.717  19.260  0.00  0.00    +0.000 C 
ENDBRANCH  24  29
ENDBRANCH   1  21
TORSDOF 5
ENDMDL
