MODEL 1
REMARK VINA RESULT:      -7.5      0.000      0.000
REMARK  Name = 
REMARK  8 active torsions:
REMARK  status: ('A' for Active; 'I' for Inactive)
REMARK    1  A    between atoms: C_1  and  C_2
REMARK    2  A    between atoms: C_2  and  C_3
REMARK    3  A    between atoms: N_5  and  C_6
REMARK    4  A    between atoms: C_8  and  C_9
REMARK    5  A    between atoms: N_11  and  C_12
REMARK    6  A    between atoms: N_11  and  C_13
REMARK    7  A    between atoms: C_21  and  O_22
REMARK    8  A    between atoms: O_22  and  C_23
REMARK                            x       y       z     vdW  Elec       q    Type
REMARK                         _______ _______ _______ _____ _____    ______ ____
ROOT
ATOM      1  C   UNL     1       4.379   5.483  17.748  0.00  0.00    +0.000 A 
ATOM      2  C   UNL     1       3.658   6.691  17.614  0.00  0.00    +0.000 A 
ATOM      3  C   UNL     1       2.747   7.124  18.599  0.00  0.00    +0.000 A 
ATOM      4  C   UNL     1       2.515   6.288  19.689  0.00  0.00    +0.000 A 
ATOM      5  C   UNL     1       3.322   5.163  19.889  0.00  0.00    +0.000 A 
ATOM      6  C   UNL     1       4.283   4.766  18.949  0.00  0.00    +0.000 A 
ENDROOT
BRANCH   1   9
ATOM      7  C   UNL     1       6.480   5.355  16.491  0.00  0.00    +0.000 C 
ATOM      8  O   UNL     1       7.171   5.934  17.330  0.00  0.00    +0.000 OA
ATOM      9  N   UNL     1       5.130   5.075  16.616  0.00  0.00    +0.000 N 
ATOM     10  H   UNL     1       4.850   4.202  16.183  0.00  0.00    +0.000 HD
BRANCH   7  12
ATOM     11  C   UNL     1       6.054   4.047  14.367  0.00  0.00    +0.000 C 
ATOM     12  C   UNL     1       7.050   4.873  15.166  0.00  0.00    +0.000 C 
ENDBRANCH   7  12
ENDBRANCH   1   9
BRANCH   3  13
ATOM     13  C   UNL     1       2.031   8.425  18.365  0.00  0.00    +0.000 C 
ATOM     14  O   UNL     1       2.210   8.900  17.240  0.00  0.00    +0.000 OA
ATOM     15  N   UNL     1       1.306   9.084  19.400  0.00  0.00    +0.000 N 
ATOM     16  C   UNL     1       1.223   8.550  20.764  0.00  0.00    +0.000 C 
BRANCH  15  17
ATOM     17  C   UNL     1       0.605  10.338  19.144  0.00  0.00    +0.000 A 
ATOM     18  C   UNL     1      -0.660  10.372  18.541  0.00  0.00    +0.000 A 
ATOM     19  C   UNL     1      -1.313  11.581  18.255  0.00  0.00    +0.000 A 
ATOM     20  C   UNL     1      -0.717  12.795  18.572  0.00  0.00    +0.000 A 
ATOM     21  C   UNL     1       0.524  12.794  19.194  0.00  0.00    +0.000 A 
ATOM     22  C   UNL     1       1.172  11.584  19.475  0.00  0.00    +0.000 A 
ENDBRANCH  15  17
ENDBRANCH   3  13
BRANCH   6  23
ATOM     23  O   UNL     1       5.023   3.707  19.394  0.00  0.00    +0.000 OA
ATOM     24  C   UNL     1       4.374   2.573  19.950  0.00  0.00    +0.000 C 
ENDBRANCH   6  23
TORSDOF 5
ENDMDL
MODEL 2
REMARK VINA RESULT:      -7.3      1.867      3.510
REMARK  Name = 
REMARK  8 active torsions:
REMARK  status: ('A' for Active; 'I' for Inactive)
REMARK    1  A    between atoms: C_1  and  C_2
REMARK    2  A    between atoms: C_2  and  C_3
REMARK    3  A    between atoms: N_5  and  C_6
REMARK    4  A    between atoms: C_8  and  C_9
REMARK    5  A    between atoms: N_11  and  C_12
REMARK    6  A    between atoms: N_11  and  C_13
REMARK    7  A    between atoms: C_21  and  O_22
REMARK    8  A    between atoms: O_22  and  C_23
REMARK                            x       y       z     vdW  Elec       q    Type
REMARK                         _______ _______ _______ _____ _____    ______ ____
ROOT
ATOM      1  C   UNL     1       3.122   5.207  18.438  0.00  0.00    +0.000 A 
ATOM      2  C   UNL     1       2.392   6.404  18.618  0.00  0.00    +0.000 A 
ATOM      3  C   UNL     1       2.801   7.617  18.027  0.00  0.00    +0.000 A 
ATOM      4  C   UNL     1       3.995   7.626  17.310  0.00  0.00    +0.000 A 
ATOM      5  C   UNL     1       4.643   6.421  17.020  0.00  0.00    +0.000 A 
ATOM      6  C   UNL     1       4.201   5.199  17.543  0.00  0.00    +0.000 A 
ENDROOT
BRANCH   1   9
ATOM      7  C   UNL     1       1.697   3.245  18.808  0.00  0.00    +0.000 C 
ATOM      8  O   UNL     1       1.090   3.319  17.740  0.00  0.00    +0.000 OA
ATOM      9  N   UNL     1       2.707   4.099  19.221  0.00  0.00    +0.000 N 
ATOM     10  H   UNL     1       3.426   3.647  19.774  0.00  0.00    +0.000 HD
BRANCH   7  12
ATOM     11  C   UNL     1       1.478   2.693  21.268  0.00  0.00    +0.000 C 
ATOM     12  C   UNL     1       1.389   2.173  19.842  0.00  0.00    +0.000 C 
ENDBRANCH   7  12
ENDBRANCH   1   9
BRANCH   3  13
ATOM     13  C   UNL     1       1.956   8.835  18.276  0.00  0.00    +0.000 C 
ATOM     14  O   UNL     1       1.937   9.633  17.336  0.00  0.00    +0.000 OA
ATOM     15  N   UNL     1       1.329   9.072  19.534  0.00  0.00    +0.000 N 
ATOM     16  C   UNL     1       1.480   8.160  20.672  0.00  0.00    +0.000 C 
BRANCH  15  17
ATOM     17  C   UNL     1       0.499  10.253  19.747  0.00  0.00    +0.000 A 
ATOM     18  C   UNL     1      -0.824  10.325  19.288  0.00  0.00    +0.000 A 
ATOM     19  C   UNL     1      -1.606  11.478  19.454  0.00  0.00    +0.000 A 
ATOM     20  C   UNL     1      -1.085  12.596  20.094  0.00  0.00    +0.000 A 
ATOM     21  C   UNL     1       0.213  12.547  20.583  0.00  0.00    +0.000 A 
ATOM     22  C   UNL     1       0.990  11.393  20.412  0.00  0.00    +0.000 A 
ENDBRANCH  15  17
ENDBRANCH   3  13
BRANCH   6  23
ATOM     23  O   UNL     1       4.917   4.144  17.049  0.00  0.00    +0.000 OA
ATOM     24  C   UNL     1       6.243   4.343  16.583  0.00  0.00    +0.000 C 
ENDBRANCH   6  23
TORSDOF 5
ENDMDL
MODEL 3
REMARK VINA RESULT:      -7.3      0.881      1.306
REMARK  Name = 
REMARK  8 active torsions:
REMARK  status: ('A' for Active; 'I' for Inactive)
REMARK    1  A    between atoms: C_1  and  C_2
REMARK    2  A    between atoms: C_2  and  C_3
REMARK    3  A    between atoms: N_5  and  C_6
REMARK    4  A    between atoms: C_8  and  C_9
REMARK    5  A    between atoms: N_11  and  C_12
REMARK    6  A    between atoms: N_11  and  C_13
REMARK    7  A    between atoms: C_21  and  O_22
REMARK    8  A    between atoms: O_22  and  C_23
REMARK                            x       y       z     vdW  Elec       q    Type
REMARK                         _______ _______ _______ _____ _____    ______ ____
ROOT
ATOM      1  C   UNL     1       4.695   5.616  18.209  0.00  0.00    +0.000 A 
ATOM      2  C   UNL     1       3.948   6.796  17.992  0.00  0.00    +0.000 A 
ATOM      3  C   UNL     1       2.750   7.053  18.692  0.00  0.00    +0.000 A 
ATOM      4  C   UNL     1       2.275   6.073  19.559  0.00  0.00    +0.000 A 
ATOM      5  C   UNL     1       3.077   4.971  19.873  0.00  0.00    +0.000 A 
ATOM      6  C   UNL     1       4.305   4.746  19.236  0.00  0.00    +0.000 A 
ENDROOT
BRANCH   1   9
ATOM      7  C   UNL     1       5.674   4.565  16.221  0.00  0.00    +0.000 C 
ATOM      8  O   UNL     1       4.653   3.972  15.869  0.00  0.00    +0.000 OA
ATOM      9  N   UNL     1       5.782   5.395  17.324  0.00  0.00    +0.000 N 
ATOM     10  H   UNL     1       6.416   6.175  17.190  0.00  0.00    +0.000 HD
BRANCH   7  12
ATOM     11  C   UNL     1       6.804   4.548  13.957  0.00  0.00    +0.000 C 
ATOM     12  C   UNL     1       6.986   4.438  15.462  0.00  0.00    +0.000 C 
ENDBRANCH   7  12
ENDBRANCH   1   9
BRANCH   3  13
ATOM     13  C   UNL     1       2.030   8.339  18.393  0.00  0.00    +0.000 C 
ATOM     14  O   UNL     1       2.170   8.734  17.233  0.00  0.00    +0.000 OA
ATOM     15  N   UNL     1       1.343   9.071  19.405  0.00  0.00    +0.000 N 
ATOM     16  C   UNL     1       1.307   8.633  20.804  0.00  0.00    +0.000 C 
BRANCH  15  17
ATOM     17  C   UNL     1       0.637  10.307  19.087  0.00  0.00    +0.000 A 
ATOM     18  C   UNL     1       1.300  11.538  18.987  0.00  0.00    +0.000 A 
ATOM     19  C   UNL     1       0.613  12.733  18.725  0.00  0.00    +0.000 A 
ATOM     20  C   UNL     1      -0.765  12.728  18.548  0.00  0.00    +0.000 A 
ATOM     21  C   UNL     1      -1.448  11.521  18.614  0.00  0.00    +0.000 A 
ATOM     22  C   UNL     1      -0.756  10.331  18.878  0.00  0.00    +0.000 A 
ENDBRANCH  15  17
ENDBRANCH   3  13
BRANCH   6  23
ATOM     23  O   UNL     1       4.965   3.673  19.768  0.00  0.00    +0.000 OA
ATOM     24  C   UNL     1       4.314   2.415  19.862  0.00  0.00    +0.000 C 
ENDBRANCH   6  23
TORSDOF 5
ENDMDL
MODEL 4
REMARK VINA RESULT:      -7.2      1.914      3.666
REMARK  Name = 
REMARK  8 active torsions:
REMARK  status: ('A' for Active; 'I' for Inactive)
REMARK    1  A    between atoms: C_1  and  C_2
REMARK    2  A    between atoms: C_2  and  C_3
REMARK    3  A    between atoms: N_5  and  C_6
REMARK    4  A    between atoms: C_8  and  C_9
REMARK    5  A    between atoms: N_11  and  C_12
REMARK    6  A    between atoms: N_11  and  C_13
REMARK    7  A    between atoms: C_21  and  O_22
REMARK    8  A    between atoms: O_22  and  C_23
REMARK                            x       y       z     vdW  Elec       q    Type
REMARK                         _______ _______ _______ _____ _____    ______ ____
ROOT
ATOM      1  C   UNL     1       3.095   5.295  18.395  0.00  0.00    +0.000 A 
ATOM      2  C   UNL     1       2.364   6.485  18.609  0.00  0.00    +0.000 A 
ATOM      3  C   UNL     1       2.746   7.706  18.015  0.00  0.00    +0.000 A 
ATOM      4  C   UNL     1       3.916   7.729  17.261  0.00  0.00    +0.000 A 
ATOM      5  C   UNL     1       4.562   6.530  16.940  0.00  0.00    +0.000 A 
ATOM      6  C   UNL     1       4.145   5.301  17.467  0.00  0.00    +0.000 A 
ENDROOT
BRANCH   1   9
ATOM      7  C   UNL     1       1.704   3.313  18.789  0.00  0.00    +0.000 C 
ATOM      8  O   UNL     1       1.072   3.384  17.735  0.00  0.00    +0.000 OA
ATOM      9  N   UNL     1       2.712   4.178  19.182  0.00  0.00    +0.000 N 
ATOM     10  H   UNL     1       3.450   3.732  19.717  0.00  0.00    +0.000 HD
BRANCH   7  12
ATOM     11  C   UNL     1       1.336   2.787  21.236  0.00  0.00    +0.000 C 
ATOM     12  C   UNL     1       1.433   2.232  19.824  0.00  0.00    +0.000 C 
ENDBRANCH   7  12
ENDBRANCH   1   9
BRANCH   3  13
ATOM     13  C   UNL     1       1.902   8.916  18.302  0.00  0.00    +0.000 C 
ATOM     14  O   UNL     1       1.839   9.717  17.365  0.00  0.00    +0.000 OA
ATOM     15  N   UNL     1       1.324   9.146  19.584  0.00  0.00    +0.000 N 
ATOM     16  C   UNL     1       1.528   8.232  20.713  0.00  0.00    +0.000 C 
BRANCH  15  17
ATOM     17  C   UNL     1       0.493  10.319  19.833  0.00  0.00    +0.000 A 
ATOM     18  C   UNL     1       0.956  11.414  20.578  0.00  0.00    +0.000 A 
ATOM     19  C   UNL     1       0.141  12.522  20.853  0.00  0.00    +0.000 A 
ATOM     20  C   UNL     1      -1.166  12.569  20.383  0.00  0.00    +0.000 A 
ATOM     21  C   UNL     1      -1.645  11.513  19.621  0.00  0.00    +0.000 A 
ATOM     22  C   UNL     1      -0.827  10.408  19.350  0.00  0.00    +0.000 A 
ENDBRANCH  15  17
ENDBRANCH   3  13
BRANCH   6  23
ATOM     23  O   UNL     1       4.851   4.255  16.942  0.00  0.00    +0.000 OA
ATOM     24  C   UNL     1       6.248   4.382  16.721  0.00  0.00    +0.000 C 
ENDBRANCH   6  23
TORSDOF 5
ENDMDL
MODEL 5
REMARK VINA RESULT:      -7.2      4.657      6.598
REMARK  Name = 
REMARK  8 active torsions:
REMARK  status: ('A' for Active; 'I' for Inactive)
REMARK    1  A    between atoms: C_1  and  C_2
REMARK    2  A    between atoms: C_2  and  C_3
REMARK    3  A    between atoms: N_5  and  C_6
REMARK    4  A    between atoms: C_8  and  C_9
REMARK    5  A    between atoms: N_11  and  C_12
REMARK    6  A    between atoms: N_11  and  C_13
REMARK    7  A    between atoms: C_21  and  O_22
REMARK    8  A    between atoms: O_22  and  C_23
REMARK                            x       y       z     vdW  Elec       q    Type
REMARK                         _______ _______ _______ _____ _____    ______ ____
ROOT
ATOM      1  C   UNL     1       6.394   3.951  14.109  0.00  0.00    +0.000 A 
ATOM      2  C   UNL     1       5.401   3.667  15.074  0.00  0.00    +0.000 A 
ATOM      3  C   UNL     1       5.341   4.358  16.301  0.00  0.00    +0.000 A 
ATOM      4  C   UNL     1       6.339   5.290  16.577  0.00  0.00    +0.000 A 
ATOM      5  C   UNL     1       7.238   5.666  15.573  0.00  0.00    +0.000 A 
ATOM      6  C   UNL     1       7.256   5.035  14.323  0.00  0.00    +0.000 A 
ENDROOT
BRANCH   1   9
ATOM      7  C   UNL     1       5.412   2.973  12.085  0.00  0.00    +0.000 C 
ATOM      8  O   UNL     1       4.373   3.633  12.110  0.00  0.00    +0.000 OA
ATOM      9  N   UNL     1       6.451   3.073  12.996  0.00  0.00    +0.000 N 
ATOM     10  H   UNL     1       7.369   2.924  12.590  0.00  0.00    +0.000 HD
BRANCH   7  12
ATOM     11  C   UNL     1       6.993   1.189  11.235  0.00  0.00    +0.000 C 
ATOM     12  C   UNL     1       5.679   1.923  11.018  0.00  0.00    +0.000 C 
ENDBRANCH   7  12
ENDBRANCH   1   9
BRANCH   3  13
ATOM     13  C   UNL     1       4.245   3.985  17.260  0.00  0.00    +0.000 C 
ATOM     14  O   UNL     1       3.245   3.509  16.717  0.00  0.00    +0.000 OA
ATOM     15  N   UNL     1       4.336   4.264  18.655  0.00  0.00    +0.000 N 
ATOM     16  C   UNL     1       5.492   4.948  19.246  0.00  0.00    +0.000 C 
BRANCH  15  17
ATOM     17  C   UNL     1       3.267   3.875  19.569  0.00  0.00    +0.000 A 
ATOM     18  C   UNL     1       3.430   2.850  20.511  0.00  0.00    +0.000 A 
ATOM     19  C   UNL     1       2.386   2.449  21.359  0.00  0.00    +0.000 A 
ATOM     20  C   UNL     1       1.145   3.070  21.290  0.00  0.00    +0.000 A 
ATOM     21  C   UNL     1       0.960   4.106  20.386  0.00  0.00    +0.000 A 
ATOM     22  C   UNL     1       2.006   4.502  19.541  0.00  0.00    +0.000 A 
ENDBRANCH  15  17
ENDBRANCH   3  13
BRANCH   6  23
ATOM     23  O   UNL     1       8.141   5.628  13.466  0.00  0.00    +0.000 OA
ATOM     24  C   UNL     1       7.787   5.822  12.104  0.00  0.00    +0.000 C 
ENDBRANCH   6  23
TORSDOF 5
ENDMDL
MODEL 6
REMARK VINA RESULT:      -7.1      1.022      1.179
REMARK  Name = 
REMARK  8 active torsions:
REMARK  status: ('A' for Active; 'I' for Inactive)
REMARK    1  A    between atoms: C_1  and  C_2
REMARK    2  A    between atoms: C_2  and  C_3
REMARK    3  A    between atoms: N_5  and  C_6
REMARK    4  A    between atoms: C_8  and  C_9
REMARK    5  A    between atoms: N_11  and  C_12
REMARK    6  A    between atoms: N_11  and  C_13
REMARK    7  A    between atoms: C_21  and  O_22
REMARK    8  A    between atoms: O_22  and  C_23
REMARK                            x       y       z     vdW  Elec       q    Type
REMARK                         _______ _______ _______ _____ _____    ______ ____
ROOT
ATOM      1  C   UNL     1       4.108   5.404  18.705  0.00  0.00    +0.000 A 
ATOM      2  C   UNL     1       3.553   6.669  18.408  0.00  0.00    +0.000 A 
ATOM      3  C   UNL     1       2.330   7.092  18.968  0.00  0.00    +0.000 A 
ATOM      4  C   UNL     1       1.635   6.194  19.775  0.00  0.00    +0.000 A 
ATOM      5  C   UNL     1       2.244   5.000  20.175  0.00  0.00    +0.000 A 
ATOM      6  C   UNL     1       3.494   4.606  19.680  0.00  0.00    +0.000 A 
ENDROOT
BRANCH   1   9
ATOM      7  C   UNL     1       6.520   5.011  18.495  0.00  0.00    +0.000 C 
ATOM      8  O   UNL     1       6.798   5.269  19.667  0.00  0.00    +0.000 OA
ATOM      9  N   UNL     1       5.248   5.029  17.947  0.00  0.00    +0.000 N 
ATOM     10  H   UNL     1       5.099   4.327  17.231  0.00  0.00    +0.000 HD
BRANCH   7  12
ATOM     11  C   UNL     1       7.052   4.637  16.050  0.00  0.00    +0.000 C 
ATOM     12  C   UNL     1       7.584   4.638  17.475  0.00  0.00    +0.000 C 
ENDBRANCH   7  12
ENDBRANCH   1   9
BRANCH   3  13
ATOM     13  C   UNL     1       1.825   8.457  18.593  0.00  0.00    +0.000 C 
ATOM     14  O   UNL     1       2.080   8.784  17.430  0.00  0.00    +0.000 OA
ATOM     15  N   UNL     1       1.206   9.320  19.544  0.00  0.00    +0.000 N 
ATOM     16  C   UNL     1       1.036   8.944  20.951  0.00  0.00    +0.000 C 
BRANCH  15  17
ATOM     17  C   UNL     1       0.708  10.634  19.151  0.00  0.00    +0.000 A 
ATOM     18  C   UNL     1      -0.622  10.838  18.756  0.00  0.00    +0.000 A 
ATOM     19  C   UNL     1      -1.087  12.093  18.336  0.00  0.00    +0.000 A 
ATOM     20  C   UNL     1      -0.232  13.187  18.307  0.00  0.00    +0.000 A 
ATOM     21  C   UNL     1       1.084  13.024  18.717  0.00  0.00    +0.000 A 
ATOM     22  C   UNL     1       1.544  11.767  19.133  0.00  0.00    +0.000 A 
ENDBRANCH  15  17
ENDBRANCH   3  13
BRANCH   6  23
ATOM     23  O   UNL     1       3.942   3.463  20.281  0.00  0.00    +0.000 OA
ATOM     24  C   UNL     1       3.904   2.231  19.577  0.00  0.00    +0.000 C 
ENDBRANCH   6  23
TORSDOF 5
ENDMDL
MODEL 7
REMARK VINA RESULT:      -7.1      4.788      6.481
REMARK  Name = 
REMARK  8 active torsions:
REMARK  status: ('A' for Active; 'I' for Inactive)
REMARK    1  A    between atoms: C_1  and  C_2
REMARK    2  A    between atoms: C_2  and  C_3
REMARK    3  A    between atoms: N_5  and  C_6
REMARK    4  A    between atoms: C_8  and  C_9
REMARK    5  A    between atoms: N_11  and  C_12
REMARK    6  A    between atoms: N_11  and  C_13
REMARK    7  A    between atoms: C_21  and  O_22
REMARK    8  A    between atoms: O_22  and  C_23
REMARK                            x       y       z     vdW  Elec       q    Type
REMARK                         _______ _______ _______ _____ _____    ______ ____
ROOT
ATOM      1  C   UNL     1       6.691   6.103  16.063  0.00  0.00    +0.000 A 
ATOM      2  C   UNL     1       5.708   5.532  16.904  0.00  0.00    +0.000 A 
ATOM      3  C   UNL     1       5.078   4.311  16.584  0.00  0.00    +0.000 A 
ATOM      4  C   UNL     1       5.396   3.709  15.370  0.00  0.00    +0.000 A 
ATOM      5  C   UNL     1       6.459   4.200  14.605  0.00  0.00    +0.000 A 
ATOM      6  C   UNL     1       7.142   5.373  14.955  0.00  0.00    +0.000 A 
ENDROOT
BRANCH   1   9
ATOM      7  C   UNL     1       7.746   7.685  17.612  0.00  0.00    +0.000 C 
ATOM      8  O   UNL     1       8.024   6.856  18.478  0.00  0.00    +0.000 OA
ATOM      9  N   UNL     1       7.121   7.410  16.406  0.00  0.00    +0.000 N 
ATOM     10  H   UNL     1       7.436   7.994  15.638  0.00  0.00    +0.000 HD
BRANCH   7  12
ATOM     11  C   UNL     1       8.985   9.439  18.949  0.00  0.00    +0.000 C 
ATOM     12  C   UNL     1       8.057   9.165  17.777  0.00  0.00    +0.000 C 
ENDBRANCH   7  12
ENDBRANCH   1   9
BRANCH   3  13
ATOM     13  C   UNL     1       4.049   3.785  17.545  0.00  0.00    +0.000 C 
ATOM     14  O   UNL     1       3.196   3.064  17.021  0.00  0.00    +0.000 OA
ATOM     15  N   UNL     1       4.020   4.185  18.913  0.00  0.00    +0.000 N 
ATOM     16  C   UNL     1       4.976   5.147  19.471  0.00  0.00    +0.000 C 
BRANCH  15  17
ATOM     17  C   UNL     1       3.021   3.646  19.830  0.00  0.00    +0.000 A 
ATOM     18  C   UNL     1       1.676   4.037  19.777  0.00  0.00    +0.000 A 
ATOM     19  C   UNL     1       0.726   3.552  20.689  0.00  0.00    +0.000 A 
ATOM     20  C   UNL     1       1.097   2.652  21.680  0.00  0.00    +0.000 A 
ATOM     21  C   UNL     1       2.416   2.225  21.743  0.00  0.00    +0.000 A 
ATOM     22  C   UNL     1       3.361   2.715  20.831  0.00  0.00    +0.000 A 
ENDBRANCH  15  17
ENDBRANCH   3  13
BRANCH   6  23
ATOM     23  O   UNL     1       8.205   5.610  14.129  0.00  0.00    +0.000 OA
ATOM     24  C   UNL     1       8.044   5.512  12.721  0.00  0.00    +0.000 C 
ENDBRANCH   6  23
TORSDOF 5
ENDMDL
MODEL 8
REMARK VINA RESULT:      -7.1      4.703      6.514
REMARK  Name = 
REMARK  8 active torsions:
REMARK  status: ('A' for Active; 'I' for Inactive)
REMARK    1  A    between atoms: C_1  and  C_2
REMARK    2  A    between atoms: C_2  and  C_3
REMARK    3  A    between atoms: N_5  and  C_6
REMARK    4  A    between atoms: C_8  and  C_9
REMARK    5  A    between atoms: N_11  and  C_12
REMARK    6  A    between atoms: N_11  and  C_13
REMARK    7  A    between atoms: C_21  and  O_22
REMARK    8  A    between atoms: O_22  and  C_23
REMARK                            x       y       z     vdW  Elec       q    Type
REMARK                         _______ _______ _______ _____ _____    ______ ____
ROOT
ATOM      1  C   UNL     1       6.722   6.075  16.128  0.00  0.00    +0.000 A 
ATOM      2  C   UNL     1       5.776   5.478  16.992  0.00  0.00    +0.000 A 
ATOM      3  C   UNL     1       5.162   4.247  16.680  0.00  0.00    +0.000 A 
ATOM      4  C   UNL     1       5.456   3.661  15.452  0.00  0.00    +0.000 A 
ATOM      5  C   UNL     1       6.487   4.180  14.661  0.00  0.00    +0.000 A 
ATOM      6  C   UNL     1       7.155   5.364  15.001  0.00  0.00    +0.000 A 
ENDROOT
BRANCH   1   9
ATOM      7  C   UNL     1       7.773   7.670  17.666  0.00  0.00    +0.000 C 
ATOM      8  O   UNL     1       8.078   6.842  18.526  0.00  0.00    +0.000 OA
ATOM      9  N   UNL     1       7.136   7.388  16.469  0.00  0.00    +0.000 N 
ATOM     10  H   UNL     1       7.429   7.980  15.699  0.00  0.00    +0.000 HD
BRANCH   7  12
ATOM     11  C   UNL     1       8.991   9.441  19.002  0.00  0.00    +0.000 C 
ATOM     12  C   UNL     1       8.063   9.154  17.833  0.00  0.00    +0.000 C 
ENDBRANCH   7  12
ENDBRANCH   1   9
BRANCH   3  13
ATOM     13  C   UNL     1       4.171   3.693  17.666  0.00  0.00    +0.000 C 
ATOM     14  O   UNL     1       3.517   2.739  17.237  0.00  0.00    +0.000 OA
ATOM     15  N   UNL     1       3.952   4.299  18.937  0.00  0.00    +0.000 N 
ATOM     16  C   UNL     1       4.660   5.512  19.362  0.00  0.00    +0.000 C 
BRANCH  15  17
ATOM     17  C   UNL     1       2.998   3.732  19.884  0.00  0.00    +0.000 A 
ATOM     18  C   UNL     1       3.391   2.840  20.891  0.00  0.00    +0.000 A 
ATOM     19  C   UNL     1       2.465   2.261  21.773  0.00  0.00    +0.000 A 
ATOM     20  C   UNL     1       1.113   2.566  21.674  0.00  0.00    +0.000 A 
ATOM     21  C   UNL     1       0.695   3.467  20.704  0.00  0.00    +0.000 A 
ATOM     22  C   UNL     1       1.625   4.040  19.826  0.00  0.00    +0.000 A 
ENDBRANCH  15  17
ENDBRANCH   3  13
BRANCH   6  23
ATOM     23  O   UNL     1       8.188   5.628  14.146  0.00  0.00    +0.000 OA
ATOM     24  C   UNL     1       8.035   5.395  12.754  0.00  0.00    +0.000 C 
ENDBRANCH   6  23
TORSDOF 5
ENDMDL
MODEL 9
REMARK VINA RESULT:      -7.1      1.564      1.917
REMARK  Name = 
REMARK  8 active torsions:
REMARK  status: ('A' for Active; 'I' for Inactive)
REMARK    1  A    between atoms: C_1  and  C_2
REMARK    2  A    between atoms: C_2  and  C_3
REMARK    3  A    between atoms: N_5  and  C_6
REMARK    4  A    between atoms: C_8  and  C_9
REMARK    5  A    between atoms: N_11  and  C_12
REMARK    6  A    between atoms: N_11  and  C_13
REMARK    7  A    between atoms: C_21  and  O_22
REMARK    8  A    between atoms: O_22  and  C_23
REMARK                            x       y       z     vdW  Elec       q    Type
REMARK                         _______ _______ _______ _____ _____    ______ ____
ROOT
ATOM      1  C   UNL     1       3.997   5.102  19.131  0.00  0.00    +0.000 A 
ATOM      2  C   UNL     1       3.433   6.386  19.310  0.00  0.00    +0.000 A 
ATOM      3  C   UNL     1       2.234   6.574  20.028  0.00  0.00    +0.000 A 
ATOM      4  C   UNL     1       1.570   5.446  20.500  0.00  0.00    +0.000 A 
ATOM      5  C   UNL     1       2.192   4.194  20.441  0.00  0.00    +0.000 A 
ATOM      6  C   UNL     1       3.420   4.010  19.794  0.00  0.00    +0.000 A 
ENDROOT
BRANCH   1   9
ATOM      7  C   UNL     1       6.412   5.108  18.702  0.00  0.00    +0.000 C 
ATOM      8  O   UNL     1       6.755   5.215  19.880  0.00  0.00    +0.000 OA
ATOM      9  N   UNL     1       5.106   5.025  18.249  0.00  0.00    +0.000 N 
ATOM     10  H   UNL     1       4.990   4.431  17.435  0.00  0.00    +0.000 HD
BRANCH   7  12
ATOM     11  C   UNL     1       6.773   5.224  16.200  0.00  0.00    +0.000 C 
ATOM     12  C   UNL     1       7.422   5.063  17.566  0.00  0.00    +0.000 C 
ENDBRANCH   7  12
ENDBRANCH   1   9
BRANCH   3  13
ATOM     13  C   UNL     1       1.717   7.979  20.165  0.00  0.00    +0.000 C 
ATOM     14  O   UNL     1       1.404   8.287  21.318  0.00  0.00    +0.000 OA
ATOM     15  N   UNL     1       1.517   8.823  19.034  0.00  0.00    +0.000 N 
ATOM     16  C   UNL     1       1.781   8.375  17.663  0.00  0.00    +0.000 C 
BRANCH  15  17
ATOM     17  C   UNL     1       1.030  10.190  19.195  0.00  0.00    +0.000 A 
ATOM     18  C   UNL     1      -0.234  10.471  19.732  0.00  0.00    +0.000 A 
ATOM     19  C   UNL     1      -0.717  11.783  19.845  0.00  0.00    +0.000 A 
ATOM     20  C   UNL     1       0.059  12.857  19.427  0.00  0.00    +0.000 A 
ATOM     21  C   UNL     1       1.326  12.614  18.916  0.00  0.00    +0.000 A 
ATOM     22  C   UNL     1       1.802  11.301  18.804  0.00  0.00    +0.000 A 
ENDBRANCH  15  17
ENDBRANCH   3  13
BRANCH   6  23
ATOM     23  O   UNL     1       3.890   2.735  19.946  0.00  0.00    +0.000 OA
ATOM     24  C   UNL     1       3.683   1.776  18.919  0.00  0.00    +0.000 C 
ENDBRANCH   6  23
TORSDOF 5
ENDMDL
