MODEL 1
REMARK VINA RESULT:      -9.0      0.000      0.000
REMARK  Name = 
REMARK  7 active torsions:
REMARK  status: ('A' for Active; 'I' for Inactive)
REMARK    1  A    between atoms: C_1  and  N_2
REMARK    2  A    between atoms: C_5  and  O_6
REMARK    3  A    between atoms: O_6  and  C_7
REMARK    4  A    between atoms: C_10  and  N_11
REMARK    5  A    between atoms: C_12  and  C_14
REMARK    6  A    between atoms: C_21  and  C_22
REMARK    7  A    between atoms: N_25  and  C_26
REMARK                            x       y       z     vdW  Elec       q    Type
REMARK                         _______ _______ _______ _____ _____    ______ ____
ROOT
ATOM      1  N   UNL     1       7.878   8.605  17.401  0.00  0.00    +0.000 N 
ATOM      2  C   UNL     1       7.825   7.296  17.869  0.00  0.00    +0.000 C 
ATOM      3  O   UNL     1       8.264   6.907  18.945  0.00  0.00    +0.000 OA
ATOM      4  H   UNL     1       7.495   8.732  16.469  0.00  0.00    +0.000 HD
ENDROOT
BRANCH   2   5
ATOM      5  C   UNL     1       7.174   6.346  16.947  0.00  0.00    +0.000 A 
ATOM      6  N   UNL     1       7.637   6.113  15.701  0.00  0.00    +0.000 NA
ATOM      7  N   UNL     1       6.752   5.233  15.190  0.00  0.00    +0.000 N 
ATOM      8  C   UNL     1       5.737   4.886  16.041  0.00  0.00    +0.000 A 
ATOM      9  C   UNL     1       4.634   4.037  15.885  0.00  0.00    +0.000 A 
ATOM     10  C   UNL     1       3.769   3.906  16.976  0.00  0.00    +0.000 A 
ATOM     11  F   UNL     1       2.701   3.107  16.819  0.00  0.00    +0.000 F 
ATOM     12  C   UNL     1       3.974   4.589  18.181  0.00  0.00    +0.000 A 
ATOM     13  C   UNL     1       5.098   5.432  18.300  0.00  0.00    +0.000 A 
ATOM     14  C   UNL     1       5.988   5.587  17.212  0.00  0.00    +0.000 A 
ATOM     15  H   UNL     1       6.888   4.907  14.239  0.00  0.00    +0.000 HD
BRANCH  12  16
ATOM     16  C   UNL     1       3.044   4.435  19.292  0.00  0.00    +0.000 A 
ATOM     17  C   UNL     1       2.160   5.356  19.902  0.00  0.00    +0.000 A 
ATOM     18  N   UNL     1       1.473   4.823  20.916  0.00  0.00    +0.000 NA
ATOM     19  N   UNL     1       1.923   3.558  20.969  0.00  0.00    +0.000 N 
ATOM     20  C   UNL     1       1.422   2.648  21.970  0.00  0.00    +0.000 C 
ATOM     21  C   UNL     1       2.863   3.279  20.020  0.00  0.00    +0.000 A 
ENDBRANCH  12  16
ENDBRANCH   2   5
BRANCH   1  25
ATOM     22  C   UNL     1       9.470  11.978  19.291  0.00  0.00    +0.000 A 
ATOM     23  C   UNL     1       9.613  10.757  19.921  0.00  0.00    +0.000 A 
ATOM     24  C   UNL     1       9.094   9.621  19.302  0.00  0.00    +0.000 A 
ATOM     25  C   UNL     1       8.410   9.723  18.091  0.00  0.00    +0.000 A 
ATOM     26  C   UNL     1       8.273  11.014  17.573  0.00  0.00    +0.000 A 
ATOM     27  N   UNL     1       8.794  12.144  18.135  0.00  0.00    +0.000 NA
BRANCH  22  28
ATOM     28  O   UNL     1      10.071  13.048  19.925  0.00  0.00    +0.000 OA
BRANCH  28  33
ATOM     29  C   UNL     1      10.682  18.505  18.655  0.00  0.00    +0.000 C 
ATOM     30  N   UNL     1      10.647  17.162  19.239  0.00  0.00    +0.000 NA
ATOM     31  C   UNL     1       9.266  16.671  19.335  0.00  0.00    +0.000 C 
ATOM     32  C   UNL     1       9.217  15.276  19.956  0.00  0.00    +0.000 C 
ATOM     33  C   UNL     1      10.087  14.275  19.182  0.00  0.00    +0.000 C 
ATOM     34  C   UNL     1      11.503  14.850  19.065  0.00  0.00    +0.000 C 
ATOM     35  C   UNL     1      11.485  16.246  18.454  0.00  0.00    +0.000 C 
ENDBRANCH  28  33
ENDBRANCH  22  28
ENDBRANCH   1  25
TORSDOF 5
ENDMDL
MODEL 2
REMARK VINA RESULT:      -8.6      1.497      1.967
REMARK  Name = 
REMARK  7 active torsions:
REMARK  status: ('A' for Active; 'I' for Inactive)
REMARK    1  A    between atoms: C_1  and  N_2
REMARK    2  A    between atoms: C_5  and  O_6
REMARK    3  A    between atoms: O_6  and  C_7
REMARK    4  A    between atoms: C_10  and  N_11
REMARK    5  A    between atoms: C_12  and  C_14
REMARK    6  A    between atoms: C_21  and  C_22
REMARK    7  A    between atoms: N_25  and  C_26
REMARK                            x       y       z     vdW  Elec       q    Type
REMARK                         _______ _______ _______ _____ _____    ______ ____
ROOT
ATOM      1  N   UNL     1       7.916   8.670  17.422  0.00  0.00    +0.000 N 
ATOM      2  C   UNL     1       7.846   7.359  17.882  0.00  0.00    +0.000 C 
ATOM      3  O   UNL     1       8.270   6.961  18.962  0.00  0.00    +0.000 OA
ATOM      4  H   UNL     1       7.544   8.805  16.486  0.00  0.00    +0.000 HD
ENDROOT
BRANCH   2   5
ATOM      5  C   UNL     1       7.197   6.420  16.949  0.00  0.00    +0.000 A 
ATOM      6  N   UNL     1       7.659   6.206  15.699  0.00  0.00    +0.000 NA
ATOM      7  N   UNL     1       6.775   5.329  15.178  0.00  0.00    +0.000 N 
ATOM      8  C   UNL     1       5.764   4.966  16.026  0.00  0.00    +0.000 A 
ATOM      9  C   UNL     1       4.664   4.115  15.861  0.00  0.00    +0.000 A 
ATOM     10  C   UNL     1       3.803   3.965  16.952  0.00  0.00    +0.000 A 
ATOM     11  F   UNL     1       2.737   3.164  16.787  0.00  0.00    +0.000 F 
ATOM     12  C   UNL     1       4.007   4.632  18.166  0.00  0.00    +0.000 A 
ATOM     13  C   UNL     1       5.128   5.478  18.294  0.00  0.00    +0.000 A 
ATOM     14  C   UNL     1       6.015   5.651  17.207  0.00  0.00    +0.000 A 
ATOM     15  H   UNL     1       6.911   5.017  14.222  0.00  0.00    +0.000 HD
BRANCH  12  16
ATOM     16  C   UNL     1       3.081   4.459  19.277  0.00  0.00    +0.000 A 
ATOM     17  C   UNL     1       2.184   5.364  19.893  0.00  0.00    +0.000 A 
ATOM     18  N   UNL     1       1.505   4.815  20.904  0.00  0.00    +0.000 NA
ATOM     19  N   UNL     1       1.974   3.556  20.950  0.00  0.00    +0.000 N 
ATOM     20  C   UNL     1       1.487   2.634  21.947  0.00  0.00    +0.000 C 
ATOM     21  C   UNL     1       2.917   3.296  19.999  0.00  0.00    +0.000 A 
ENDBRANCH  12  16
ENDBRANCH   2   5
BRANCH   1  25
ATOM     22  C   UNL     1       9.504  12.025  19.347  0.00  0.00    +0.000 A 
ATOM     23  C   UNL     1       9.723  10.788  19.920  0.00  0.00    +0.000 A 
ATOM     24  C   UNL     1       9.207   9.658  19.288  0.00  0.00    +0.000 A 
ATOM     25  C   UNL     1       8.451   9.780  18.123  0.00  0.00    +0.000 A 
ATOM     26  C   UNL     1       8.240  11.083  17.664  0.00  0.00    +0.000 A 
ATOM     27  N   UNL     1       8.756  12.210  18.239  0.00  0.00    +0.000 NA
BRANCH  22  28
ATOM     28  O   UNL     1      10.105  13.092  19.986  0.00  0.00    +0.000 OA
BRANCH  28  33
ATOM     29  C   UNL     1       7.688  16.076  24.110  0.00  0.00    +0.000 C 
ATOM     30  N   UNL     1       8.520  15.243  23.240  0.00  0.00    +0.000 NA
ATOM     31  C   UNL     1       7.767  14.078  22.757  0.00  0.00    +0.000 C 
ATOM     32  C   UNL     1       8.630  13.194  21.859  0.00  0.00    +0.000 C 
ATOM     33  C   UNL     1       9.214  13.979  20.676  0.00  0.00    +0.000 C 
ATOM     34  C   UNL     1       9.948  15.209  21.223  0.00  0.00    +0.000 C 
ATOM     35  C   UNL     1       9.041  16.040  22.122  0.00  0.00    +0.000 C 
ENDBRANCH  28  33
ENDBRANCH  22  28
ENDBRANCH   1  25
TORSDOF 5
ENDMDL
MODEL 3
REMARK VINA RESULT:      -8.5      6.667      9.441
REMARK  Name = 
REMARK  7 active torsions:
REMARK  status: ('A' for Active; 'I' for Inactive)
REMARK    1  A    between atoms: C_1  and  N_2
REMARK    2  A    between atoms: C_5  and  O_6
REMARK    3  A    between atoms: O_6  and  C_7
REMARK    4  A    between atoms: C_10  and  N_11
REMARK    5  A    between atoms: C_12  and  C_14
REMARK    6  A    between atoms: C_21  and  C_22
REMARK    7  A    between atoms: N_25  and  C_26
REMARK                            x       y       z     vdW  Elec       q    Type
REMARK                         _______ _______ _______ _____ _____    ______ ____
ROOT
ATOM      1  N   UNL     1       0.355   7.344  21.042  0.00  0.00    +0.000 N 
ATOM      2  C   UNL     1       1.477   6.855  20.379  0.00  0.00    +0.000 C 
ATOM      3  O   UNL     1       2.424   7.530  19.992  0.00  0.00    +0.000 OA
ATOM      4  H   UNL     1      -0.346   6.640  21.254  0.00  0.00    +0.000 HD
ENDROOT
BRANCH   2   5
ATOM      5  C   UNL     1       1.463   5.397  20.155  0.00  0.00    +0.000 A 
ATOM      6  N   UNL     1       0.569   4.581  20.751  0.00  0.00    +0.000 NA
ATOM      7  N   UNL     1       0.921   3.352  20.320  0.00  0.00    +0.000 N 
ATOM      8  C   UNL     1       1.998   3.331  19.476  0.00  0.00    +0.000 A 
ATOM      9  C   UNL     1       2.671   2.278  18.842  0.00  0.00    +0.000 A 
ATOM     10  C   UNL     1       3.760   2.612  18.031  0.00  0.00    +0.000 A 
ATOM     11  F   UNL     1       4.416   1.600  17.439  0.00  0.00    +0.000 F 
ATOM     12  C   UNL     1       4.183   3.934  17.850  0.00  0.00    +0.000 A 
ATOM     13  C   UNL     1       3.478   4.966  18.502  0.00  0.00    +0.000 A 
ATOM     14  C   UNL     1       2.374   4.659  19.331  0.00  0.00    +0.000 A 
ATOM     15  H   UNL     1       0.387   2.553  20.647  0.00  0.00    +0.000 HD
BRANCH  12  16
ATOM     16  C   UNL     1       5.330   4.241  17.005  0.00  0.00    +0.000 A 
ATOM     17  C   UNL     1       6.662   4.588  17.332  0.00  0.00    +0.000 A 
ATOM     18  N   UNL     1       7.421   4.806  16.255  0.00  0.00    +0.000 NA
ATOM     19  N   UNL     1       6.574   4.611  15.230  0.00  0.00    +0.000 N 
ATOM     20  C   UNL     1       7.027   4.777  13.870  0.00  0.00    +0.000 C 
ATOM     21  C   UNL     1       5.313   4.273  15.627  0.00  0.00    +0.000 A 
ENDBRANCH  12  16
ENDBRANCH   2   5
BRANCH   1  25
ATOM     22  C   UNL     1      -0.388  11.261  22.301  0.00  0.00    +0.000 A 
ATOM     23  C   UNL     1      -0.430  11.000  20.945  0.00  0.00    +0.000 A 
ATOM     24  C   UNL     1      -0.191   9.698  20.508  0.00  0.00    +0.000 A 
ATOM     25  C   UNL     1       0.123   8.691  21.419  0.00  0.00    +0.000 A 
ATOM     26  C   UNL     1       0.197   9.079  22.760  0.00  0.00    +0.000 A 
ATOM     27  N   UNL     1      -0.060  10.337  23.227  0.00  0.00    +0.000 NA
BRANCH  22  28
ATOM     28  O   UNL     1      -0.705  12.555  22.667  0.00  0.00    +0.000 OA
BRANCH  28  33
ATOM     29  C   UNL     1      -5.836  14.834  23.160  0.00  0.00    +0.000 C 
ATOM     30  N   UNL     1      -4.454  14.368  23.290  0.00  0.00    +0.000 NA
ATOM     31  C   UNL     1      -4.395  12.900  23.289  0.00  0.00    +0.000 C 
ATOM     32  C   UNL     1      -2.959  12.404  23.439  0.00  0.00    +0.000 C 
ATOM     33  C   UNL     1      -2.040  12.976  22.350  0.00  0.00    +0.000 C 
ATOM     34  C   UNL     1      -2.170  14.503  22.356  0.00  0.00    +0.000 C 
ATOM     35  C   UNL     1      -3.625  14.935  22.219  0.00  0.00    +0.000 C 
ENDBRANCH  28  33
ENDBRANCH  22  28
ENDBRANCH   1  25
TORSDOF 5
ENDMDL
MODEL 4
REMARK VINA RESULT:      -8.5      6.540      8.312
REMARK  Name = 
REMARK  7 active torsions:
REMARK  status: ('A' for Active; 'I' for Inactive)
REMARK    1  A    between atoms: C_1  and  N_2
REMARK    2  A    between atoms: C_5  and  O_6
REMARK    3  A    between atoms: O_6  and  C_7
REMARK    4  A    between atoms: C_10  and  N_11
REMARK    5  A    between atoms: C_12  and  C_14
REMARK    6  A    between atoms: C_21  and  C_22
REMARK    7  A    between atoms: N_25  and  C_26
REMARK                            x       y       z     vdW  Elec       q    Type
REMARK                         _______ _______ _______ _____ _____    ______ ____
ROOT
ATOM      1  N   UNL     1       1.115   9.717  19.534  0.00  0.00    +0.000 N 
ATOM      2  C   UNL     1       1.826   8.832  18.729  0.00  0.00    +0.000 C 
ATOM      3  O   UNL     1       2.190   9.053  17.579  0.00  0.00    +0.000 OA
ATOM      4  H   UNL     1       0.869   9.346  20.447  0.00  0.00    +0.000 HD
ENDROOT
BRANCH   2   5
ATOM      5  C   UNL     1       2.135   7.541  19.370  0.00  0.00    +0.000 A 
ATOM      6  N   UNL     1       1.588   7.165  20.545  0.00  0.00    +0.000 NA
ATOM      7  N   UNL     1       2.153   5.966  20.793  0.00  0.00    +0.000 N 
ATOM      8  C   UNL     1       3.041   5.546  19.839  0.00  0.00    +0.000 A 
ATOM      9  C   UNL     1       3.834   4.396  19.739  0.00  0.00    +0.000 A 
ATOM     10  C   UNL     1       4.650   4.278  18.610  0.00  0.00    +0.000 A 
ATOM     11  F   UNL     1       5.424   3.184  18.525  0.00  0.00    +0.000 F 
ATOM     12  C   UNL     1       4.694   5.258  17.611  0.00  0.00    +0.000 A 
ATOM     13  C   UNL     1       3.879   6.400  17.746  0.00  0.00    +0.000 A 
ATOM     14  C   UNL     1       3.045   6.549  18.878  0.00  0.00    +0.000 A 
ATOM     15  H   UNL     1       1.899   5.478  21.645  0.00  0.00    +0.000 HD
BRANCH  12  16
ATOM     16  C   UNL     1       5.566   5.104  16.454  0.00  0.00    +0.000 A 
ATOM     17  C   UNL     1       6.842   5.645  16.170  0.00  0.00    +0.000 A 
ATOM     18  N   UNL     1       7.314   5.268  14.978  0.00  0.00    +0.000 NA
ATOM     19  N   UNL     1       6.334   4.491  14.486  0.00  0.00    +0.000 N 
ATOM     20  C   UNL     1       6.463   3.897  13.177  0.00  0.00    +0.000 C 
ATOM     21  C   UNL     1       5.269   4.365  15.330  0.00  0.00    +0.000 A 
ENDBRANCH  12  16
ENDBRANCH   2   5
BRANCH   1  25
ATOM     22  C   UNL     1       0.035  13.658  18.647  0.00  0.00    +0.000 A 
ATOM     23  C   UNL     1      -0.837  12.651  18.281  0.00  0.00    +0.000 A 
ATOM     24  C   UNL     1      -0.496  11.332  18.575  0.00  0.00    +0.000 A 
ATOM     25  C   UNL     1       0.719  11.034  19.190  0.00  0.00    +0.000 A 
ATOM     26  C   UNL     1       1.551  12.124  19.462  0.00  0.00    +0.000 A 
ATOM     27  N   UNL     1       1.237  13.431  19.217  0.00  0.00    +0.000 NA
BRANCH  22  28
ATOM     28  O   UNL     1      -0.399  14.944  18.392  0.00  0.00    +0.000 OA
BRANCH  28  33
ATOM     29  C   UNL     1      -2.228  18.631  22.242  0.00  0.00    +0.000 C 
ATOM     30  N   UNL     1      -2.033  17.666  21.158  0.00  0.00    +0.000 NA
ATOM     31  C   UNL     1      -1.092  18.187  20.158  0.00  0.00    +0.000 C 
ATOM     32  C   UNL     1      -0.892  17.194  19.014  0.00  0.00    +0.000 C 
ATOM     33  C   UNL     1      -0.423  15.824  19.524  0.00  0.00    +0.000 C 
ATOM     34  C   UNL     1      -1.405  15.342  20.598  0.00  0.00    +0.000 C 
ATOM     35  C   UNL     1      -1.574  16.381  21.700  0.00  0.00    +0.000 C 
ENDBRANCH  28  33
ENDBRANCH  22  28
ENDBRANCH   1  25
TORSDOF 5
ENDMDL
MODEL 5
REMARK VINA RESULT:      -8.5      1.844      2.256
REMARK  Name = 
REMARK  7 active torsions:
REMARK  status: ('A' for Active; 'I' for Inactive)
REMARK    1  A    between atoms: C_1  and  N_2
REMARK    2  A    between atoms: C_5  and  O_6
REMARK    3  A    between atoms: O_6  and  C_7
REMARK    4  A    between atoms: C_10  and  N_11
REMARK    5  A    between atoms: C_12  and  C_14
REMARK    6  A    between atoms: C_21  and  C_22
REMARK    7  A    between atoms: N_25  and  C_26
REMARK                            x       y       z     vdW  Elec       q    Type
REMARK                         _______ _______ _______ _____ _____    ______ ____
ROOT
ATOM      1  N   UNL     1       7.902   8.641  17.377  0.00  0.00    +0.000 N 
ATOM      2  C   UNL     1       7.823   7.344  17.873  0.00  0.00    +0.000 C 
ATOM      3  O   UNL     1       8.230   6.976  18.970  0.00  0.00    +0.000 OA
ATOM      4  H   UNL     1       7.544   8.751  16.433  0.00  0.00    +0.000 HD
ENDROOT
BRANCH   2   5
ATOM      5  C   UNL     1       7.187   6.380  16.956  0.00  0.00    +0.000 A 
ATOM      6  N   UNL     1       7.653   6.147  15.711  0.00  0.00    +0.000 NA
ATOM      7  N   UNL     1       6.781   5.251  15.206  0.00  0.00    +0.000 N 
ATOM      8  C   UNL     1       5.773   4.892  16.059  0.00  0.00    +0.000 A 
ATOM      9  C   UNL     1       4.683   4.025  15.908  0.00  0.00    +0.000 A 
ATOM     10  C   UNL     1       3.821   3.886  17.000  0.00  0.00    +0.000 A 
ATOM     11  F   UNL     1       2.766   3.069  16.848  0.00  0.00    +0.000 F 
ATOM     12  C   UNL     1       4.016   4.578  18.202  0.00  0.00    +0.000 A 
ATOM     13  C   UNL     1       5.126   5.439  18.316  0.00  0.00    +0.000 A 
ATOM     14  C   UNL     1       6.013   5.602  17.227  0.00  0.00    +0.000 A 
ATOM     15  H   UNL     1       6.922   4.922  14.256  0.00  0.00    +0.000 HD
BRANCH  12  16
ATOM     16  C   UNL     1       3.089   4.415  19.314  0.00  0.00    +0.000 A 
ATOM     17  C   UNL     1       2.180   5.320  19.910  0.00  0.00    +0.000 A 
ATOM     18  N   UNL     1       1.506   4.784  20.931  0.00  0.00    +0.000 NA
ATOM     19  N   UNL     1       1.990   3.532  21.003  0.00  0.00    +0.000 N 
ATOM     20  C   UNL     1       1.513   2.623  22.017  0.00  0.00    +0.000 C 
ATOM     21  C   UNL     1       2.939   3.265  20.059  0.00  0.00    +0.000 A 
ENDBRANCH  12  16
ENDBRANCH   2   5
BRANCH   1  25
ATOM     22  C   UNL     1       9.414  11.897  19.521  0.00  0.00    +0.000 A 
ATOM     23  C   UNL     1       8.919  12.133  18.253  0.00  0.00    +0.000 A 
ATOM     24  C   UNL     1       8.405  11.059  17.527  0.00  0.00    +0.000 A 
ATOM     25  C   UNL     1       8.428   9.770  18.055  0.00  0.00    +0.000 A 
ATOM     26  C   UNL     1       9.006   9.637  19.321  0.00  0.00    +0.000 A 
ATOM     27  N   UNL     1       9.490  10.669  20.074  0.00  0.00    +0.000 NA
BRANCH  22  28
ATOM     28  O   UNL     1       9.839  13.016  20.211  0.00  0.00    +0.000 OA
BRANCH  28  33
ATOM     29  C   UNL     1       7.037  16.432  23.709  0.00  0.00    +0.000 C 
ATOM     30  N   UNL     1       7.845  15.792  22.669  0.00  0.00    +0.000 NA
ATOM     31  C   UNL     1       8.940  15.015  23.263  0.00  0.00    +0.000 C 
ATOM     32  C   UNL     1       9.799  14.355  22.186  0.00  0.00    +0.000 C 
ATOM     33  C   UNL     1       8.961  13.470  21.251  0.00  0.00    +0.000 C 
ATOM     34  C   UNL     1       7.806  14.308  20.694  0.00  0.00    +0.000 C 
ATOM     35  C   UNL     1       6.997  14.952  21.814  0.00  0.00    +0.000 C 
ENDBRANCH  28  33
ENDBRANCH  22  28
ENDBRANCH   1  25
TORSDOF 5
ENDMDL
MODEL 6
REMARK VINA RESULT:      -8.5      1.760      2.406
REMARK  Name = 
REMARK  7 active torsions:
REMARK  status: ('A' for Active; 'I' for Inactive)
REMARK    1  A    between atoms: C_1  and  N_2
REMARK    2  A    between atoms: C_5  and  O_6
REMARK    3  A    between atoms: O_6  and  C_7
REMARK    4  A    between atoms: C_10  and  N_11
REMARK    5  A    between atoms: C_12  and  C_14
REMARK    6  A    between atoms: C_21  and  C_22
REMARK    7  A    between atoms: N_25  and  C_26
REMARK                            x       y       z     vdW  Elec       q    Type
REMARK                         _______ _______ _______ _____ _____    ______ ____
ROOT
ATOM      1  N   UNL     1       7.888   8.636  17.387  0.00  0.00    +0.000 N 
ATOM      2  C   UNL     1       7.805   7.335  17.873  0.00  0.00    +0.000 C 
ATOM      3  O   UNL     1       8.208   6.959  18.968  0.00  0.00    +0.000 OA
ATOM      4  H   UNL     1       7.534   8.753  16.441  0.00  0.00    +0.000 HD
ENDROOT
BRANCH   2   5
ATOM      5  C   UNL     1       7.171   6.379  16.947  0.00  0.00    +0.000 A 
ATOM      6  N   UNL     1       7.643   6.153  15.702  0.00  0.00    +0.000 NA
ATOM      7  N   UNL     1       6.772   5.263  15.186  0.00  0.00    +0.000 N 
ATOM      8  C   UNL     1       5.758   4.901  16.032  0.00  0.00    +0.000 A 
ATOM      9  C   UNL     1       4.666   4.039  15.870  0.00  0.00    +0.000 A 
ATOM     10  C   UNL     1       3.798   3.896  16.957  0.00  0.00    +0.000 A 
ATOM     11  F   UNL     1       2.741   3.083  16.794  0.00  0.00    +0.000 F 
ATOM     12  C   UNL     1       3.988   4.579  18.164  0.00  0.00    +0.000 A 
ATOM     13  C   UNL     1       5.100   5.436  18.289  0.00  0.00    +0.000 A 
ATOM     14  C   UNL     1       5.994   5.604  17.206  0.00  0.00    +0.000 A 
ATOM     15  H   UNL     1       6.917   4.940  14.235  0.00  0.00    +0.000 HD
BRANCH  12  16
ATOM     16  C   UNL     1       3.055   4.412  19.270  0.00  0.00    +0.000 A 
ATOM     17  C   UNL     1       2.160   5.322  19.880  0.00  0.00    +0.000 A 
ATOM     18  N   UNL     1       1.473   4.778  20.889  0.00  0.00    +0.000 NA
ATOM     19  N   UNL     1       1.935   3.517  20.939  0.00  0.00    +0.000 N 
ATOM     20  C   UNL     1       1.439   2.598  21.934  0.00  0.00    +0.000 C 
ATOM     21  C   UNL     1       2.883   3.251  19.993  0.00  0.00    +0.000 A 
ENDBRANCH  12  16
ENDBRANCH   2   5
BRANCH   1  25
ATOM     22  C   UNL     1       9.444  12.029  19.273  0.00  0.00    +0.000 A 
ATOM     23  C   UNL     1       9.689  10.799  19.851  0.00  0.00    +0.000 A 
ATOM     24  C   UNL     1       9.183   9.656  19.232  0.00  0.00    +0.000 A 
ATOM     25  C   UNL     1       8.413   9.759  18.075  0.00  0.00    +0.000 A 
ATOM     26  C   UNL     1       8.177  11.056  17.610  0.00  0.00    +0.000 A 
ATOM     27  N   UNL     1       8.682  12.194  18.172  0.00  0.00    +0.000 NA
BRANCH  22  28
ATOM     28  O   UNL     1      10.035  13.108  19.898  0.00  0.00    +0.000 OA
BRANCH  28  33
ATOM     29  C   UNL     1       5.948  14.074  23.656  0.00  0.00    +0.000 C 
ATOM     30  N   UNL     1       6.824  13.625  22.572  0.00  0.00    +0.000 NA
ATOM     31  C   UNL     1       7.150  14.738  21.670  0.00  0.00    +0.000 C 
ATOM     32  C   UNL     1       8.052  14.278  20.526  0.00  0.00    +0.000 C 
ATOM     33  C   UNL     1       9.337  13.616  21.044  0.00  0.00    +0.000 C 
ATOM     34  C   UNL     1       8.950  12.496  22.016  0.00  0.00    +0.000 C 
ATOM     35  C   UNL     1       8.039  13.013  23.123  0.00  0.00    +0.000 C 
ENDBRANCH  28  33
ENDBRANCH  22  28
ENDBRANCH   1  25
TORSDOF 5
ENDMDL
MODEL 7
REMARK VINA RESULT:      -8.5      3.744     10.728
REMARK  Name = 
REMARK  7 active torsions:
REMARK  status: ('A' for Active; 'I' for Inactive)
REMARK    1  A    between atoms: C_1  and  N_2
REMARK    2  A    between atoms: C_5  and  O_6
REMARK    3  A    between atoms: O_6  and  C_7
REMARK    4  A    between atoms: C_10  and  N_11
REMARK    5  A    between atoms: C_12  and  C_14
REMARK    6  A    between atoms: C_21  and  C_22
REMARK    7  A    between atoms: N_25  and  C_26
REMARK                            x       y       z     vdW  Elec       q    Type
REMARK                         _______ _______ _______ _____ _____    ______ ____
ROOT
ATOM      1  N   UNL     1       8.724   9.495  17.733  0.00  0.00    +0.000 N 
ATOM      2  C   UNL     1       9.156  10.310  18.775  0.00  0.00    +0.000 C 
ATOM      3  O   UNL     1       8.958  10.103  19.967  0.00  0.00    +0.000 OA
ATOM      4  H   UNL     1       8.949   9.845  16.806  0.00  0.00    +0.000 HD
ENDROOT
BRANCH   2   5
ATOM      5  C   UNL     1       9.905  11.504  18.343  0.00  0.00    +0.000 A 
ATOM      6  N   UNL     1      11.227  11.471  18.070  0.00  0.00    +0.000 NA
ATOM      7  N   UNL     1      11.521  12.750  17.758  0.00  0.00    +0.000 N 
ATOM      8  C   UNL     1      10.458  13.610  17.817  0.00  0.00    +0.000 A 
ATOM      9  C   UNL     1      10.356  14.989  17.591  0.00  0.00    +0.000 A 
ATOM     10  C   UNL     1       9.093  15.570  17.744  0.00  0.00    +0.000 A 
ATOM     11  F   UNL     1       8.999  16.895  17.546  0.00  0.00    +0.000 F 
ATOM     12  C   UNL     1       7.965  14.826  18.112  0.00  0.00    +0.000 A 
ATOM     13  C   UNL     1       8.108  13.441  18.327  0.00  0.00    +0.000 A 
ATOM     14  C   UNL     1       9.373  12.825  18.184  0.00  0.00    +0.000 A 
ATOM     15  H   UNL     1      12.480  12.981  17.519  0.00  0.00    +0.000 HD
BRANCH  12  16
ATOM     16  C   UNL     1       6.667  15.470  18.272  0.00  0.00    +0.000 A 
ATOM     17  C   UNL     1       6.305  16.700  18.868  0.00  0.00    +0.000 A 
ATOM     18  N   UNL     1       4.990  16.932  18.822  0.00  0.00    +0.000 NA
ATOM     19  N   UNL     1       4.501  15.842  18.206  0.00  0.00    +0.000 N 
ATOM     20  C   UNL     1       3.082  15.707  17.982  0.00  0.00    +0.000 C 
ATOM     21  C   UNL     1       5.464  14.940  17.859  0.00  0.00    +0.000 A 
ENDBRANCH  12  16
ENDBRANCH   2   5
BRANCH   1  25
ATOM     22  C   UNL     1       6.785   5.814  18.153  0.00  0.00    +0.000 A 
ATOM     23  C   UNL     1       6.276   6.711  17.235  0.00  0.00    +0.000 A 
ATOM     24  C   UNL     1       6.914   7.941  17.077  0.00  0.00    +0.000 A 
ATOM     25  C   UNL     1       8.019   8.272  17.860  0.00  0.00    +0.000 A 
ATOM     26  C   UNL     1       8.413   7.314  18.799  0.00  0.00    +0.000 A 
ATOM     27  N   UNL     1       7.832   6.088  18.960  0.00  0.00    +0.000 NA
BRANCH  22  28
ATOM     28  O   UNL     1       6.149   4.590  18.205  0.00  0.00    +0.000 OA
BRANCH  28  33
ATOM     29  C   UNL     1       0.786   3.028  18.955  0.00  0.00    +0.000 C 
ATOM     30  N   UNL     1       2.241   3.172  18.875  0.00  0.00    +0.000 NA
ATOM     31  C   UNL     1       2.670   3.367  17.484  0.00  0.00    +0.000 C 
ATOM     32  C   UNL     1       4.188   3.503  17.386  0.00  0.00    +0.000 C 
ATOM     33  C   UNL     1       4.716   4.641  18.271  0.00  0.00    +0.000 C 
ATOM     34  C   UNL     1       4.205   4.424  19.700  0.00  0.00    +0.000 C 
ATOM     35  C   UNL     1       2.688   4.280  19.729  0.00  0.00    +0.000 C 
ENDBRANCH  28  33
ENDBRANCH  22  28
ENDBRANCH   1  25
TORSDOF 5
ENDMDL
MODEL 8
REMARK VINA RESULT:      -8.4      6.601      9.152
REMARK  Name = 
REMARK  7 active torsions:
REMARK  status: ('A' for Active; 'I' for Inactive)
REMARK    1  A    between atoms: C_1  and  N_2
REMARK    2  A    between atoms: C_5  and  O_6
REMARK    3  A    between atoms: O_6  and  C_7
REMARK    4  A    between atoms: C_10  and  N_11
REMARK    5  A    between atoms: C_12  and  C_14
REMARK    6  A    between atoms: C_21  and  C_22
REMARK    7  A    between atoms: N_25  and  C_26
REMARK                            x       y       z     vdW  Elec       q    Type
REMARK                         _______ _______ _______ _____ _____    ______ ____
ROOT
ATOM      1  N   UNL     1       0.395   7.315  20.930  0.00  0.00    +0.000 N 
ATOM      2  C   UNL     1       1.550   6.802  20.348  0.00  0.00    +0.000 C 
ATOM      3  O   UNL     1       2.543   7.455  20.046  0.00  0.00    +0.000 OA
ATOM      4  H   UNL     1      -0.340   6.629  21.077  0.00  0.00    +0.000 HD
ENDROOT
BRANCH   2   5
ATOM      5  C   UNL     1       1.512   5.349  20.100  0.00  0.00    +0.000 A 
ATOM      6  N   UNL     1       0.610   4.536  20.690  0.00  0.00    +0.000 NA
ATOM      7  N   UNL     1       0.941   3.310  20.236  0.00  0.00    +0.000 N 
ATOM      8  C   UNL     1       2.012   3.286  19.384  0.00  0.00    +0.000 A 
ATOM      9  C   UNL     1       2.665   2.234  18.729  0.00  0.00    +0.000 A 
ATOM     10  C   UNL     1       3.753   2.564  17.916  0.00  0.00    +0.000 A 
ATOM     11  F   UNL     1       4.389   1.553  17.302  0.00  0.00    +0.000 F 
ATOM     12  C   UNL     1       4.194   3.883  17.752  0.00  0.00    +0.000 A 
ATOM     13  C   UNL     1       3.509   4.915  18.426  0.00  0.00    +0.000 A 
ATOM     14  C   UNL     1       2.407   4.611  19.258  0.00  0.00    +0.000 A 
ATOM     15  H   UNL     1       0.397   2.514  20.554  0.00  0.00    +0.000 HD
BRANCH  12  16
ATOM     16  C   UNL     1       5.339   4.186  16.904  0.00  0.00    +0.000 A 
ATOM     17  C   UNL     1       6.677   4.515  17.227  0.00  0.00    +0.000 A 
ATOM     18  N   UNL     1       7.433   4.737  16.148  0.00  0.00    +0.000 NA
ATOM     19  N   UNL     1       6.578   4.563  15.126  0.00  0.00    +0.000 N 
ATOM     20  C   UNL     1       7.024   4.739  13.765  0.00  0.00    +0.000 C 
ATOM     21  C   UNL     1       5.315   4.235  15.527  0.00  0.00    +0.000 A 
ENDBRANCH  12  16
ENDBRANCH   2   5
BRANCH   1  25
ATOM     22  C   UNL     1      -0.140  11.335  21.949  0.00  0.00    +0.000 A 
ATOM     23  C   UNL     1      -0.486  10.380  22.885  0.00  0.00    +0.000 A 
ATOM     24  C   UNL     1      -0.308   9.035  22.564  0.00  0.00    +0.000 A 
ATOM     25  C   UNL     1       0.172   8.663  21.310  0.00  0.00    +0.000 A 
ATOM     26  C   UNL     1       0.434   9.708  20.420  0.00  0.00    +0.000 A 
ATOM     27  N   UNL     1       0.301  11.037  20.710  0.00  0.00    +0.000 NA
BRANCH  22  28
ATOM     28  O   UNL     1      -0.273  12.646  22.361  0.00  0.00    +0.000 OA
BRANCH  28  33
ATOM     29  C   UNL     1      -4.865  15.532  23.894  0.00  0.00    +0.000 C 
ATOM     30  N   UNL     1      -3.624  15.010  23.319  0.00  0.00    +0.000 NA
ATOM     31  C   UNL     1      -2.612  14.802  24.363  0.00  0.00    +0.000 C 
ATOM     32  C   UNL     1      -1.307  14.270  23.771  0.00  0.00    +0.000 C 
ATOM     33  C   UNL     1      -1.527  12.976  22.976  0.00  0.00    +0.000 C 
ATOM     34  C   UNL     1      -2.623  13.225  21.933  0.00  0.00    +0.000 C 
ATOM     35  C   UNL     1      -3.891  13.768  22.581  0.00  0.00    +0.000 C 
ENDBRANCH  28  33
ENDBRANCH  22  28
ENDBRANCH   1  25
TORSDOF 5
ENDMDL
MODEL 9
REMARK VINA RESULT:      -8.2      3.679     10.694
REMARK  Name = 
REMARK  7 active torsions:
REMARK  status: ('A' for Active; 'I' for Inactive)
REMARK    1  A    between atoms: C_1  and  N_2
REMARK    2  A    between atoms: C_5  and  O_6
REMARK    3  A    between atoms: O_6  and  C_7
REMARK    4  A    between atoms: C_10  and  N_11
REMARK    5  A    between atoms: C_12  and  C_14
REMARK    6  A    between atoms: C_21  and  C_22
REMARK    7  A    between atoms: N_25  and  C_26
REMARK                            x       y       z     vdW  Elec       q    Type
REMARK                         _______ _______ _______ _____ _____    ______ ____
ROOT
ATOM      1  N   UNL     1       8.530   9.322  17.584  0.00  0.00    +0.000 N 
ATOM      2  C   UNL     1       9.004  10.118  18.621  0.00  0.00    +0.000 C 
ATOM      3  O   UNL     1       8.788   9.934  19.814  0.00  0.00    +0.000 OA
ATOM      4  H   UNL     1       8.781   9.650  16.655  0.00  0.00    +0.000 HD
ENDROOT
BRANCH   2   5
ATOM      5  C   UNL     1       9.827  11.260  18.184  0.00  0.00    +0.000 A 
ATOM      6  N   UNL     1      11.135  11.136  17.876  0.00  0.00    +0.000 NA
ATOM      7  N   UNL     1      11.514  12.394  17.572  0.00  0.00    +0.000 N 
ATOM      8  C   UNL     1      10.518  13.329  17.669  0.00  0.00    +0.000 A 
ATOM      9  C   UNL     1      10.510  14.714  17.463  0.00  0.00    +0.000 A 
ATOM     10  C   UNL     1       9.297  15.382  17.656  0.00  0.00    +0.000 A 
ATOM     11  F   UNL     1       9.295  16.713  17.476  0.00  0.00    +0.000 F 
ATOM     12  C   UNL     1       8.128  14.717  18.044  0.00  0.00    +0.000 A 
ATOM     13  C   UNL     1       8.176  13.322  18.240  0.00  0.00    +0.000 A 
ATOM     14  C   UNL     1       9.389  12.619  18.055  0.00  0.00    +0.000 A 
ATOM     15  H   UNL     1      12.480  12.559  17.311  0.00  0.00    +0.000 HD
BRANCH  12  16
ATOM     16  C   UNL     1       6.885  15.450  18.247  0.00  0.00    +0.000 A 
ATOM     17  C   UNL     1       6.632  16.709  18.840  0.00  0.00    +0.000 A 
ATOM     18  N   UNL     1       5.335  17.031  18.843  0.00  0.00    +0.000 NA
ATOM     19  N   UNL     1       4.748  15.971  18.260  0.00  0.00    +0.000 N 
ATOM     20  C   UNL     1       3.316  15.932  18.094  0.00  0.00    +0.000 C 
ATOM     21  C   UNL     1       5.633  15.001  17.888  0.00  0.00    +0.000 A 
ENDBRANCH  12  16
ENDBRANCH   2   5
BRANCH   1  25
ATOM     22  C   UNL     1       6.372   5.764  17.999  0.00  0.00    +0.000 A 
ATOM     23  C   UNL     1       5.832   6.758  17.206  0.00  0.00    +0.000 A 
ATOM     24  C   UNL     1       6.541   7.948  17.052  0.00  0.00    +0.000 A 
ATOM     25  C   UNL     1       7.751   8.145  17.716  0.00  0.00    +0.000 A 
ATOM     26  C   UNL     1       8.174   7.097  18.539  0.00  0.00    +0.000 A 
ATOM     27  N   UNL     1       7.522   5.906  18.690  0.00  0.00    +0.000 NA
BRANCH  22  28
ATOM     28  O   UNL     1       5.652   4.587  18.049  0.00  0.00    +0.000 OA
BRANCH  28  33
ATOM     29  C   UNL     1       1.409   3.137  21.463  0.00  0.00    +0.000 C 
ATOM     30  N   UNL     1       2.356   3.375  20.371  0.00  0.00    +0.000 NA
ATOM     31  C   UNL     1       2.543   4.814  20.147  0.00  0.00    +0.000 C 
ATOM     32  C   UNL     1       3.518   5.074  19.000  0.00  0.00    +0.000 C 
ATOM     33  C   UNL     1       4.872   4.390  19.237  0.00  0.00    +0.000 C 
ATOM     34  C   UNL     1       4.625   2.903  19.514  0.00  0.00    +0.000 C 
ATOM     35  C   UNL     1       3.634   2.710  20.656  0.00  0.00    +0.000 C 
ENDBRANCH  28  33
ENDBRANCH  22  28
ENDBRANCH   1  25
TORSDOF 5
ENDMDL
