MODEL 1
REMARK VINA RESULT:      -7.7      0.000      0.000
REMARK  Name = 
REMARK  8 active torsions:
REMARK  status: ('A' for Active; 'I' for Inactive)
REMARK    1  A    between atoms: C_2  and  O_3
REMARK    2  A    between atoms: C_2  and  C_4
REMARK    3  A    between atoms: C_4  and  C_5
REMARK    4  A    between atoms: C_5  and  C_6
REMARK    5  A    between atoms: C_6  and  C_7
REMARK    6  A    between atoms: N_9  and  C_10
REMARK    7  A    between atoms: C_16  and  C_17
REMARK    8  A    between atoms: C_17  and  C_19
REMARK                            x       y       z     vdW  Elec       q    Type
REMARK                         _______ _______ _______ _____ _____    ______ ____
ROOT
ATOM      1  C   UNL     1       4.773   7.141  16.749  0.00  0.00    +0.000 C 
ATOM      2  O   UNL     1       5.528   7.618  17.592  0.00  0.00    +0.000 OA
ATOM      3  N   UNL     1       3.392   7.117  16.859  0.00  0.00    +0.000 N 
ATOM      4  H   UNL     1       2.931   6.365  16.364  0.00  0.00    +0.000 HD
ENDROOT
BRANCH   3   5
ATOM      5  C   UNL     1       2.692   7.683  17.952  0.00  0.00    +0.000 A 
ATOM      6  C   UNL     1       2.242   9.003  17.755  0.00  0.00    +0.000 A 
ATOM      7  C   UNL     1       1.512   9.666  18.743  0.00  0.00    +0.000 A 
ATOM      8  C   UNL     1       1.279   9.043  19.962  0.00  0.00    +0.000 A 
ATOM      9 CL   UNL     1       0.413   9.871  21.197  0.00  0.00    +0.000 Cl
ATOM     10  C   UNL     1       1.760   7.759  20.197  0.00  0.00    +0.000 A 
ATOM     11  C   UNL     1       2.440   7.046  19.186  0.00  0.00    +0.000 A 
BRANCH  11  12
ATOM     12  C   UNL     1       3.036   5.725  19.557  0.00  0.00    +0.000 C 
ATOM     13  O   UNL     1       4.088   5.692  20.192  0.00  0.00    +0.000 OA
BRANCH  12  14
ATOM     14  C   UNL     1       2.307   4.442  19.298  0.00  0.00    +0.000 A 
ATOM     15  C   UNL     1       2.691   3.670  18.193  0.00  0.00    +0.000 A 
ATOM     16  C   UNL     1       2.095   2.428  17.959  0.00  0.00    +0.000 A 
ATOM     17  C   UNL     1       1.109   1.953  18.821  0.00  0.00    +0.000 A 
ATOM     18  C   UNL     1       0.703   2.726  19.909  0.00  0.00    +0.000 A 
ATOM     19  C   UNL     1       1.288   3.975  20.140  0.00  0.00    +0.000 A 
ENDBRANCH  12  14
ENDBRANCH  11  12
ENDBRANCH   3   5
BRANCH   1  20
ATOM     20  C   UNL     1       5.263   6.419  15.484  0.00  0.00    +0.000 C 
BRANCH  20  21
ATOM     21  C   UNL     1       5.991   5.060  15.694  0.00  0.00    +0.000 C 
ATOM     22  C   UNL     1       7.373   5.029  15.007  0.00  0.00    +0.000 C 
ATOM     23  C   UNL     1       7.113   4.708  13.542  0.00  0.00    +0.000 C 
ATOM     24  C   UNL     1       5.804   3.932  13.505  0.00  0.00    +0.000 C 
ATOM     25  C   UNL     1       5.250   3.937  14.927  0.00  0.00    +0.000 C 
BRANCH  21  26
ATOM     26  C   UNL     1       6.156   4.683  17.189  0.00  0.00    +0.000 C 
BRANCH  26  28
ATOM     27  O   UNL     1       8.425   3.988  17.751  0.00  0.00    +0.000 OA
ATOM     28  C   UNL     1       7.545   4.833  17.770  0.00  0.00    +0.000 C 
BRANCH  28  29
ATOM     29  O   UNL     1       7.732   6.053  18.330  0.00  0.00    +0.000 OA
ATOM     30  H   UNL     1       8.380   6.604  17.853  0.00  0.00    +0.000 HD
ENDBRANCH  28  29
ENDBRANCH  26  28
ENDBRANCH  21  26
ENDBRANCH  20  21
ENDBRANCH   1  20
TORSDOF 8
ENDMDL
MODEL 2
REMARK VINA RESULT:      -7.3      3.650      7.127
REMARK  Name = 
REMARK  8 active torsions:
REMARK  status: ('A' for Active; 'I' for Inactive)
REMARK    1  A    between atoms: C_2  and  O_3
REMARK    2  A    between atoms: C_2  and  C_4
REMARK    3  A    between atoms: C_4  and  C_5
REMARK    4  A    between atoms: C_5  and  C_6
REMARK    5  A    between atoms: C_6  and  C_7
REMARK    6  A    between atoms: N_9  and  C_10
REMARK    7  A    between atoms: C_16  and  C_17
REMARK    8  A    between atoms: C_17  and  C_19
REMARK                            x       y       z     vdW  Elec       q    Type
REMARK                         _______ _______ _______ _____ _____    ______ ____
ROOT
ATOM      1  C   UNL     1       2.035   8.556  18.309  0.00  0.00    +0.000 C 
ATOM      2  O   UNL     1       2.141   9.060  17.194  0.00  0.00    +0.000 OA
ATOM      3  N   UNL     1       2.619   7.357  18.684  0.00  0.00    +0.000 N 
ATOM      4  H   UNL     1       2.140   6.852  19.419  0.00  0.00    +0.000 HD
ENDROOT
BRANCH   3   5
ATOM      5  C   UNL     1       3.444   6.594  17.822  0.00  0.00    +0.000 A 
ATOM      6  C   UNL     1       4.461   7.319  17.170  0.00  0.00    +0.000 A 
ATOM      7  C   UNL     1       5.362   6.680  16.317  0.00  0.00    +0.000 A 
ATOM      8  C   UNL     1       5.220   5.325  16.055  0.00  0.00    +0.000 A 
ATOM      9 CL   UNL     1       6.305   4.541  14.974  0.00  0.00    +0.000 Cl
ATOM     10  C   UNL     1       4.190   4.599  16.648  0.00  0.00    +0.000 A 
ATOM     11  C   UNL     1       3.312   5.212  17.567  0.00  0.00    +0.000 A 
BRANCH  11  12
ATOM     12  C   UNL     1       2.157   4.400  18.061  0.00  0.00    +0.000 C 
ATOM     13  O   UNL     1       1.203   4.187  17.316  0.00  0.00    +0.000 OA
BRANCH  12  14
ATOM     14  C   UNL     1       2.199   3.717  19.394  0.00  0.00    +0.000 A 
ATOM     15  C   UNL     1       1.012   3.628  20.135  0.00  0.00    +0.000 A 
ATOM     16  C   UNL     1       0.986   2.931  21.345  0.00  0.00    +0.000 A 
ATOM     17  C   UNL     1       2.144   2.324  21.826  0.00  0.00    +0.000 A 
ATOM     18  C   UNL     1       3.335   2.429  21.108  0.00  0.00    +0.000 A 
ATOM     19  C   UNL     1       3.369   3.136  19.903  0.00  0.00    +0.000 A 
ENDBRANCH  12  14
ENDBRANCH  11  12
ENDBRANCH   3   5
BRANCH   1  20
ATOM     20  C   UNL     1       1.160   9.144  19.427  0.00  0.00    +0.000 C 
BRANCH  20  21
ATOM     21  C   UNL     1       0.266  10.361  19.046  0.00  0.00    +0.000 C 
ATOM     22  C   UNL     1       1.101  11.629  18.763  0.00  0.00    +0.000 C 
ATOM     23  C   UNL     1       1.422  12.238  20.120  0.00  0.00    +0.000 C 
ATOM     24  C   UNL     1       0.310  11.793  21.058  0.00  0.00    +0.000 C 
ATOM     25  C   UNL     1      -0.562  10.816  20.273  0.00  0.00    +0.000 C 
BRANCH  21  26
ATOM     26  C   UNL     1      -0.661  10.080  17.836  0.00  0.00    +0.000 C 
BRANCH  26  28
ATOM     27  O   UNL     1      -3.024  10.628  18.082  0.00  0.00    +0.000 OA
ATOM     28  C   UNL     1      -1.900  10.940  17.725  0.00  0.00    +0.000 C 
BRANCH  28  29
ATOM     29  O   UNL     1      -1.630  12.150  17.176  0.00  0.00    +0.000 OA
ATOM     30  H   UNL     1      -1.773  12.179  16.212  0.00  0.00    +0.000 HD
ENDBRANCH  28  29
ENDBRANCH  26  28
ENDBRANCH  21  26
ENDBRANCH  20  21
ENDBRANCH   1  20
TORSDOF 8
ENDMDL
MODEL 3
REMARK VINA RESULT:      -7.2      3.110      6.711
REMARK  Name = 
REMARK  8 active torsions:
REMARK  status: ('A' for Active; 'I' for Inactive)
REMARK    1  A    between atoms: C_2  and  O_3
REMARK    2  A    between atoms: C_2  and  C_4
REMARK    3  A    between atoms: C_4  and  C_5
REMARK    4  A    between atoms: C_5  and  C_6
REMARK    5  A    between atoms: C_6  and  C_7
REMARK    6  A    between atoms: N_9  and  C_10
REMARK    7  A    between atoms: C_16  and  C_17
REMARK    8  A    between atoms: C_17  and  C_19
REMARK                            x       y       z     vdW  Elec       q    Type
REMARK                         _______ _______ _______ _____ _____    ______ ____
ROOT
ATOM      1  C   UNL     1       2.372   6.849  19.097  0.00  0.00    +0.000 C 
ATOM      2  O   UNL     1       1.584   6.484  18.227  0.00  0.00    +0.000 OA
ATOM      3  N   UNL     1       3.743   6.662  19.037  0.00  0.00    +0.000 N 
ATOM      4  H   UNL     1       4.212   6.602  19.932  0.00  0.00    +0.000 HD
ENDROOT
BRANCH   3   5
ATOM      5  C   UNL     1       4.397   6.059  17.935  0.00  0.00    +0.000 A 
ATOM      6  C   UNL     1       4.582   6.897  16.818  0.00  0.00    +0.000 A 
ATOM      7  C   UNL     1       5.240   6.434  15.677  0.00  0.00    +0.000 A 
ATOM      8  C   UNL     1       5.662   5.114  15.614  0.00  0.00    +0.000 A 
ATOM      9 CL   UNL     1       6.439   4.528  14.194  0.00  0.00    +0.000 Cl
ATOM     10  C   UNL     1       5.443   4.254  16.686  0.00  0.00    +0.000 A 
ATOM     11  C   UNL     1       4.842   4.721  17.875  0.00  0.00    +0.000 A 
BRANCH  11  12
ATOM     12  C   UNL     1       4.525   3.709  18.930  0.00  0.00    +0.000 C 
ATOM     13  O   UNL     1       5.433   3.243  19.614  0.00  0.00    +0.000 OA
BRANCH  12  14
ATOM     14  C   UNL     1       3.109   3.359  19.271  0.00  0.00    +0.000 A 
ATOM     15  C   UNL     1       2.679   3.537  20.594  0.00  0.00    +0.000 A 
ATOM     16  C   UNL     1       1.347   3.300  20.941  0.00  0.00    +0.000 A 
ATOM     17  C   UNL     1       0.437   2.880  19.974  0.00  0.00    +0.000 A 
ATOM     18  C   UNL     1       0.861   2.677  18.660  0.00  0.00    +0.000 A 
ATOM     19  C   UNL     1       2.196   2.900  18.310  0.00  0.00    +0.000 A 
ENDBRANCH  12  14
ENDBRANCH  11  12
ENDBRANCH   3   5
BRANCH   1  20
ATOM     20  C   UNL     1       1.934   7.489  20.423  0.00  0.00    +0.000 C 
BRANCH  20  21
ATOM     21  C   UNL     1       1.132   8.819  20.325  0.00  0.00    +0.000 C 
ATOM     22  C   UNL     1       1.521   9.815  21.439  0.00  0.00    +0.000 C 
ATOM     23  C   UNL     1       0.746   9.393  22.678  0.00  0.00    +0.000 C 
ATOM     24  C   UNL     1      -0.499   8.676  22.175  0.00  0.00    +0.000 C 
ATOM     25  C   UNL     1      -0.359   8.565  20.659  0.00  0.00    +0.000 C 
BRANCH  21  26
ATOM     26  C   UNL     1       1.272   9.513  18.947  0.00  0.00    +0.000 C 
BRANCH  26  28
ATOM     27  O   UNL     1      -0.104  11.524  19.062  0.00  0.00    +0.000 OA
ATOM     28  C   UNL     1       0.150  10.448  18.548  0.00  0.00    +0.000 C 
BRANCH  28  29
ATOM     29  O   UNL     1      -0.572   9.958  17.511  0.00  0.00    +0.000 OA
ATOM     30  H   UNL     1      -0.094   9.979  16.661  0.00  0.00    +0.000 HD
ENDBRANCH  28  29
ENDBRANCH  26  28
ENDBRANCH  21  26
ENDBRANCH  20  21
ENDBRANCH   1  20
TORSDOF 8
ENDMDL
MODEL 4
REMARK VINA RESULT:      -7.2      0.636      1.265
REMARK  Name = 
REMARK  8 active torsions:
REMARK  status: ('A' for Active; 'I' for Inactive)
REMARK    1  A    between atoms: C_2  and  O_3
REMARK    2  A    between atoms: C_2  and  C_4
REMARK    3  A    between atoms: C_4  and  C_5
REMARK    4  A    between atoms: C_5  and  C_6
REMARK    5  A    between atoms: C_6  and  C_7
REMARK    6  A    between atoms: N_9  and  C_10
REMARK    7  A    between atoms: C_16  and  C_17
REMARK    8  A    between atoms: C_17  and  C_19
REMARK                            x       y       z     vdW  Elec       q    Type
REMARK                         _______ _______ _______ _____ _____    ______ ____
ROOT
ATOM      1  C   UNL     1       4.765   7.255  16.822  0.00  0.00    +0.000 C 
ATOM      2  O   UNL     1       5.493   7.786  17.656  0.00  0.00    +0.000 OA
ATOM      3  N   UNL     1       3.387   7.160  16.932  0.00  0.00    +0.000 N 
ATOM      4  H   UNL     1       2.966   6.376  16.451  0.00  0.00    +0.000 HD
ENDROOT
BRANCH   3   5
ATOM      5  C   UNL     1       2.657   7.710  18.014  0.00  0.00    +0.000 A 
ATOM      6  C   UNL     1       2.154   9.008  17.799  0.00  0.00    +0.000 A 
ATOM      7  C   UNL     1       1.390   9.651  18.775  0.00  0.00    +0.000 A 
ATOM      8  C   UNL     1       1.176   9.034  19.999  0.00  0.00    +0.000 A 
ATOM      9 CL   UNL     1       0.269   9.839  21.219  0.00  0.00    +0.000 Cl
ATOM     10  C   UNL     1       1.708   7.773  20.252  0.00  0.00    +0.000 A 
ATOM     11  C   UNL     1       2.424   7.077  19.254  0.00  0.00    +0.000 A 
BRANCH  11  12
ATOM     12  C   UNL     1       3.072   5.787  19.644  0.00  0.00    +0.000 C 
ATOM     13  O   UNL     1       4.227   5.791  20.063  0.00  0.00    +0.000 OA
BRANCH  12  14
ATOM     14  C   UNL     1       2.297   4.505  19.674  0.00  0.00    +0.000 A 
ATOM     15  C   UNL     1       2.000   3.935  20.921  0.00  0.00    +0.000 A 
ATOM     16  C   UNL     1       1.211   2.785  21.001  0.00  0.00    +0.000 A 
ATOM     17  C   UNL     1       0.719   2.193  19.841  0.00  0.00    +0.000 A 
ATOM     18  C   UNL     1       1.030   2.739  18.594  0.00  0.00    +0.000 A 
ATOM     19  C   UNL     1       1.829   3.882  18.508  0.00  0.00    +0.000 A 
ENDBRANCH  12  14
ENDBRANCH  11  12
ENDBRANCH   3   5
BRANCH   1  20
ATOM     20  C   UNL     1       5.293   6.535  15.571  0.00  0.00    +0.000 C 
BRANCH  20  21
ATOM     21  C   UNL     1       6.359   5.424  15.803  0.00  0.00    +0.000 C 
ATOM     22  C   UNL     1       7.041   4.990  14.487  0.00  0.00    +0.000 C 
ATOM     23  C   UNL     1       6.095   4.000  13.823  0.00  0.00    +0.000 C 
ATOM     24  C   UNL     1       5.283   3.372  14.947  0.00  0.00    +0.000 C 
ATOM     25  C   UNL     1       5.666   4.106  16.229  0.00  0.00    +0.000 C 
BRANCH  21  26
ATOM     26  C   UNL     1       7.445   5.828  16.832  0.00  0.00    +0.000 C 
BRANCH  26  28
ATOM     27  O   UNL     1       7.094   4.997  19.098  0.00  0.00    +0.000 OA
ATOM     28  C   UNL     1       7.635   4.897  18.009  0.00  0.00    +0.000 C 
BRANCH  28  29
ATOM     29  O   UNL     1       8.494   3.888  17.723  0.00  0.00    +0.000 OA
ATOM     30  H   UNL     1       8.357   3.500  16.839  0.00  0.00    +0.000 HD
ENDBRANCH  28  29
ENDBRANCH  26  28
ENDBRANCH  21  26
ENDBRANCH  20  21
ENDBRANCH   1  20
TORSDOF 8
ENDMDL
MODEL 5
REMARK VINA RESULT:      -7.1      3.295      6.810
REMARK  Name = 
REMARK  8 active torsions:
REMARK  status: ('A' for Active; 'I' for Inactive)
REMARK    1  A    between atoms: C_2  and  O_3
REMARK    2  A    between atoms: C_2  and  C_4
REMARK    3  A    between atoms: C_4  and  C_5
REMARK    4  A    between atoms: C_5  and  C_6
REMARK    5  A    between atoms: C_6  and  C_7
REMARK    6  A    between atoms: N_9  and  C_10
REMARK    7  A    between atoms: C_16  and  C_17
REMARK    8  A    between atoms: C_17  and  C_19
REMARK                            x       y       z     vdW  Elec       q    Type
REMARK                         _______ _______ _______ _____ _____    ______ ____
ROOT
ATOM      1  C   UNL     1       2.391   7.333  18.920  0.00  0.00    +0.000 C 
ATOM      2  O   UNL     1       1.955   7.737  17.845  0.00  0.00    +0.000 OA
ATOM      3  N   UNL     1       3.447   6.445  19.052  0.00  0.00    +0.000 N 
ATOM      4  H   UNL     1       3.435   5.878  19.890  0.00  0.00    +0.000 HD
ENDROOT
BRANCH   3   5
ATOM      5  C   UNL     1       4.171   5.932  17.948  0.00  0.00    +0.000 A 
ATOM      6  C   UNL     1       5.198   6.768  17.466  0.00  0.00    +0.000 A 
ATOM      7  C   UNL     1       6.007   6.368  16.402  0.00  0.00    +0.000 A 
ATOM      8  C   UNL     1       5.760   5.160  15.766  0.00  0.00    +0.000 A 
ATOM      9 CL   UNL     1       6.730   4.680  14.428  0.00  0.00    +0.000 Cl
ATOM     10  C   UNL     1       4.717   4.342  16.192  0.00  0.00    +0.000 A 
ATOM     11  C   UNL     1       3.932   4.697  17.310  0.00  0.00    +0.000 A 
BRANCH  11  12
ATOM     12  C   UNL     1       2.754   3.832  17.626  0.00  0.00    +0.000 C 
ATOM     13  O   UNL     1       2.079   3.369  16.710  0.00  0.00    +0.000 OA
BRANCH  12  14
ATOM     14  C   UNL     1       2.462   3.396  19.030  0.00  0.00    +0.000 A 
ATOM     15  C   UNL     1       3.496   2.808  19.772  0.00  0.00    +0.000 A 
ATOM     16  C   UNL     1       3.294   2.460  21.110  0.00  0.00    +0.000 A 
ATOM     17  C   UNL     1       2.061   2.692  21.714  0.00  0.00    +0.000 A 
ATOM     18  C   UNL     1       1.019   3.254  20.976  0.00  0.00    +0.000 A 
ATOM     19  C   UNL     1       1.212   3.592  19.633  0.00  0.00    +0.000 A 
ENDBRANCH  12  14
ENDBRANCH  11  12
ENDBRANCH   3   5
BRANCH   1  20
ATOM     20  C   UNL     1       1.765   7.689  20.277  0.00  0.00    +0.000 C 
BRANCH  20  21
ATOM     21  C   UNL     1       1.074   9.080  20.384  0.00  0.00    +0.000 C 
ATOM     22  C   UNL     1       1.526   9.858  21.638  0.00  0.00    +0.000 C 
ATOM     23  C   UNL     1       0.701   9.316  22.796  0.00  0.00    +0.000 C 
ATOM     24  C   UNL     1      -0.590   8.789  22.186  0.00  0.00    +0.000 C 
ATOM     25  C   UNL     1      -0.437   8.901  20.671  0.00  0.00    +0.000 C 
BRANCH  21  26
ATOM     26  C   UNL     1       1.291   9.964  19.129  0.00  0.00    +0.000 C 
BRANCH  26  28
ATOM     27  O   UNL     1      -0.494  11.610  18.902  0.00  0.00    +0.000 OA
ATOM     28  C   UNL     1       0.052  10.587  18.524  0.00  0.00    +0.000 C 
BRANCH  28  29
ATOM     29  O   UNL     1      -0.409   9.873  17.467  0.00  0.00    +0.000 OA
ATOM     30  H   UNL     1       0.280   9.341  17.028  0.00  0.00    +0.000 HD
ENDBRANCH  28  29
ENDBRANCH  26  28
ENDBRANCH  21  26
ENDBRANCH  20  21
ENDBRANCH   1  20
TORSDOF 8
ENDMDL
MODEL 6
REMARK VINA RESULT:      -7.1      3.348      7.554
REMARK  Name = 
REMARK  8 active torsions:
REMARK  status: ('A' for Active; 'I' for Inactive)
REMARK    1  A    between atoms: C_2  and  O_3
REMARK    2  A    between atoms: C_2  and  C_4
REMARK    3  A    between atoms: C_4  and  C_5
REMARK    4  A    between atoms: C_5  and  C_6
REMARK    5  A    between atoms: C_6  and  C_7
REMARK    6  A    between atoms: N_9  and  C_10
REMARK    7  A    between atoms: C_16  and  C_17
REMARK    8  A    between atoms: C_17  and  C_19
REMARK                            x       y       z     vdW  Elec       q    Type
REMARK                         _______ _______ _______ _____ _____    ______ ____
ROOT
ATOM      1  C   UNL     1       1.053   8.199  20.973  0.00  0.00    +0.000 C 
ATOM      2  O   UNL     1       0.054   7.595  21.353  0.00  0.00    +0.000 OA
ATOM      3  N   UNL     1       2.113   7.612  20.301  0.00  0.00    +0.000 N 
ATOM      4  H   UNL     1       3.009   8.068  20.420  0.00  0.00    +0.000 HD
ENDROOT
BRANCH   3   5
ATOM      5  C   UNL     1       2.140   6.243  19.940  0.00  0.00    +0.000 A 
ATOM      6  C   UNL     1       1.477   5.376  20.832  0.00  0.00    +0.000 A 
ATOM      7  C   UNL     1       1.404   4.006  20.577  0.00  0.00    +0.000 A 
ATOM      8  C   UNL     1       2.046   3.477  19.466  0.00  0.00    +0.000 A 
ATOM      9 CL   UNL     1       1.991   1.783  19.169  0.00  0.00    +0.000 Cl
ATOM     10  C   UNL     1       2.750   4.308  18.600  0.00  0.00    +0.000 A 
ATOM     11  C   UNL     1       2.778   5.704  18.803  0.00  0.00    +0.000 A 
BRANCH  11  12
ATOM     12  C   UNL     1       3.660   6.513  17.905  0.00  0.00    +0.000 C 
ATOM     13  O   UNL     1       3.409   7.701  17.719  0.00  0.00    +0.000 OA
BRANCH  12  14
ATOM     14  C   UNL     1       4.927   5.945  17.342  0.00  0.00    +0.000 A 
ATOM     15  C   UNL     1       6.021   5.776  18.203  0.00  0.00    +0.000 A 
ATOM     16  C   UNL     1       7.195   5.175  17.742  0.00  0.00    +0.000 A 
ATOM     17  C   UNL     1       7.288   4.746  16.421  0.00  0.00    +0.000 A 
ATOM     18  C   UNL     1       6.213   4.932  15.550  0.00  0.00    +0.000 A 
ATOM     19  C   UNL     1       5.040   5.544  16.003  0.00  0.00    +0.000 A 
ENDBRANCH  12  14
ENDBRANCH  11  12
ENDBRANCH   3   5
BRANCH   1  20
ATOM     20  C   UNL     1       1.311   9.685  21.269  0.00  0.00    +0.000 C 
BRANCH  20  21
ATOM     21  C   UNL     1       0.388  10.710  20.547  0.00  0.00    +0.000 C 
ATOM     22  C   UNL     1       0.081  10.292  19.093  0.00  0.00    +0.000 C 
ATOM     23  C   UNL     1       1.279  10.726  18.262  0.00  0.00    +0.000 C 
ATOM     24  C   UNL     1       1.904  11.900  19.002  0.00  0.00    +0.000 C 
ATOM     25  C   UNL     1       1.149  12.041  20.321  0.00  0.00    +0.000 C 
BRANCH  21  26
ATOM     26  C   UNL     1      -0.944  10.964  21.298  0.00  0.00    +0.000 C 
BRANCH  26  28
ATOM     27  O   UNL     1      -0.690  12.419  23.239  0.00  0.00    +0.000 OA
ATOM     28  C   UNL     1      -0.832  11.303  22.768  0.00  0.00    +0.000 C 
BRANCH  28  29
ATOM     29  O   UNL     1      -0.919  10.199  23.551  0.00  0.00    +0.000 OA
ATOM     30  H   UNL     1      -0.053   9.803  23.761  0.00  0.00    +0.000 HD
ENDBRANCH  28  29
ENDBRANCH  26  28
ENDBRANCH  21  26
ENDBRANCH  20  21
ENDBRANCH   1  20
TORSDOF 8
ENDMDL
MODEL 7
REMARK VINA RESULT:      -7.0      2.969      7.319
REMARK  Name = 
REMARK  8 active torsions:
REMARK  status: ('A' for Active; 'I' for Inactive)
REMARK    1  A    between atoms: C_2  and  O_3
REMARK    2  A    between atoms: C_2  and  C_4
REMARK    3  A    between atoms: C_4  and  C_5
REMARK    4  A    between atoms: C_5  and  C_6
REMARK    5  A    between atoms: C_6  and  C_7
REMARK    6  A    between atoms: N_9  and  C_10
REMARK    7  A    between atoms: C_16  and  C_17
REMARK    8  A    between atoms: C_17  and  C_19
REMARK                            x       y       z     vdW  Elec       q    Type
REMARK                         _______ _______ _______ _____ _____    ______ ____
ROOT
ATOM      1  C   UNL     1       1.459   8.745  18.816  0.00  0.00    +0.000 C 
ATOM      2  O   UNL     1       0.780   8.380  17.861  0.00  0.00    +0.000 OA
ATOM      3  N   UNL     1       2.179   7.891  19.636  0.00  0.00    +0.000 N 
ATOM      4  H   UNL     1       2.328   8.220  20.581  0.00  0.00    +0.000 HD
ENDROOT
BRANCH   3   5
ATOM      5  C   UNL     1       2.241   6.490  19.433  0.00  0.00    +0.000 A 
ATOM      6  C   UNL     1       1.469   5.722  20.326  0.00  0.00    +0.000 A 
ATOM      7  C   UNL     1       1.419   4.331  20.215  0.00  0.00    +0.000 A 
ATOM      8  C   UNL     1       2.188   3.689  19.255  0.00  0.00    +0.000 A 
ATOM      9 CL   UNL     1       2.159   1.972  19.140  0.00  0.00    +0.000 Cl
ATOM     10  C   UNL     1       2.999   4.425  18.396  0.00  0.00    +0.000 A 
ATOM     11  C   UNL     1       3.010   5.836  18.447  0.00  0.00    +0.000 A 
BRANCH  11  12
ATOM     12  C   UNL     1       4.001   6.548  17.582  0.00  0.00    +0.000 C 
ATOM     13  O   UNL     1       3.911   7.764  17.432  0.00  0.00    +0.000 OA
BRANCH  12  14
ATOM     14  C   UNL     1       5.187   5.835  17.009  0.00  0.00    +0.000 A 
ATOM     15  C   UNL     1       6.245   5.506  17.869  0.00  0.00    +0.000 A 
ATOM     16  C   UNL     1       7.335   4.770  17.397  0.00  0.00    +0.000 A 
ATOM     17  C   UNL     1       7.380   4.364  16.066  0.00  0.00    +0.000 A 
ATOM     18  C   UNL     1       6.344   4.708  15.197  0.00  0.00    +0.000 A 
ATOM     19  C   UNL     1       5.257   5.455  15.661  0.00  0.00    +0.000 A 
ENDBRANCH  12  14
ENDBRANCH  11  12
ENDBRANCH   3   5
BRANCH   1  20
ATOM     20  C   UNL     1       1.537  10.203  19.294  0.00  0.00    +0.000 C 
BRANCH  20  21
ATOM     21  C   UNL     1       0.344  10.720  20.151  0.00  0.00    +0.000 C 
ATOM     22  C   UNL     1      -0.820  11.232  19.276  0.00  0.00    +0.000 C 
ATOM     23  C   UNL     1      -0.452  12.649  18.862  0.00  0.00    +0.000 C 
ATOM     24  C   UNL     1       0.477  13.178  19.945  0.00  0.00    +0.000 C 
ATOM     25  C   UNL     1       0.750  12.016  20.897  0.00  0.00    +0.000 C 
BRANCH  21  26
ATOM     26  C   UNL     1      -0.193   9.662  21.148  0.00  0.00    +0.000 C 
BRANCH  26  28
ATOM     27  O   UNL     1       0.137   9.961  23.546  0.00  0.00    +0.000 OA
ATOM     28  C   UNL     1       0.537   9.552  22.468  0.00  0.00    +0.000 C 
BRANCH  28  29
ATOM     29  O   UNL     1       1.728   8.917  22.338  0.00  0.00    +0.000 OA
ATOM     30  H   UNL     1       2.438   9.492  21.996  0.00  0.00    +0.000 HD
ENDBRANCH  28  29
ENDBRANCH  26  28
ENDBRANCH  21  26
ENDBRANCH  20  21
ENDBRANCH   1  20
TORSDOF 8
ENDMDL
MODEL 8
REMARK VINA RESULT:      -6.9      3.034      7.283
REMARK  Name = 
REMARK  8 active torsions:
REMARK  status: ('A' for Active; 'I' for Inactive)
REMARK    1  A    between atoms: C_2  and  O_3
REMARK    2  A    between atoms: C_2  and  C_4
REMARK    3  A    between atoms: C_4  and  C_5
REMARK    4  A    between atoms: C_5  and  C_6
REMARK    5  A    between atoms: C_6  and  C_7
REMARK    6  A    between atoms: N_9  and  C_10
REMARK    7  A    between atoms: C_16  and  C_17
REMARK    8  A    between atoms: C_17  and  C_19
REMARK                            x       y       z     vdW  Elec       q    Type
REMARK                         _______ _______ _______ _____ _____    ______ ____
ROOT
ATOM      1  C   UNL     1       1.463   8.872  18.823  0.00  0.00    +0.000 C 
ATOM      2  O   UNL     1       0.774   8.479  17.885  0.00  0.00    +0.000 OA
ATOM      3  N   UNL     1       2.157   8.038  19.686  0.00  0.00    +0.000 N 
ATOM      4  H   UNL     1       2.315   8.410  20.613  0.00  0.00    +0.000 HD
ENDROOT
BRANCH   3   5
ATOM      5  C   UNL     1       2.177   6.628  19.553  0.00  0.00    +0.000 A 
ATOM      6  C   UNL     1       1.379   5.929  20.480  0.00  0.00    +0.000 A 
ATOM      7  C   UNL     1       1.287   4.537  20.438  0.00  0.00    +0.000 A 
ATOM      8  C   UNL     1       2.039   3.824  19.515  0.00  0.00    +0.000 A 
ATOM      9 CL   UNL     1       1.959   2.106  19.486  0.00  0.00    +0.000 Cl
ATOM     10  C   UNL     1       2.875   4.492  18.624  0.00  0.00    +0.000 A 
ATOM     11  C   UNL     1       2.928   5.902  18.605  0.00  0.00    +0.000 A 
BRANCH  11  12
ATOM     12  C   UNL     1       3.943   6.540  17.709  0.00  0.00    +0.000 C 
ATOM     13  O   UNL     1       3.875   7.745  17.478  0.00  0.00    +0.000 OA
BRANCH  12  14
ATOM     14  C   UNL     1       5.126   5.773  17.204  0.00  0.00    +0.000 A 
ATOM     15  C   UNL     1       5.161   5.419  15.848  0.00  0.00    +0.000 A 
ATOM     16  C   UNL     1       6.280   4.774  15.315  0.00  0.00    +0.000 A 
ATOM     17  C   UNL     1       7.367   4.473  16.131  0.00  0.00    +0.000 A 
ATOM     18  C   UNL     1       7.331   4.799  17.487  0.00  0.00    +0.000 A 
ATOM     19  C   UNL     1       6.209   5.433  18.028  0.00  0.00    +0.000 A 
ENDBRANCH  12  14
ENDBRANCH  11  12
ENDBRANCH   3   5
BRANCH   1  20
ATOM     20  C   UNL     1       1.584  10.349  19.227  0.00  0.00    +0.000 C 
BRANCH  20  21
ATOM     21  C   UNL     1       0.391  10.954  20.024  0.00  0.00    +0.000 C 
ATOM     22  C   UNL     1      -0.726  11.471  19.093  0.00  0.00    +0.000 C 
ATOM     23  C   UNL     1      -0.287  12.851  18.627  0.00  0.00    +0.000 C 
ATOM     24  C   UNL     1       0.633  13.392  19.711  0.00  0.00    +0.000 C 
ATOM     25  C   UNL     1       0.830  12.265  20.722  0.00  0.00    +0.000 C 
BRANCH  21  26
ATOM     26  C   UNL     1      -0.217   9.965  21.052  0.00  0.00    +0.000 C 
BRANCH  26  28
ATOM     27  O   UNL     1       1.625   9.348  22.526  0.00  0.00    +0.000 OA
ATOM     28  C   UNL     1       0.516   9.830  22.369  0.00  0.00    +0.000 C 
BRANCH  28  29
ATOM     29  O   UNL     1      -0.206  10.327  23.403  0.00  0.00    +0.000 OA
ATOM     30  H   UNL     1      -0.368   9.676  24.111  0.00  0.00    +0.000 HD
ENDBRANCH  28  29
ENDBRANCH  26  28
ENDBRANCH  21  26
ENDBRANCH  20  21
ENDBRANCH   1  20
TORSDOF 8
ENDMDL
MODEL 9
REMARK VINA RESULT:      -6.9      3.367      7.536
REMARK  Name = 
REMARK  8 active torsions:
REMARK  status: ('A' for Active; 'I' for Inactive)
REMARK    1  A    between atoms: C_2  and  O_3
REMARK    2  A    between atoms: C_2  and  C_4
REMARK    3  A    between atoms: C_4  and  C_5
REMARK    4  A    between atoms: C_5  and  C_6
REMARK    5  A    between atoms: C_6  and  C_7
REMARK    6  A    between atoms: N_9  and  C_10
REMARK    7  A    between atoms: C_16  and  C_17
REMARK    8  A    between atoms: C_17  and  C_19
REMARK                            x       y       z     vdW  Elec       q    Type
REMARK                         _______ _______ _______ _____ _____    ______ ____
ROOT
ATOM      1  C   UNL     1       1.060   8.272  20.974  0.00  0.00    +0.000 C 
ATOM      2  O   UNL     1       0.029   7.707  21.330  0.00  0.00    +0.000 OA
ATOM      3  N   UNL     1       2.115   7.643  20.334  0.00  0.00    +0.000 N 
ATOM      4  H   UNL     1       3.023   8.066  20.476  0.00  0.00    +0.000 HD
ENDROOT
BRANCH   3   5
ATOM      5  C   UNL     1       2.101   6.271  19.981  0.00  0.00    +0.000 A 
ATOM      6  C   UNL     1       1.410   5.430  20.875  0.00  0.00    +0.000 A 
ATOM      7  C   UNL     1       1.296   4.061  20.627  0.00  0.00    +0.000 A 
ATOM      8  C   UNL     1       1.924   3.507  19.520  0.00  0.00    +0.000 A 
ATOM      9 CL   UNL     1       1.818   1.814  19.231  0.00  0.00    +0.000 Cl
ATOM     10  C   UNL     1       2.656   4.312  18.652  0.00  0.00    +0.000 A 
ATOM     11  C   UNL     1       2.725   5.708  18.847  0.00  0.00    +0.000 A 
BRANCH  11  12
ATOM     12  C   UNL     1       3.634   6.484  17.948  0.00  0.00    +0.000 C 
ATOM     13  O   UNL     1       3.401   7.671  17.729  0.00  0.00    +0.000 OA
BRANCH  12  14
ATOM     14  C   UNL     1       4.905   5.888  17.424  0.00  0.00    +0.000 A 
ATOM     15  C   UNL     1       5.015   5.664  16.044  0.00  0.00    +0.000 A 
ATOM     16  C   UNL     1       6.210   5.186  15.501  0.00  0.00    +0.000 A 
ATOM     17  C   UNL     1       7.298   4.923  16.329  0.00  0.00    +0.000 A 
ATOM     18  C   UNL     1       7.190   5.119  17.706  0.00  0.00    +0.000 A 
ATOM     19  C   UNL     1       5.992   5.586  18.256  0.00  0.00    +0.000 A 
ENDBRANCH  12  14
ENDBRANCH  11  12
ENDBRANCH   3   5
BRANCH   1  20
ATOM     20  C   UNL     1       1.364   9.749  21.271  0.00  0.00    +0.000 C 
BRANCH  20  21
ATOM     21  C   UNL     1       0.432  10.801  20.601  0.00  0.00    +0.000 C 
ATOM     22  C   UNL     1       0.166  10.479  19.115  0.00  0.00    +0.000 C 
ATOM     23  C   UNL     1       1.371  10.997  18.344  0.00  0.00    +0.000 C 
ATOM     24  C   UNL     1       1.951  12.130  19.178  0.00  0.00    +0.000 C 
ATOM     25  C   UNL     1       1.165  12.161  20.486  0.00  0.00    +0.000 C 
BRANCH  21  26
ATOM     26  C   UNL     1      -0.921  10.971  21.338  0.00  0.00    +0.000 C 
BRANCH  26  28
ATOM     27  O   UNL     1      -0.646  10.185  23.630  0.00  0.00    +0.000 OA
ATOM     28  C   UNL     1      -0.856  11.094  22.844  0.00  0.00    +0.000 C 
BRANCH  28  29
ATOM     29  O   UNL     1      -1.050  12.371  23.257  0.00  0.00    +0.000 OA
ATOM     30  H   UNL     1      -0.301  12.962  23.056  0.00  0.00    +0.000 HD
ENDBRANCH  28  29
ENDBRANCH  26  28
ENDBRANCH  21  26
ENDBRANCH  20  21
ENDBRANCH   1  20
TORSDOF 8
ENDMDL
