MODEL 1
REMARK VINA RESULT:      -9.2      0.000      0.000
REMARK  Name = 
REMARK  11 active torsions:
REMARK  status: ('A' for Active; 'I' for Inactive)
REMARK    1  A    between atoms: C_1  and  C_2
REMARK    2  A    between atoms: C_2  and  C_3
REMARK    3  A    between atoms: C_2  and  N_17
REMARK    4  A    between atoms: C_6  and  C_7
REMARK    5  A    between atoms: N_10  and  C_11
REMARK    6  A    between atoms: C_20  and  C_21
REMARK    7  A    between atoms: C_20  and  C_26
REMARK    8  A    between atoms: C_21  and  C_22
REMARK    9  A    between atoms: C_22  and  C_23
REMARK   10  A    between atoms: C_22  and  C_24
REMARK   11  A    between atoms: C_22  and  O_25
REMARK                            x       y       z     vdW  Elec       q    Type
REMARK                         _______ _______ _______ _____ _____    ______ ____
ROOT
ATOM      1  N   UNL     1       5.330   4.866  17.900  0.00  0.00    +0.000 N 
ATOM      2  C   UNL     1       4.237   5.006  16.951  0.00  0.00    +0.000 C 
ATOM      3  C   UNL     1       2.944   4.406  17.465  0.00  0.00    +0.000 C 
ATOM      4  C   UNL     1       2.653   4.992  18.851  0.00  0.00    +0.000 C 
ATOM      5  O   UNL     1       3.808   4.705  19.676  0.00  0.00    +0.000 OA
ATOM      6  C   UNL     1       5.094   4.786  19.266  0.00  0.00    +0.000 C 
ATOM      7  O   UNL     1       5.986   4.758  20.106  0.00  0.00    +0.000 OA
ENDROOT
BRANCH   4   8
ATOM      8  C   UNL     1       2.352   6.491  18.807  0.00  0.00    +0.000 A 
ATOM      9  C   UNL     1       2.600   7.261  17.656  0.00  0.00    +0.000 A 
ATOM     10  C   UNL     1       2.476   8.651  17.675  0.00  0.00    +0.000 A 
ATOM     11  C   UNL     1       2.089   9.303  18.843  0.00  0.00    +0.000 A 
ATOM     12  C   UNL     1       1.788   8.560  19.980  0.00  0.00    +0.000 A 
ATOM     13  C   UNL     1       1.908   7.172  19.954  0.00  0.00    +0.000 A 
ATOM     14  F   UNL     1       1.645   6.495  21.080  0.00  0.00    +0.000 F 
ENDBRANCH   4   8
BRANCH   1  16
ATOM     15  C   UNL     1       6.994   4.710  16.020  0.00  0.00    +0.000 C 
ATOM     16  C   UNL     1       6.722   5.104  17.474  0.00  0.00    +0.000 C 
BRANCH  16  17
ATOM     17  C   UNL     1       7.213   6.516  17.772  0.00  0.00    +0.000 A 
ATOM     18  C   UNL     1       6.756   7.631  17.052  0.00  0.00    +0.000 A 
ATOM     19  C   UNL     1       7.265   8.907  17.300  0.00  0.00    +0.000 A 
ATOM     20  C   UNL     1       8.268   9.088  18.254  0.00  0.00    +0.000 A 
ATOM     21  C   UNL     1       8.733   7.987  18.980  0.00  0.00    +0.000 A 
ATOM     22  C   UNL     1       8.199   6.716  18.752  0.00  0.00    +0.000 A 
BRANCH  20  23
ATOM     23  C   UNL     1       8.855  10.418  18.468  0.00  0.00    +0.000 A 
ATOM     24  C   UNL     1       8.470  11.574  17.683  0.00  0.00    +0.000 A 
ATOM     25  C   UNL     1       9.074  12.752  17.872  0.00  0.00    +0.000 A 
ATOM     26  N   UNL     1      10.065  12.897  18.824  0.00  0.00    +0.000 N 
ATOM     27  C   UNL     1      10.747  14.168  18.979  0.00  0.00    +0.000 C 
ATOM     28  C   UNL     1      10.463  11.849  19.650  0.00  0.00    +0.000 A 
ATOM     29  O   UNL     1      11.325  11.938  20.523  0.00  0.00    +0.000 OA
ATOM     30  C   UNL     1       9.792  10.544  19.420  0.00  0.00    +0.000 A 
ENDBRANCH  20  23
ENDBRANCH  16  17
ENDBRANCH   1  16
BRANCH   4  31
ATOM     31  C   UNL     1       1.477   4.209  19.514  0.00  0.00    +0.000 C 
BRANCH  31  32
ATOM     32  C   UNL     1       1.679   2.720  19.931  0.00  0.00    +0.000 C 
ATOM     33  C   UNL     1       1.664   2.475  21.443  0.00  0.00    +0.000 C 
ATOM     34  C   UNL     1       0.727   1.736  19.245  0.00  0.00    +0.000 C 
BRANCH  32  35
ATOM     35  O   UNL     1       2.986   2.349  19.453  0.00  0.00    +0.000 OA
ATOM     36  H   UNL     1       3.111   1.400  19.626  0.00  0.00    +0.000 HD
ENDBRANCH  32  35
ENDBRANCH  31  32
ENDBRANCH   4  31
TORSDOF 7
ENDMDL
MODEL 2
REMARK VINA RESULT:      -9.1      0.674      1.194
REMARK  Name = 
REMARK  11 active torsions:
REMARK  status: ('A' for Active; 'I' for Inactive)
REMARK    1  A    between atoms: C_1  and  C_2
REMARK    2  A    between atoms: C_2  and  C_3
REMARK    3  A    between atoms: C_2  and  N_17
REMARK    4  A    between atoms: C_6  and  C_7
REMARK    5  A    between atoms: N_10  and  C_11
REMARK    6  A    between atoms: C_20  and  C_21
REMARK    7  A    between atoms: C_20  and  C_26
REMARK    8  A    between atoms: C_21  and  C_22
REMARK    9  A    between atoms: C_22  and  C_23
REMARK   10  A    between atoms: C_22  and  C_24
REMARK   11  A    between atoms: C_22  and  O_25
REMARK                            x       y       z     vdW  Elec       q    Type
REMARK                         _______ _______ _______ _____ _____    ______ ____
ROOT
ATOM      1  N   UNL     1       5.088   4.635  17.973  0.00  0.00    +0.000 N 
ATOM      2  C   UNL     1       3.970   4.784  17.056  0.00  0.00    +0.000 C 
ATOM      3  C   UNL     1       2.660   4.321  17.661  0.00  0.00    +0.000 C 
ATOM      4  C   UNL     1       2.469   5.031  19.007  0.00  0.00    +0.000 C 
ATOM      5  O   UNL     1       3.633   4.723  19.810  0.00  0.00    +0.000 OA
ATOM      6  C   UNL     1       4.904   4.677  19.349  0.00  0.00    +0.000 C 
ATOM      7  O   UNL     1       5.826   4.647  20.156  0.00  0.00    +0.000 OA
ENDROOT
BRANCH   4   8
ATOM      8  C   UNL     1       2.273   6.541  18.856  0.00  0.00    +0.000 A 
ATOM      9  C   UNL     1       2.601   7.212  17.664  0.00  0.00    +0.000 A 
ATOM     10  C   UNL     1       2.574   8.606  17.588  0.00  0.00    +0.000 A 
ATOM     11  C   UNL     1       2.206   9.360  18.698  0.00  0.00    +0.000 A 
ATOM     12  C   UNL     1       1.827   8.718  19.874  0.00  0.00    +0.000 A 
ATOM     13  C   UNL     1       1.851   7.326  19.942  0.00  0.00    +0.000 A 
ATOM     14  F   UNL     1       1.515   6.746  21.103  0.00  0.00    +0.000 F 
ENDBRANCH   4   8
BRANCH   1  16
ATOM     15  C   UNL     1       6.648   4.263  16.035  0.00  0.00    +0.000 C 
ATOM     16  C   UNL     1       6.475   4.736  17.481  0.00  0.00    +0.000 C 
BRANCH  16  17
ATOM     17  C   UNL     1       7.095   6.112  17.697  0.00  0.00    +0.000 A 
ATOM     18  C   UNL     1       8.078   6.342  18.672  0.00  0.00    +0.000 A 
ATOM     19  C   UNL     1       8.587   7.623  18.894  0.00  0.00    +0.000 A 
ATOM     20  C   UNL     1       8.097   8.707  18.164  0.00  0.00    +0.000 A 
ATOM     21  C   UNL     1       7.118   8.494  17.188  0.00  0.00    +0.000 A 
ATOM     22  C   UNL     1       6.634   7.206  16.946  0.00  0.00    +0.000 A 
BRANCH  20  23
ATOM     23  C   UNL     1       8.580  10.067  18.443  0.00  0.00    +0.000 A 
ATOM     24  C   UNL     1       8.245  11.199  17.604  0.00  0.00    +0.000 A 
ATOM     25  C   UNL     1       8.757  12.408  17.863  0.00  0.00    +0.000 A 
ATOM     26  N   UNL     1       9.601  12.606  18.938  0.00  0.00    +0.000 N 
ATOM     27  C   UNL     1      10.190  13.911  19.173  0.00  0.00    +0.000 C 
ATOM     28  C   UNL     1       9.939  11.581  19.819  0.00  0.00    +0.000 A 
ATOM     29  O   UNL     1      10.669  11.716  20.799  0.00  0.00    +0.000 OA
ATOM     30  C   UNL     1       9.373  10.242  19.512  0.00  0.00    +0.000 A 
ENDBRANCH  20  23
ENDBRANCH  16  17
ENDBRANCH   1  16
BRANCH   4  31
ATOM     31  C   UNL     1       1.269   4.390  19.772  0.00  0.00    +0.000 C 
BRANCH  31  32
ATOM     32  C   UNL     1       1.288   2.866  20.100  0.00  0.00    +0.000 C 
ATOM     33  C   UNL     1       2.261   2.044  19.248  0.00  0.00    +0.000 C 
ATOM     34  C   UNL     1       1.506   2.540  21.580  0.00  0.00    +0.000 C 
BRANCH  32  35
ATOM     35  O   UNL     1      -0.039   2.382  19.816  0.00  0.00    +0.000 OA
ATOM     36  H   UNL     1      -0.543   3.109  19.412  0.00  0.00    +0.000 HD
ENDBRANCH  32  35
ENDBRANCH  31  32
ENDBRANCH   4  31
TORSDOF 7
ENDMDL
MODEL 3
REMARK VINA RESULT:      -9.0      0.920      1.305
REMARK  Name = 
REMARK  11 active torsions:
REMARK  status: ('A' for Active; 'I' for Inactive)
REMARK    1  A    between atoms: C_1  and  C_2
REMARK    2  A    between atoms: C_2  and  C_3
REMARK    3  A    between atoms: C_2  and  N_17
REMARK    4  A    between atoms: C_6  and  C_7
REMARK    5  A    between atoms: N_10  and  C_11
REMARK    6  A    between atoms: C_20  and  C_21
REMARK    7  A    between atoms: C_20  and  C_26
REMARK    8  A    between atoms: C_21  and  C_22
REMARK    9  A    between atoms: C_22  and  C_23
REMARK   10  A    between atoms: C_22  and  C_24
REMARK   11  A    between atoms: C_22  and  O_25
REMARK                            x       y       z     vdW  Elec       q    Type
REMARK                         _______ _______ _______ _____ _____    ______ ____
ROOT
ATOM      1  N   UNL     1       5.276   4.915  17.813  0.00  0.00    +0.000 N 
ATOM      2  C   UNL     1       4.164   5.059  16.886  0.00  0.00    +0.000 C 
ATOM      3  C   UNL     1       2.878   4.469  17.428  0.00  0.00    +0.000 C 
ATOM      4  C   UNL     1       2.620   5.062  18.818  0.00  0.00    +0.000 C 
ATOM      5  O   UNL     1       3.789   4.771  19.620  0.00  0.00    +0.000 OA
ATOM      6  C   UNL     1       5.067   4.842  19.184  0.00  0.00    +0.000 C 
ATOM      7  O   UNL     1       5.976   4.811  20.006  0.00  0.00    +0.000 OA
ENDROOT
BRANCH   4   8
ATOM      8  C   UNL     1       2.327   6.563  18.774  0.00  0.00    +0.000 A 
ATOM      9  C   UNL     1       2.557   7.327  17.616  0.00  0.00    +0.000 A 
ATOM     10  C   UNL     1       2.442   8.718  17.632  0.00  0.00    +0.000 A 
ATOM     11  C   UNL     1       2.083   9.377  18.805  0.00  0.00    +0.000 A 
ATOM     12  C   UNL     1       1.800   8.640  19.951  0.00  0.00    +0.000 A 
ATOM     13  C   UNL     1       1.911   7.250  19.927  0.00  0.00    +0.000 A 
ATOM     14  F   UNL     1       1.666   6.579  21.061  0.00  0.00    +0.000 F 
ENDBRANCH   4   8
BRANCH   1  16
ATOM     15  C   UNL     1       6.862   4.898  15.860  0.00  0.00    +0.000 C 
ATOM     16  C   UNL     1       6.661   5.142  17.358  0.00  0.00    +0.000 C 
BRANCH  16  17
ATOM     17  C   UNL     1       7.223   6.494  17.785  0.00  0.00    +0.000 A 
ATOM     18  C   UNL     1       6.888   7.684  17.121  0.00  0.00    +0.000 A 
ATOM     19  C   UNL     1       7.463   8.902  17.489  0.00  0.00    +0.000 A 
ATOM     20  C   UNL     1       8.412   8.946  18.512  0.00  0.00    +0.000 A 
ATOM     21  C   UNL     1       8.756   7.769  19.184  0.00  0.00    +0.000 A 
ATOM     22  C   UNL     1       8.155   6.557  18.834  0.00  0.00    +0.000 A 
BRANCH  20  23
ATOM     23  C   UNL     1       9.071  10.214  18.855  0.00  0.00    +0.000 A 
ATOM     24  C   UNL     1       9.315  10.618  20.226  0.00  0.00    +0.000 A 
ATOM     25  C   UNL     1       9.864  11.809  20.492  0.00  0.00    +0.000 A 
ATOM     26  N   UNL     1      10.220  12.671  19.474  0.00  0.00    +0.000 N 
ATOM     27  C   UNL     1      10.763  13.980  19.783  0.00  0.00    +0.000 C 
ATOM     28  C   UNL     1      10.059  12.342  18.130  0.00  0.00    +0.000 A 
ATOM     29  O   UNL     1      10.380  13.069  17.191  0.00  0.00    +0.000 OA
ATOM     30  C   UNL     1       9.438  11.023  17.849  0.00  0.00    +0.000 A 
ENDBRANCH  20  23
ENDBRANCH  16  17
ENDBRANCH   1  16
BRANCH   4  31
ATOM     31  C   UNL     1       1.452   4.289  19.508  0.00  0.00    +0.000 C 
BRANCH  31  32
ATOM     32  C   UNL     1       1.697   2.850  20.055  0.00  0.00    +0.000 C 
ATOM     33  C   UNL     1       2.488   1.937  19.114  0.00  0.00    +0.000 C 
ATOM     34  C   UNL     1       2.319   2.803  21.454  0.00  0.00    +0.000 C 
BRANCH  32  35
ATOM     35  O   UNL     1       0.393   2.262  20.222  0.00  0.00    +0.000 OA
ATOM     36  H   UNL     1       0.508   1.385  20.624  0.00  0.00    +0.000 HD
ENDBRANCH  32  35
ENDBRANCH  31  32
ENDBRANCH   4  31
TORSDOF 7
ENDMDL
MODEL 4
REMARK VINA RESULT:      -7.9      0.960      1.376
REMARK  Name = 
REMARK  11 active torsions:
REMARK  status: ('A' for Active; 'I' for Inactive)
REMARK    1  A    between atoms: C_1  and  C_2
REMARK    2  A    between atoms: C_2  and  C_3
REMARK    3  A    between atoms: C_2  and  N_17
REMARK    4  A    between atoms: C_6  and  C_7
REMARK    5  A    between atoms: N_10  and  C_11
REMARK    6  A    between atoms: C_20  and  C_21
REMARK    7  A    between atoms: C_20  and  C_26
REMARK    8  A    between atoms: C_21  and  C_22
REMARK    9  A    between atoms: C_22  and  C_23
REMARK   10  A    between atoms: C_22  and  C_24
REMARK   11  A    between atoms: C_22  and  O_25
REMARK                            x       y       z     vdW  Elec       q    Type
REMARK                         _______ _______ _______ _____ _____    ______ ____
ROOT
ATOM      1  N   UNL     1       5.256   4.875  17.974  0.00  0.00    +0.000 N 
ATOM      2  C   UNL     1       4.195   5.219  17.041  0.00  0.00    +0.000 C 
ATOM      3  C   UNL     1       2.852   4.655  17.457  0.00  0.00    +0.000 C 
ATOM      4  C   UNL     1       2.577   5.075  18.906  0.00  0.00    +0.000 C 
ATOM      5  O   UNL     1       3.691   4.598  19.697  0.00  0.00    +0.000 OA
ATOM      6  C   UNL     1       4.988   4.636  19.315  0.00  0.00    +0.000 C 
ATOM      7  O   UNL     1       5.859   4.432  20.153  0.00  0.00    +0.000 OA
ENDROOT
BRANCH   4   8
ATOM      8  C   UNL     1       2.386   6.586  19.056  0.00  0.00    +0.000 A 
ATOM      9  C   UNL     1       1.889   7.153  20.244  0.00  0.00    +0.000 A 
ATOM     10  C   UNL     1       1.566   8.509  20.317  0.00  0.00    +0.000 A 
ATOM     11  C   UNL     1       1.743   9.332  19.209  0.00  0.00    +0.000 A 
ATOM     12  C   UNL     1       2.281   8.805  18.038  0.00  0.00    +0.000 A 
ATOM     13  C   UNL     1       2.608   7.452  17.972  0.00  0.00    +0.000 A 
ATOM     14  F   UNL     1       3.089   6.975  16.816  0.00  0.00    +0.000 F 
ENDBRANCH   4   8
BRANCH   1  16
ATOM     15  C   UNL     1       6.988   4.615  16.168  0.00  0.00    +0.000 C 
ATOM     16  C   UNL     1       6.670   5.062  17.597  0.00  0.00    +0.000 C 
BRANCH  16  17
ATOM     17  C   UNL     1       7.188   6.470  17.870  0.00  0.00    +0.000 A 
ATOM     18  C   UNL     1       6.750   7.581  17.133  0.00  0.00    +0.000 A 
ATOM     19  C   UNL     1       7.284   8.852  17.359  0.00  0.00    +0.000 A 
ATOM     20  C   UNL     1       8.292   9.029  18.308  0.00  0.00    +0.000 A 
ATOM     21  C   UNL     1       8.739   7.931  19.051  0.00  0.00    +0.000 A 
ATOM     22  C   UNL     1       8.181   6.667  18.845  0.00  0.00    +0.000 A 
BRANCH  20  23
ATOM     23  C   UNL     1       8.905  10.351  18.499  0.00  0.00    +0.000 A 
ATOM     24  C   UNL     1       8.617  11.474  17.629  0.00  0.00    +0.000 A 
ATOM     25  C   UNL     1       9.244  12.643  17.804  0.00  0.00    +0.000 A 
ATOM     26  N   UNL     1      10.164  12.810  18.821  0.00  0.00    +0.000 N 
ATOM     27  C   UNL     1      10.874  14.067  18.962  0.00  0.00    +0.000 C 
ATOM     28  C   UNL     1      10.466  11.795  19.726  0.00  0.00    +0.000 A 
ATOM     29  O   UNL     1      11.263  11.906  20.656  0.00  0.00    +0.000 OA
ATOM     30  C   UNL     1       9.772  10.500  19.512  0.00  0.00    +0.000 A 
ENDBRANCH  20  23
ENDBRANCH  16  17
ENDBRANCH   1  16
BRANCH   4  31
ATOM     31  C   UNL     1       1.335   4.302  19.448  0.00  0.00    +0.000 C 
BRANCH  31  32
ATOM     32  C   UNL     1       1.471   2.799  19.841  0.00  0.00    +0.000 C 
ATOM     33  C   UNL     1       2.438   1.998  18.963  0.00  0.00    +0.000 C 
ATOM     34  C   UNL     1       1.803   2.558  21.316  0.00  0.00    +0.000 C 
BRANCH  32  35
ATOM     35  O   UNL     1       0.163   2.224  19.667  0.00  0.00    +0.000 OA
ATOM     36  H   UNL     1      -0.107   1.831  20.514  0.00  0.00    +0.000 HD
ENDBRANCH  32  35
ENDBRANCH  31  32
ENDBRANCH   4  31
TORSDOF 7
ENDMDL
MODEL 5
REMARK VINA RESULT:      -7.8      1.138      1.563
REMARK  Name = 
REMARK  11 active torsions:
REMARK  status: ('A' for Active; 'I' for Inactive)
REMARK    1  A    between atoms: C_1  and  C_2
REMARK    2  A    between atoms: C_2  and  C_3
REMARK    3  A    between atoms: C_2  and  N_17
REMARK    4  A    between atoms: C_6  and  C_7
REMARK    5  A    between atoms: N_10  and  C_11
REMARK    6  A    between atoms: C_20  and  C_21
REMARK    7  A    between atoms: C_20  and  C_26
REMARK    8  A    between atoms: C_21  and  C_22
REMARK    9  A    between atoms: C_22  and  C_23
REMARK   10  A    between atoms: C_22  and  C_24
REMARK   11  A    between atoms: C_22  and  O_25
REMARK                            x       y       z     vdW  Elec       q    Type
REMARK                         _______ _______ _______ _____ _____    ______ ____
ROOT
ATOM      1  N   UNL     1       5.333   5.214  17.899  0.00  0.00    +0.000 N 
ATOM      2  C   UNL     1       4.161   5.380  17.054  0.00  0.00    +0.000 C 
ATOM      3  C   UNL     1       2.912   4.786  17.673  0.00  0.00    +0.000 C 
ATOM      4  C   UNL     1       2.754   5.354  19.088  0.00  0.00    +0.000 C 
ATOM      5  O   UNL     1       3.974   5.044  19.802  0.00  0.00    +0.000 OA
ATOM      6  C   UNL     1       5.219   5.116  19.279  0.00  0.00    +0.000 C 
ATOM      7  O   UNL     1       6.183   5.067  20.036  0.00  0.00    +0.000 OA
ENDROOT
BRANCH   4   8
ATOM      8  C   UNL     1       2.468   6.858  19.091  0.00  0.00    +0.000 A 
ATOM      9  C   UNL     1       1.853   7.490  20.187  0.00  0.00    +0.000 A 
ATOM     10  C   UNL     1       1.450   8.825  20.119  0.00  0.00    +0.000 A 
ATOM     11  C   UNL     1       1.662   9.561  18.957  0.00  0.00    +0.000 A 
ATOM     12  C   UNL     1       2.314   8.973  17.877  0.00  0.00    +0.000 A 
ATOM     13  C   UNL     1       2.720   7.642  17.953  0.00  0.00    +0.000 A 
ATOM     14  F   UNL     1       3.311   7.101  16.879  0.00  0.00    +0.000 F 
ENDBRANCH   4   8
BRANCH   1  16
ATOM     15  C   UNL     1       6.775   5.244  15.838  0.00  0.00    +0.000 C 
ATOM     16  C   UNL     1       6.685   5.442  17.353  0.00  0.00    +0.000 C 
BRANCH  16  17
ATOM     17  C   UNL     1       7.292   6.774  17.780  0.00  0.00    +0.000 A 
ATOM     18  C   UNL     1       6.997   7.975  17.116  0.00  0.00    +0.000 A 
ATOM     19  C   UNL     1       7.612   9.173  17.485  0.00  0.00    +0.000 A 
ATOM     20  C   UNL     1       8.561   9.186  18.509  0.00  0.00    +0.000 A 
ATOM     21  C   UNL     1       8.866   7.998  19.180  0.00  0.00    +0.000 A 
ATOM     22  C   UNL     1       8.225   6.806  18.830  0.00  0.00    +0.000 A 
BRANCH  20  23
ATOM     23  C   UNL     1       9.262  10.431  18.852  0.00  0.00    +0.000 A 
ATOM     24  C   UNL     1       9.498  10.838  20.223  0.00  0.00    +0.000 A 
ATOM     25  C   UNL     1      10.086  12.010  20.489  0.00  0.00    +0.000 A 
ATOM     26  N   UNL     1      10.493  12.848  19.469  0.00  0.00    +0.000 N 
ATOM     27  C   UNL     1      11.080  14.139  19.776  0.00  0.00    +0.000 C 
ATOM     28  C   UNL     1      10.342  12.513  18.126  0.00  0.00    +0.000 A 
ATOM     29  O   UNL     1      10.707  13.219  17.187  0.00  0.00    +0.000 OA
ATOM     30  C   UNL     1       9.676  11.215  17.845  0.00  0.00    +0.000 A 
ENDBRANCH  20  23
ENDBRANCH  16  17
ENDBRANCH   1  16
BRANCH   4  31
ATOM     31  C   UNL     1       1.632   4.575  19.844  0.00  0.00    +0.000 C 
BRANCH  31  32
ATOM     32  C   UNL     1       1.728   3.025  19.979  0.00  0.00    +0.000 C 
ATOM     33  C   UNL     1       1.367   2.484  21.366  0.00  0.00    +0.000 C 
ATOM     34  C   UNL     1       0.953   2.247  18.912  0.00  0.00    +0.000 C 
BRANCH  32  35
ATOM     35  O   UNL     1       3.108   2.690  19.737  0.00  0.00    +0.000 OA
ATOM     36  H   UNL     1       3.649   3.462  19.973  0.00  0.00    +0.000 HD
ENDBRANCH  32  35
ENDBRANCH  31  32
ENDBRANCH   4  31
TORSDOF 7
ENDMDL
MODEL 6
REMARK VINA RESULT:      -7.8      5.757      9.630
REMARK  Name = 
REMARK  11 active torsions:
REMARK  status: ('A' for Active; 'I' for Inactive)
REMARK    1  A    between atoms: C_1  and  C_2
REMARK    2  A    between atoms: C_2  and  C_3
REMARK    3  A    between atoms: C_2  and  N_17
REMARK    4  A    between atoms: C_6  and  C_7
REMARK    5  A    between atoms: N_10  and  C_11
REMARK    6  A    between atoms: C_20  and  C_21
REMARK    7  A    between atoms: C_20  and  C_26
REMARK    8  A    between atoms: C_21  and  C_22
REMARK    9  A    between atoms: C_22  and  C_23
REMARK   10  A    between atoms: C_22  and  C_24
REMARK   11  A    between atoms: C_22  and  O_25
REMARK                            x       y       z     vdW  Elec       q    Type
REMARK                         _______ _______ _______ _____ _____    ______ ____
ROOT
ATOM      1  N   UNL     1      -0.648  12.509  20.008  0.00  0.00    +0.000 N 
ATOM      2  C   UNL     1      -0.839  13.525  18.986  0.00  0.00    +0.000 C 
ATOM      3  C   UNL     1      -0.652  14.929  19.524  0.00  0.00    +0.000 C 
ATOM      4  C   UNL     1       0.703  15.000  20.236  0.00  0.00    +0.000 C 
ATOM      5  O   UNL     1       0.694  13.972  21.255  0.00  0.00    +0.000 OA
ATOM      6  C   UNL     1       0.180  12.731  21.101  0.00  0.00    +0.000 C 
ATOM      7  O   UNL     1       0.441  11.874  21.937  0.00  0.00    +0.000 OA
ENDROOT
BRANCH   4   8
ATOM      8  C   UNL     1       1.884  14.830  19.277  0.00  0.00    +0.000 A 
ATOM      9  C   UNL     1       2.710  13.693  19.317  0.00  0.00    +0.000 A 
ATOM     10  C   UNL     1       3.876  13.619  18.553  0.00  0.00    +0.000 A 
ATOM     11  C   UNL     1       4.236  14.676  17.721  0.00  0.00    +0.000 A 
ATOM     12  C   UNL     1       3.408  15.791  17.625  0.00  0.00    +0.000 A 
ATOM     13  C   UNL     1       2.242  15.856  18.386  0.00  0.00    +0.000 A 
ATOM     14  F   UNL     1       1.491  16.962  18.293  0.00  0.00    +0.000 F 
ENDBRANCH   4   8
BRANCH   1  16
ATOM     15  C   UNL     1      -2.223  10.998  18.756  0.00  0.00    +0.000 C 
ATOM     16  C   UNL     1      -1.081  11.119  19.769  0.00  0.00    +0.000 C 
BRANCH  16  17
ATOM     17  C   UNL     1       0.069  10.177  19.429  0.00  0.00    +0.000 A 
ATOM     18  C   UNL     1       0.701  10.195  18.175  0.00  0.00    +0.000 A 
ATOM     19  C   UNL     1       1.711   9.282  17.865  0.00  0.00    +0.000 A 
ATOM     20  C   UNL     1       2.087   8.310  18.794  0.00  0.00    +0.000 A 
ATOM     21  C   UNL     1       1.467   8.281  20.047  0.00  0.00    +0.000 A 
ATOM     22  C   UNL     1       0.479   9.216  20.367  0.00  0.00    +0.000 A 
BRANCH  20  23
ATOM     23  C   UNL     1       3.100   7.305  18.444  0.00  0.00    +0.000 A 
ATOM     24  C   UNL     1       3.375   6.154  19.282  0.00  0.00    +0.000 A 
ATOM     25  C   UNL     1       4.348   5.297  18.954  0.00  0.00    +0.000 A 
ATOM     26  N   UNL     1       5.100   5.479  17.809  0.00  0.00    +0.000 N 
ATOM     27  C   UNL     1       6.186   4.570  17.498  0.00  0.00    +0.000 C 
ATOM     28  C   UNL     1       4.871   6.533  16.929  0.00  0.00    +0.000 A 
ATOM     29  O   UNL     1       5.501   6.723  15.890  0.00  0.00    +0.000 OA
ATOM     30  C   UNL     1       3.796   7.484  17.312  0.00  0.00    +0.000 A 
ENDBRANCH  20  23
ENDBRANCH  16  17
ENDBRANCH   1  16
BRANCH   4  31
ATOM     31  C   UNL     1       0.814  16.346  21.019  0.00  0.00    +0.000 C 
BRANCH  31  32
ATOM     32  C   UNL     1       1.642  16.405  22.338  0.00  0.00    +0.000 C 
ATOM     33  C   UNL     1       3.029  15.762  22.248  0.00  0.00    +0.000 C 
ATOM     34  C   UNL     1       1.767  17.805  22.945  0.00  0.00    +0.000 C 
BRANCH  32  35
ATOM     35  O   UNL     1       0.888  15.657  23.312  0.00  0.00    +0.000 OA
ATOM     36  H   UNL     1       0.065  15.359  22.890  0.00  0.00    +0.000 HD
ENDBRANCH  32  35
ENDBRANCH  31  32
ENDBRANCH   4  31
TORSDOF 7
ENDMDL
MODEL 7
REMARK VINA RESULT:      -7.8      0.837      1.422
REMARK  Name = 
REMARK  11 active torsions:
REMARK  status: ('A' for Active; 'I' for Inactive)
REMARK    1  A    between atoms: C_1  and  C_2
REMARK    2  A    between atoms: C_2  and  C_3
REMARK    3  A    between atoms: C_2  and  N_17
REMARK    4  A    between atoms: C_6  and  C_7
REMARK    5  A    between atoms: N_10  and  C_11
REMARK    6  A    between atoms: C_20  and  C_21
REMARK    7  A    between atoms: C_20  and  C_26
REMARK    8  A    between atoms: C_21  and  C_22
REMARK    9  A    between atoms: C_22  and  C_23
REMARK   10  A    between atoms: C_22  and  C_24
REMARK   11  A    between atoms: C_22  and  O_25
REMARK                            x       y       z     vdW  Elec       q    Type
REMARK                         _______ _______ _______ _____ _____    ______ ____
ROOT
ATOM      1  N   UNL     1       5.346   4.785  17.975  0.00  0.00    +0.000 N 
ATOM      2  C   UNL     1       4.233   5.018  17.068  0.00  0.00    +0.000 C 
ATOM      3  C   UNL     1       2.918   4.514  17.625  0.00  0.00    +0.000 C 
ATOM      4  C   UNL     1       2.723   5.106  19.026  0.00  0.00    +0.000 C 
ATOM      5  O   UNL     1       3.882   4.724  19.805  0.00  0.00    +0.000 OA
ATOM      6  C   UNL     1       5.154   4.710  19.348  0.00  0.00    +0.000 C 
ATOM      7  O   UNL     1       6.072   4.605  20.154  0.00  0.00    +0.000 OA
ENDROOT
BRANCH   4   8
ATOM      8  C   UNL     1       2.537   6.625  19.003  0.00  0.00    +0.000 A 
ATOM      9  C   UNL     1       1.973   7.316  20.091  0.00  0.00    +0.000 A 
ATOM     10  C   UNL     1       1.657   8.672  20.001  0.00  0.00    +0.000 A 
ATOM     11  C   UNL     1       1.910   9.373  18.825  0.00  0.00    +0.000 A 
ATOM     12  C   UNL     1       2.514   8.724  17.752  0.00  0.00    +0.000 A 
ATOM     13  C   UNL     1       2.832   7.371  17.850  0.00  0.00    +0.000 A 
ATOM     14  F   UNL     1       3.380   6.773  16.782  0.00  0.00    +0.000 F 
ENDBRANCH   4   8
BRANCH   1  16
ATOM     15  C   UNL     1       6.933   4.476  16.047  0.00  0.00    +0.000 C 
ATOM     16  C   UNL     1       6.736   4.919  17.500  0.00  0.00    +0.000 C 
BRANCH  16  17
ATOM     17  C   UNL     1       7.329   6.302  17.747  0.00  0.00    +0.000 A 
ATOM     18  C   UNL     1       8.228   6.551  18.795  0.00  0.00    +0.000 A 
ATOM     19  C   UNL     1       8.710   7.838  19.041  0.00  0.00    +0.000 A 
ATOM     20  C   UNL     1       8.275   8.910  18.260  0.00  0.00    +0.000 A 
ATOM     21  C   UNL     1       7.379   8.678  17.211  0.00  0.00    +0.000 A 
ATOM     22  C   UNL     1       6.923   7.384  16.947  0.00  0.00    +0.000 A 
BRANCH  20  23
ATOM     23  C   UNL     1       8.726  10.276  18.560  0.00  0.00    +0.000 A 
ATOM     24  C   UNL     1       8.376  11.411  17.729  0.00  0.00    +0.000 A 
ATOM     25  C   UNL     1       8.860  12.627  18.007  0.00  0.00    +0.000 A 
ATOM     26  N   UNL     1       9.687  12.831  19.095  0.00  0.00    +0.000 N 
ATOM     27  C   UNL     1      10.246  14.145  19.350  0.00  0.00    +0.000 C 
ATOM     28  C   UNL     1      10.037  11.803  19.967  0.00  0.00    +0.000 A 
ATOM     29  O   UNL     1      10.753  11.943  20.957  0.00  0.00    +0.000 OA
ATOM     30  C   UNL     1       9.503  10.456  19.639  0.00  0.00    +0.000 A 
ENDBRANCH  20  23
ENDBRANCH  16  17
ENDBRANCH   1  16
BRANCH   4  31
ATOM     31  C   UNL     1       1.515   4.409  19.726  0.00  0.00    +0.000 C 
BRANCH  31  32
ATOM     32  C   UNL     1       1.573   2.880  20.024  0.00  0.00    +0.000 C 
ATOM     33  C   UNL     1       1.468   2.516  21.508  0.00  0.00    +0.000 C 
ATOM     34  C   UNL     1       0.575   2.040  19.221  0.00  0.00    +0.000 C 
BRANCH  32  35
ATOM     35  O   UNL     1       2.865   2.436  19.567  0.00  0.00    +0.000 OA
ATOM     36  H   UNL     1       2.833   2.363  18.599  0.00  0.00    +0.000 HD
ENDBRANCH  32  35
ENDBRANCH  31  32
ENDBRANCH   4  31
TORSDOF 7
ENDMDL
MODEL 8
REMARK VINA RESULT:      -7.6      5.718      9.685
REMARK  Name = 
REMARK  11 active torsions:
REMARK  status: ('A' for Active; 'I' for Inactive)
REMARK    1  A    between atoms: C_1  and  C_2
REMARK    2  A    between atoms: C_2  and  C_3
REMARK    3  A    between atoms: C_2  and  N_17
REMARK    4  A    between atoms: C_6  and  C_7
REMARK    5  A    between atoms: N_10  and  C_11
REMARK    6  A    between atoms: C_20  and  C_21
REMARK    7  A    between atoms: C_20  and  C_26
REMARK    8  A    between atoms: C_21  and  C_22
REMARK    9  A    between atoms: C_22  and  C_23
REMARK   10  A    between atoms: C_22  and  C_24
REMARK   11  A    between atoms: C_22  and  O_25
REMARK                            x       y       z     vdW  Elec       q    Type
REMARK                         _______ _______ _______ _____ _____    ______ ____
ROOT
ATOM      1  N   UNL     1      -0.685  12.500  19.998  0.00  0.00    +0.000 N 
ATOM      2  C   UNL     1      -0.876  13.519  18.978  0.00  0.00    +0.000 C 
ATOM      3  C   UNL     1      -0.695  14.922  19.520  0.00  0.00    +0.000 C 
ATOM      4  C   UNL     1       0.658  14.995  20.237  0.00  0.00    +0.000 C 
ATOM      5  O   UNL     1       0.648  13.964  21.253  0.00  0.00    +0.000 OA
ATOM      6  C   UNL     1       0.137  12.722  21.094  0.00  0.00    +0.000 C 
ATOM      7  O   UNL     1       0.398  11.863  21.929  0.00  0.00    +0.000 OA
ENDROOT
BRANCH   4   8
ATOM      8  C   UNL     1       1.842  14.831  19.282  0.00  0.00    +0.000 A 
ATOM      9  C   UNL     1       2.698  13.716  19.350  0.00  0.00    +0.000 A 
ATOM     10  C   UNL     1       3.865  13.652  18.588  0.00  0.00    +0.000 A 
ATOM     11  C   UNL     1       4.199  14.697  17.730  0.00  0.00    +0.000 A 
ATOM     12  C   UNL     1       3.343  15.788  17.607  0.00  0.00    +0.000 A 
ATOM     13  C   UNL     1       2.175  15.843  18.366  0.00  0.00    +0.000 A 
ATOM     14  F   UNL     1       1.396  16.927  18.246  0.00  0.00    +0.000 F 
ENDBRANCH   4   8
BRANCH   1  16
ATOM     15  C   UNL     1      -2.253  10.989  18.737  0.00  0.00    +0.000 C 
ATOM     16  C   UNL     1      -1.113  11.110  19.753  0.00  0.00    +0.000 C 
BRANCH  16  17
ATOM     17  C   UNL     1       0.040  10.173  19.412  0.00  0.00    +0.000 A 
ATOM     18  C   UNL     1       0.678  10.199  18.161  0.00  0.00    +0.000 A 
ATOM     19  C   UNL     1       1.691   9.290  17.850  0.00  0.00    +0.000 A 
ATOM     20  C   UNL     1       2.065   8.314  18.775  0.00  0.00    +0.000 A 
ATOM     21  C   UNL     1       1.440   8.276  20.026  0.00  0.00    +0.000 A 
ATOM     22  C   UNL     1       0.448   9.207  20.347  0.00  0.00    +0.000 A 
BRANCH  20  23
ATOM     23  C   UNL     1       3.082   7.313  18.424  0.00  0.00    +0.000 A 
ATOM     24  C   UNL     1       3.979   7.477  17.298  0.00  0.00    +0.000 A 
ATOM     25  C   UNL     1       4.848   6.511  16.980  0.00  0.00    +0.000 A 
ATOM     26  N   UNL     1       4.921   5.348  17.721  0.00  0.00    +0.000 N 
ATOM     27  C   UNL     1       5.832   4.289  17.329  0.00  0.00    +0.000 C 
ATOM     28  C   UNL     1       4.125   5.130  18.843  0.00  0.00    +0.000 A 
ATOM     29  O   UNL     1       4.170   4.120  19.543  0.00  0.00    +0.000 OA
ATOM     30  C   UNL     1       3.156   6.205  19.177  0.00  0.00    +0.000 A 
ENDBRANCH  20  23
ENDBRANCH  16  17
ENDBRANCH   1  16
BRANCH   4  31
ATOM     31  C   UNL     1       0.762  16.339  21.024  0.00  0.00    +0.000 C 
BRANCH  31  32
ATOM     32  C   UNL     1       1.587  16.397  22.346  0.00  0.00    +0.000 C 
ATOM     33  C   UNL     1       2.959  15.719  22.270  0.00  0.00    +0.000 C 
ATOM     34  C   UNL     1       1.745  17.803  22.932  0.00  0.00    +0.000 C 
BRANCH  32  35
ATOM     35  O   UNL     1       0.813  15.682  23.328  0.00  0.00    +0.000 OA
ATOM     36  H   UNL     1       1.417  15.385  24.029  0.00  0.00    +0.000 HD
ENDBRANCH  32  35
ENDBRANCH  31  32
ENDBRANCH   4  31
TORSDOF 7
ENDMDL
MODEL 9
REMARK VINA RESULT:      -7.4      6.695     10.342
REMARK  Name = 
REMARK  11 active torsions:
REMARK  status: ('A' for Active; 'I' for Inactive)
REMARK    1  A    between atoms: C_1  and  C_2
REMARK    2  A    between atoms: C_2  and  C_3
REMARK    3  A    between atoms: C_2  and  N_17
REMARK    4  A    between atoms: C_6  and  C_7
REMARK    5  A    between atoms: N_10  and  C_11
REMARK    6  A    between atoms: C_20  and  C_21
REMARK    7  A    between atoms: C_20  and  C_26
REMARK    8  A    between atoms: C_21  and  C_22
REMARK    9  A    between atoms: C_22  and  C_23
REMARK   10  A    between atoms: C_22  and  C_24
REMARK   11  A    between atoms: C_22  and  O_25
REMARK                            x       y       z     vdW  Elec       q    Type
REMARK                         _______ _______ _______ _____ _____    ______ ____
ROOT
ATOM      1  N   UNL     1      -0.917  12.180  20.401  0.00  0.00    +0.000 N 
ATOM      2  C   UNL     1      -1.933  12.529  19.421  0.00  0.00    +0.000 C 
ATOM      3  C   UNL     1      -3.338  12.379  19.965  0.00  0.00    +0.000 C 
ATOM      4  C   UNL     1      -3.437  13.161  21.280  0.00  0.00    +0.000 C 
ATOM      5  O   UNL     1      -2.405  12.642  22.153  0.00  0.00    +0.000 OA
ATOM      6  C   UNL     1      -1.154  12.311  21.763  0.00  0.00    +0.000 C 
ATOM      7  O   UNL     1      -0.298  12.115  22.620  0.00  0.00    +0.000 OA
ENDROOT
BRANCH   4   8
ATOM      8  C   UNL     1      -3.297  14.672  21.080  0.00  0.00    +0.000 A 
ATOM      9  C   UNL     1      -2.179  15.380  21.556  0.00  0.00    +0.000 A 
ATOM     10  C   UNL     1      -2.135  16.774  21.514  0.00  0.00    +0.000 A 
ATOM     11  C   UNL     1      -3.202  17.493  20.982  0.00  0.00    +0.000 A 
ATOM     12  C   UNL     1      -4.298  16.813  20.458  0.00  0.00    +0.000 A 
ATOM     13  C   UNL     1      -4.334  15.421  20.497  0.00  0.00    +0.000 A 
ATOM     14  F   UNL     1      -5.423  14.805  20.016  0.00  0.00    +0.000 F 
ENDBRANCH   4   8
BRANCH   1  16
ATOM     15  C   UNL     1       1.492  12.807  20.767  0.00  0.00    +0.000 C 
ATOM     16  C   UNL     1       0.481  11.966  19.982  0.00  0.00    +0.000 C 
BRANCH  16  17
ATOM     17  C   UNL     1       0.884  10.495  19.949  0.00  0.00    +0.000 A 
ATOM     18  C   UNL     1       0.860   9.690  21.099  0.00  0.00    +0.000 A 
ATOM     19  C   UNL     1       1.292   8.363  21.058  0.00  0.00    +0.000 A 
ATOM     20  C   UNL     1       1.788   7.824  19.869  0.00  0.00    +0.000 A 
ATOM     21  C   UNL     1       1.818   8.614  18.716  0.00  0.00    +0.000 A 
ATOM     22  C   UNL     1       1.355   9.932  18.752  0.00  0.00    +0.000 A 
BRANCH  20  23
ATOM     23  C   UNL     1       2.308   6.450  19.840  0.00  0.00    +0.000 A 
ATOM     24  C   UNL     1       3.370   6.039  18.944  0.00  0.00    +0.000 A 
ATOM     25  C   UNL     1       3.771   4.763  18.910  0.00  0.00    +0.000 A 
ATOM     26  N   UNL     1       3.193   3.815  19.733  0.00  0.00    +0.000 N 
ATOM     27  C   UNL     1       3.602   2.427  19.644  0.00  0.00    +0.000 C 
ATOM     28  C   UNL     1       2.197   4.135  20.652  0.00  0.00    +0.000 A 
ATOM     29  O   UNL     1       1.670   3.329  21.417  0.00  0.00    +0.000 OA
ATOM     30  C   UNL     1       1.754   5.553  20.671  0.00  0.00    +0.000 A 
ENDBRANCH  20  23
ENDBRANCH  16  17
ENDBRANCH   1  16
BRANCH   4  31
ATOM     31  C   UNL     1      -4.782  12.818  21.994  0.00  0.00    +0.000 C 
BRANCH  31  32
ATOM     32  C   UNL     1      -4.906  13.006  23.537  0.00  0.00    +0.000 C 
ATOM     33  C   UNL     1      -4.372  14.343  24.060  0.00  0.00    +0.000 C 
ATOM     34  C   UNL     1      -6.312  12.766  24.093  0.00  0.00    +0.000 C 
BRANCH  32  35
ATOM     35  O   UNL     1      -4.103  11.966  24.128  0.00  0.00    +0.000 OA
ATOM     36  H   UNL     1      -3.222  11.999  23.720  0.00  0.00    +0.000 HD
ENDBRANCH  32  35
ENDBRANCH  31  32
ENDBRANCH   4  31
TORSDOF 7
ENDMDL
