MODEL 1
REMARK VINA RESULT:      -8.2      0.000      0.000
REMARK  Name = 
REMARK  6 active torsions:
REMARK  status: ('A' for Active; 'I' for Inactive)
REMARK    1  A    between atoms: C_3  and  N_4
REMARK    2  A    between atoms: N_4  and  C_5
REMARK    3  A    between atoms: C_5  and  C_6
REMARK    4  A    between atoms: C_6  and  C_7
REMARK    5  A    between atoms: C_10  and  O_11
REMARK    6  A    between atoms: C_12  and  O_13
REMARK                            x       y       z     vdW  Elec       q    Type
REMARK                         _______ _______ _______ _____ _____    ______ ____
ROOT
ATOM      1  N   UNL     1       8.064   8.493  17.183  0.00  0.00    +0.000 N 
ATOM      2  H   UNL     1       8.645   8.303  16.362  0.00  0.00    +0.000 HD
ENDROOT
BRANCH   1   5
ATOM      3  O   UNL     1       5.894   7.246  16.012  0.00  0.00    +0.000 OA
ATOM      4  C   UNL     1       6.317   6.764  17.059  0.00  0.00    +0.000 C 
ATOM      5  C   UNL     1       7.512   7.353  17.755  0.00  0.00    +0.000 C 
ATOM      6  C   UNL     1       7.971   6.759  18.865  0.00  0.00    +0.000 C 
ATOM      7  C   UNL     1       7.361   5.566  19.474  0.00  0.00    +0.000 C 
ATOM      8  O   UNL     1       7.863   5.085  20.487  0.00  0.00    +0.000 OA
ATOM      9  C   UNL     1       6.155   5.017  18.821  0.00  0.00    +0.000 A 
ATOM     10  N   UNL     1       5.577   3.944  19.424  0.00  0.00    +0.000 NA
ATOM     11  C   UNL     1       4.471   3.433  18.845  0.00  0.00    +0.000 A 
ATOM     12  C   UNL     1       3.909   3.945  17.687  0.00  0.00    +0.000 A 
ATOM     13  C   UNL     1       4.516   5.048  17.089  0.00  0.00    +0.000 A 
ATOM     14  C   UNL     1       5.661   5.600  17.665  0.00  0.00    +0.000 A 
ENDBRANCH   1   5
BRANCH   1  15
ATOM     15  C   UNL     1       8.152   9.786  17.845  0.00  0.00    +0.000 C 
BRANCH  15  16
ATOM     16  C   UNL     1       9.219   9.850  18.936  0.00  0.00    +0.000 C 
BRANCH  16  17
ATOM     17  C   UNL     1      10.019  11.135  18.833  0.00  0.00    +0.000 A 
ATOM     18  C   UNL     1      10.285  11.924  19.967  0.00  0.00    +0.000 A 
ATOM     19  C   UNL     1      11.065  13.084  19.871  0.00  0.00    +0.000 A 
ATOM     20  C   UNL     1      11.558  13.468  18.632  0.00  0.00    +0.000 A 
ATOM     21  C   UNL     1      11.290  12.701  17.502  0.00  0.00    +0.000 A 
ATOM     22  C   UNL     1      10.543  11.533  17.592  0.00  0.00    +0.000 A 
BRANCH  20  23
ATOM     23  O   UNL     1      12.314  14.598  18.473  0.00  0.00    +0.000 OA
ATOM     24  H   UNL     1      12.998  14.412  17.805  0.00  0.00    +0.000 HD
ENDBRANCH  20  23
BRANCH  21  25
ATOM     25  O   UNL     1      11.750  13.104  16.281  0.00  0.00    +0.000 OA
ATOM     26  H   UNL     1      11.484  14.043  16.219  0.00  0.00    +0.000 HD
ENDBRANCH  21  25
ENDBRANCH  16  17
ENDBRANCH  15  16
ENDBRANCH   1  15
TORSDOF 6
ENDMDL
MODEL 2
REMARK VINA RESULT:      -8.2      5.858      7.248
REMARK  Name = 
REMARK  6 active torsions:
REMARK  status: ('A' for Active; 'I' for Inactive)
REMARK    1  A    between atoms: C_3  and  N_4
REMARK    2  A    between atoms: N_4  and  C_5
REMARK    3  A    between atoms: C_5  and  C_6
REMARK    4  A    between atoms: C_6  and  C_7
REMARK    5  A    between atoms: C_10  and  O_11
REMARK    6  A    between atoms: C_12  and  O_13
REMARK                            x       y       z     vdW  Elec       q    Type
REMARK                         _______ _______ _______ _____ _____    ______ ____
ROOT
ATOM      1  N   UNL     1       2.972   3.629  19.519  0.00  0.00    +0.000 N 
ATOM      2  H   UNL     1       2.871   2.617  19.636  0.00  0.00    +0.000 HD
ENDROOT
BRANCH   1   5
ATOM      3  O   UNL     1       2.908   3.581  16.758  0.00  0.00    +0.000 OA
ATOM      4  C   UNL     1       3.965   3.913  17.286  0.00  0.00    +0.000 C 
ATOM      5  C   UNL     1       4.090   3.999  18.781  0.00  0.00    +0.000 C 
ATOM      6  C   UNL     1       5.247   4.421  19.311  0.00  0.00    +0.000 C 
ATOM      7  C   UNL     1       6.431   4.787  18.517  0.00  0.00    +0.000 C 
ATOM      8  O   UNL     1       7.444   5.175  19.093  0.00  0.00    +0.000 OA
ATOM      9  C   UNL     1       6.328   4.652  17.049  0.00  0.00    +0.000 A 
ATOM     10  N   UNL     1       7.446   4.949  16.336  0.00  0.00    +0.000 NA
ATOM     11  C   UNL     1       7.372   4.825  14.994  0.00  0.00    +0.000 A 
ATOM     12  C   UNL     1       6.229   4.417  14.326  0.00  0.00    +0.000 A 
ATOM     13  C   UNL     1       5.096   4.114  15.079  0.00  0.00    +0.000 A 
ATOM     14  C   UNL     1       5.142   4.231  16.469  0.00  0.00    +0.000 A 
ENDBRANCH   1   5
BRANCH   1  15
ATOM     15  C   UNL     1       1.842   4.502  19.795  0.00  0.00    +0.000 C 
BRANCH  15  16
ATOM     16  C   UNL     1       2.201   5.736  20.621  0.00  0.00    +0.000 C 
BRANCH  16  17
ATOM     17  C   UNL     1       2.113   6.995  19.777  0.00  0.00    +0.000 A 
ATOM     18  C   UNL     1       2.647   7.042  18.477  0.00  0.00    +0.000 A 
ATOM     19  C   UNL     1       2.518   8.192  17.687  0.00  0.00    +0.000 A 
ATOM     20  C   UNL     1       1.877   9.305  18.210  0.00  0.00    +0.000 A 
ATOM     21  C   UNL     1       1.357   9.272  19.501  0.00  0.00    +0.000 A 
ATOM     22  C   UNL     1       1.452   8.126  20.280  0.00  0.00    +0.000 A 
BRANCH  20  23
ATOM     23  O   UNL     1       1.734  10.462  17.493  0.00  0.00    +0.000 OA
ATOM     24  H   UNL     1       2.617  10.855  17.376  0.00  0.00    +0.000 HD
ENDBRANCH  20  23
BRANCH  21  25
ATOM     25  O   UNL     1       0.757  10.384  20.022  0.00  0.00    +0.000 OA
ATOM     26  H   UNL     1       1.478  10.854  20.486  0.00  0.00    +0.000 HD
ENDBRANCH  21  25
ENDBRANCH  16  17
ENDBRANCH  15  16
ENDBRANCH   1  15
TORSDOF 6
ENDMDL
MODEL 3
REMARK VINA RESULT:      -8.1      4.563      7.977
REMARK  Name = 
REMARK  6 active torsions:
REMARK  status: ('A' for Active; 'I' for Inactive)
REMARK    1  A    between atoms: C_3  and  N_4
REMARK    2  A    between atoms: N_4  and  C_5
REMARK    3  A    between atoms: C_5  and  C_6
REMARK    4  A    between atoms: C_6  and  C_7
REMARK    5  A    between atoms: C_10  and  O_11
REMARK    6  A    between atoms: C_12  and  O_13
REMARK                            x       y       z     vdW  Elec       q    Type
REMARK                         _______ _______ _______ _____ _____    ______ ____
ROOT
ATOM      1  N   UNL     1       3.999   2.424  17.519  0.00  0.00    +0.000 N 
ATOM      2  H   UNL     1       4.234   1.595  16.966  0.00  0.00    +0.000 HD
ENDROOT
BRANCH   1   5
ATOM      3  O   UNL     1       5.672   3.485  19.444  0.00  0.00    +0.000 OA
ATOM      4  C   UNL     1       5.644   4.051  18.355  0.00  0.00    +0.000 C 
ATOM      5  C   UNL     1       4.789   3.531  17.234  0.00  0.00    +0.000 C 
ATOM      6  C   UNL     1       4.835   4.149  16.046  0.00  0.00    +0.000 C 
ATOM      7  C   UNL     1       5.658   5.336  15.766  0.00  0.00    +0.000 C 
ATOM      8  O   UNL     1       5.643   5.826  14.639  0.00  0.00    +0.000 OA
ATOM      9  C   UNL     1       6.459   5.881  16.882  0.00  0.00    +0.000 A 
ATOM     10  N   UNL     1       7.176   7.005  16.618  0.00  0.00    +0.000 NA
ATOM     11  C   UNL     1       7.908   7.520  17.626  0.00  0.00    +0.000 A 
ATOM     12  C   UNL     1       7.960   6.964  18.894  0.00  0.00    +0.000 A 
ATOM     13  C   UNL     1       7.213   5.814  19.143  0.00  0.00    +0.000 A 
ATOM     14  C   UNL     1       6.445   5.258  18.119  0.00  0.00    +0.000 A 
ENDBRANCH   1   5
BRANCH   1  15
ATOM     15  C   UNL     1       2.731   2.479  18.231  0.00  0.00    +0.000 C 
BRANCH  15  16
ATOM     16  C   UNL     1       1.786   3.567  17.725  0.00  0.00    +0.000 C 
BRANCH  16  17
ATOM     17  C   UNL     1       1.820   4.779  18.639  0.00  0.00    +0.000 A 
ATOM     18  C   UNL     1       1.492   4.676  20.003  0.00  0.00    +0.000 A 
ATOM     19  C   UNL     1       1.573   5.790  20.849  0.00  0.00    +0.000 A 
ATOM     20  C   UNL     1       1.958   7.014  20.323  0.00  0.00    +0.000 A 
ATOM     21  C   UNL     1       2.272   7.129  18.972  0.00  0.00    +0.000 A 
ATOM     22  C   UNL     1       2.225   6.024  18.131  0.00  0.00    +0.000 A 
BRANCH  20  23
ATOM     23  O   UNL     1       2.041   8.140  21.096  0.00  0.00    +0.000 OA
ATOM     24  H   UNL     1       2.631   8.771  20.648  0.00  0.00    +0.000 HD
ENDBRANCH  20  23
BRANCH  21  25
ATOM     25  O   UNL     1       2.617   8.345  18.454  0.00  0.00    +0.000 OA
ATOM     26  H   UNL     1       1.805   8.658  18.008  0.00  0.00    +0.000 HD
ENDBRANCH  21  25
ENDBRANCH  16  17
ENDBRANCH  15  16
ENDBRANCH   1  15
TORSDOF 6
ENDMDL
MODEL 4
REMARK VINA RESULT:      -8.0      4.401      7.152
REMARK  Name = 
REMARK  6 active torsions:
REMARK  status: ('A' for Active; 'I' for Inactive)
REMARK    1  A    between atoms: C_3  and  N_4
REMARK    2  A    between atoms: N_4  and  C_5
REMARK    3  A    between atoms: C_5  and  C_6
REMARK    4  A    between atoms: C_6  and  C_7
REMARK    5  A    between atoms: C_10  and  O_11
REMARK    6  A    between atoms: C_12  and  O_13
REMARK                            x       y       z     vdW  Elec       q    Type
REMARK                         _______ _______ _______ _____ _____    ______ ____
ROOT
ATOM      1  N   UNL     1       3.328   5.049  18.575  0.00  0.00    +0.000 N 
ATOM      2  H   UNL     1       3.848   4.679  19.375  0.00  0.00    +0.000 HD
ENDROOT
BRANCH   1   5
ATOM      3  O   UNL     1       2.136   5.655  20.992  0.00  0.00    +0.000 OA
ATOM      4  C   UNL     1       2.128   6.530  20.131  0.00  0.00    +0.000 C 
ATOM      5  C   UNL     1       2.779   6.306  18.795  0.00  0.00    +0.000 C 
ATOM      6  C   UNL     1       2.795   7.310  17.907  0.00  0.00    +0.000 C 
ATOM      7  C   UNL     1       2.188   8.630  18.145  0.00  0.00    +0.000 C 
ATOM      8  O   UNL     1       2.265   9.493  17.274  0.00  0.00    +0.000 OA
ATOM      9  C   UNL     1       1.502   8.834  19.437  0.00  0.00    +0.000 A 
ATOM     10  N   UNL     1       0.906  10.042  19.620  0.00  0.00    +0.000 NA
ATOM     11  C   UNL     1       0.269  10.245  20.792  0.00  0.00    +0.000 A 
ATOM     12  C   UNL     1       0.197   9.293  21.797  0.00  0.00    +0.000 A 
ATOM     13  C   UNL     1       0.812   8.060  21.585  0.00  0.00    +0.000 A 
ATOM     14  C   UNL     1       1.477   7.821  20.382  0.00  0.00    +0.000 A 
ENDBRANCH   1   5
BRANCH   1  15
ATOM     15  C   UNL     1       3.499   4.444  17.262  0.00  0.00    +0.000 C 
BRANCH  15  16
ATOM     16  C   UNL     1       4.915   3.938  16.995  0.00  0.00    +0.000 C 
BRANCH  16  17
ATOM     17  C   UNL     1       5.947   4.930  17.499  0.00  0.00    +0.000 A 
ATOM     18  C   UNL     1       6.326   6.044  16.729  0.00  0.00    +0.000 A 
ATOM     19  C   UNL     1       7.244   6.982  17.222  0.00  0.00    +0.000 A 
ATOM     20  C   UNL     1       7.802   6.788  18.477  0.00  0.00    +0.000 A 
ATOM     21  C   UNL     1       7.443   5.681  19.241  0.00  0.00    +0.000 A 
ATOM     22  C   UNL     1       6.510   4.763  18.774  0.00  0.00    +0.000 A 
BRANCH  20  23
ATOM     23  O   UNL     1       8.715   7.659  19.006  0.00  0.00    +0.000 OA
ATOM     24  H   UNL     1       8.782   7.483  19.961  0.00  0.00    +0.000 HD
ENDBRANCH  20  23
BRANCH  21  25
ATOM     25  O   UNL     1       8.023   5.478  20.461  0.00  0.00    +0.000 OA
ATOM     26  H   UNL     1       8.582   4.686  20.336  0.00  0.00    +0.000 HD
ENDBRANCH  21  25
ENDBRANCH  16  17
ENDBRANCH  15  16
ENDBRANCH   1  15
TORSDOF 6
ENDMDL
MODEL 5
REMARK VINA RESULT:      -7.9      1.406      2.512
REMARK  Name = 
REMARK  6 active torsions:
REMARK  status: ('A' for Active; 'I' for Inactive)
REMARK    1  A    between atoms: C_3  and  N_4
REMARK    2  A    between atoms: N_4  and  C_5
REMARK    3  A    between atoms: C_5  and  C_6
REMARK    4  A    between atoms: C_6  and  C_7
REMARK    5  A    between atoms: C_10  and  O_11
REMARK    6  A    between atoms: C_12  and  O_13
REMARK                            x       y       z     vdW  Elec       q    Type
REMARK                         _______ _______ _______ _____ _____    ______ ____
ROOT
ATOM      1  N   UNL     1       8.302   7.599  18.561  0.00  0.00    +0.000 N 
ATOM      2  H   UNL     1       8.709   7.243  19.430  0.00  0.00    +0.000 HD
ENDROOT
BRANCH   1   5
ATOM      3  O   UNL     1       7.213   5.579  20.098  0.00  0.00    +0.000 OA
ATOM      4  C   UNL     1       6.756   5.729  18.969  0.00  0.00    +0.000 C 
ATOM      5  C   UNL     1       7.262   6.821  18.069  0.00  0.00    +0.000 C 
ATOM      6  C   UNL     1       6.694   6.982  16.865  0.00  0.00    +0.000 C 
ATOM      7  C   UNL     1       5.608   6.134  16.347  0.00  0.00    +0.000 C 
ATOM      8  O   UNL     1       5.142   6.368  15.234  0.00  0.00    +0.000 OA
ATOM      9  C   UNL     1       5.146   5.027  17.209  0.00  0.00    +0.000 A 
ATOM     10  N   UNL     1       4.176   4.225  16.694  0.00  0.00    +0.000 NA
ATOM     11  C   UNL     1       3.746   3.205  17.465  0.00  0.00    +0.000 A 
ATOM     12  C   UNL     1       4.240   2.944  18.733  0.00  0.00    +0.000 A 
ATOM     13  C   UNL     1       5.237   3.777  19.238  0.00  0.00    +0.000 A 
ATOM     14  C   UNL     1       5.703   4.840  18.464  0.00  0.00    +0.000 A 
ENDBRANCH   1   5
BRANCH   1  15
ATOM     15  C   UNL     1       8.575   8.967  18.146  0.00  0.00    +0.000 C 
BRANCH  15  16
ATOM     16  C   UNL     1       9.201   9.831  19.238  0.00  0.00    +0.000 C 
BRANCH  16  17
ATOM     17  C   UNL     1       9.782  11.105  18.652  0.00  0.00    +0.000 A 
ATOM     18  C   UNL     1      11.166  11.249  18.445  0.00  0.00    +0.000 A 
ATOM     19  C   UNL     1      11.690  12.409  17.858  0.00  0.00    +0.000 A 
ATOM     20  C   UNL     1      10.828  13.436  17.503  0.00  0.00    +0.000 A 
ATOM     21  C   UNL     1       9.459  13.309  17.716  0.00  0.00    +0.000 A 
ATOM     22  C   UNL     1       8.927  12.150  18.268  0.00  0.00    +0.000 A 
BRANCH  20  23
ATOM     23  O   UNL     1      11.282  14.599  16.941  0.00  0.00    +0.000 OA
ATOM     24  H   UNL     1      10.927  14.655  16.036  0.00  0.00    +0.000 HD
ENDBRANCH  20  23
BRANCH  21  25
ATOM     25  O   UNL     1       8.621  14.339  17.395  0.00  0.00    +0.000 OA
ATOM     26  H   UNL     1       9.191  15.133  17.419  0.00  0.00    +0.000 HD
ENDBRANCH  21  25
ENDBRANCH  16  17
ENDBRANCH  15  16
ENDBRANCH   1  15
TORSDOF 6
ENDMDL
MODEL 6
REMARK VINA RESULT:      -7.9      4.985      7.143
REMARK  Name = 
REMARK  6 active torsions:
REMARK  status: ('A' for Active; 'I' for Inactive)
REMARK    1  A    between atoms: C_3  and  N_4
REMARK    2  A    between atoms: N_4  and  C_5
REMARK    3  A    between atoms: C_5  and  C_6
REMARK    4  A    between atoms: C_6  and  C_7
REMARK    5  A    between atoms: C_10  and  O_11
REMARK    6  A    between atoms: C_12  and  O_13
REMARK                            x       y       z     vdW  Elec       q    Type
REMARK                         _______ _______ _______ _____ _____    ______ ____
ROOT
ATOM      1  N   UNL     1       4.648   4.529  19.404  0.00  0.00    +0.000 N 
ATOM      2  H   UNL     1       4.922   3.634  19.818  0.00  0.00    +0.000 HD
ENDROOT
BRANCH   1   5
ATOM      3  O   UNL     1       4.138   3.194  17.040  0.00  0.00    +0.000 OA
ATOM      4  C   UNL     1       5.019   4.048  17.019  0.00  0.00    +0.000 C 
ATOM      5  C   UNL     1       5.348   4.850  18.248  0.00  0.00    +0.000 C 
ATOM      6  C   UNL     1       6.278   5.811  18.162  0.00  0.00    +0.000 C 
ATOM      7  C   UNL     1       7.029   6.123  16.936  0.00  0.00    +0.000 C 
ATOM      8  O   UNL     1       7.856   7.033  16.953  0.00  0.00    +0.000 OA
ATOM      9  C   UNL     1       6.745   5.301  15.742  0.00  0.00    +0.000 A 
ATOM     10  N   UNL     1       7.482   5.573  14.632  0.00  0.00    +0.000 NA
ATOM     11  C   UNL     1       7.241   4.827  13.534  0.00  0.00    +0.000 A 
ATOM     12  C   UNL     1       6.293   3.818  13.490  0.00  0.00    +0.000 A 
ATOM     13  C   UNL     1       5.552   3.555  14.640  0.00  0.00    +0.000 A 
ATOM     14  C   UNL     1       5.780   4.308  15.793  0.00  0.00    +0.000 A 
ENDBRANCH   1   5
BRANCH   1  15
ATOM     15  C   UNL     1       3.403   5.162  19.815  0.00  0.00    +0.000 C 
BRANCH  15  16
ATOM     16  C   UNL     1       2.605   5.762  18.660  0.00  0.00    +0.000 C 
BRANCH  16  17
ATOM     17  C   UNL     1       2.108   7.152  19.012  0.00  0.00    +0.000 A 
ATOM     18  C   UNL     1       1.615   7.449  20.296  0.00  0.00    +0.000 A 
ATOM     19  C   UNL     1       1.203   8.747  20.627  0.00  0.00    +0.000 A 
ATOM     20  C   UNL     1       1.262   9.742  19.663  0.00  0.00    +0.000 A 
ATOM     21  C   UNL     1       1.736   9.455  18.386  0.00  0.00    +0.000 A 
ATOM     22  C   UNL     1       2.175   8.179  18.057  0.00  0.00    +0.000 A 
BRANCH  20  23
ATOM     23  O   UNL     1       0.860  11.025  19.922  0.00  0.00    +0.000 OA
ATOM     24  H   UNL     1      -0.031  11.143  19.546  0.00  0.00    +0.000 HD
ENDBRANCH  20  23
BRANCH  21  25
ATOM     25  O   UNL     1       1.757  10.433  17.432  0.00  0.00    +0.000 OA
ATOM     26  H   UNL     1       2.526  10.988  17.671  0.00  0.00    +0.000 HD
ENDBRANCH  21  25
ENDBRANCH  16  17
ENDBRANCH  15  16
ENDBRANCH   1  15
TORSDOF 6
ENDMDL
MODEL 7
REMARK VINA RESULT:      -7.8      5.079      7.307
REMARK  Name = 
REMARK  6 active torsions:
REMARK  status: ('A' for Active; 'I' for Inactive)
REMARK    1  A    between atoms: C_3  and  N_4
REMARK    2  A    between atoms: N_4  and  C_5
REMARK    3  A    between atoms: C_5  and  C_6
REMARK    4  A    between atoms: C_6  and  C_7
REMARK    5  A    between atoms: C_10  and  O_11
REMARK    6  A    between atoms: C_12  and  O_13
REMARK                            x       y       z     vdW  Elec       q    Type
REMARK                         _______ _______ _______ _____ _____    ______ ____
ROOT
ATOM      1  N   UNL     1       3.598   4.620  19.265  0.00  0.00    +0.000 N 
ATOM      2  H   UNL     1       3.775   3.731  19.741  0.00  0.00    +0.000 HD
ENDROOT
BRANCH   1   5
ATOM      3  O   UNL     1       3.465   3.471  16.756  0.00  0.00    +0.000 OA
ATOM      4  C   UNL     1       4.400   4.235  16.970  0.00  0.00    +0.000 C 
ATOM      5  C   UNL     1       4.542   4.933  18.294  0.00  0.00    +0.000 C 
ATOM      6  C   UNL     1       5.548   5.802  18.462  0.00  0.00    +0.000 C 
ATOM      7  C   UNL     1       6.555   6.106  17.433  0.00  0.00    +0.000 C 
ATOM      8  O   UNL     1       7.435   6.929  17.677  0.00  0.00    +0.000 OA
ATOM      9  C   UNL     1       6.449   5.382  16.150  0.00  0.00    +0.000 A 
ATOM     10  N   UNL     1       7.414   5.640  15.229  0.00  0.00    +0.000 NA
ATOM     11  C   UNL     1       7.337   4.983  14.053  0.00  0.00    +0.000 A 
ATOM     12  C   UNL     1       6.336   4.074  13.751  0.00  0.00    +0.000 A 
ATOM     13  C   UNL     1       5.359   3.822  14.712  0.00  0.00    +0.000 A 
ATOM     14  C   UNL     1       5.413   4.486  15.938  0.00  0.00    +0.000 A 
ENDBRANCH   1   5
BRANCH   1  15
ATOM     15  C   UNL     1       2.290   5.248  19.374  0.00  0.00    +0.000 C 
BRANCH  15  16
ATOM     16  C   UNL     1       2.221   6.350  20.429  0.00  0.00    +0.000 C 
BRANCH  16  17
ATOM     17  C   UNL     1       1.917   7.692  19.788  0.00  0.00    +0.000 A 
ATOM     18  C   UNL     1       2.316   7.981  18.471  0.00  0.00    +0.000 A 
ATOM     19  C   UNL     1       1.989   9.204  17.871  0.00  0.00    +0.000 A 
ATOM     20  C   UNL     1       1.284  10.149  18.601  0.00  0.00    +0.000 A 
ATOM     21  C   UNL     1       0.895   9.878  19.910  0.00  0.00    +0.000 A 
ATOM     22  C   UNL     1       1.188   8.656  20.503  0.00  0.00    +0.000 A 
BRANCH  20  23
ATOM     23  O   UNL     1       0.949  11.367  18.074  0.00  0.00    +0.000 OA
ATOM     24  H   UNL     1       1.753  11.765  17.697  0.00  0.00    +0.000 HD
ENDBRANCH  20  23
BRANCH  21  25
ATOM     25  O   UNL     1       0.231  10.827  20.633  0.00  0.00    +0.000 OA
ATOM     26  H   UNL     1      -0.508  11.102  20.054  0.00  0.00    +0.000 HD
ENDBRANCH  21  25
ENDBRANCH  16  17
ENDBRANCH  15  16
ENDBRANCH   1  15
TORSDOF 6
ENDMDL
MODEL 8
REMARK VINA RESULT:      -7.8      0.982      2.203
REMARK  Name = 
REMARK  6 active torsions:
REMARK  status: ('A' for Active; 'I' for Inactive)
REMARK    1  A    between atoms: C_3  and  N_4
REMARK    2  A    between atoms: N_4  and  C_5
REMARK    3  A    between atoms: C_5  and  C_6
REMARK    4  A    between atoms: C_6  and  C_7
REMARK    5  A    between atoms: C_10  and  O_11
REMARK    6  A    between atoms: C_12  and  O_13
REMARK                            x       y       z     vdW  Elec       q    Type
REMARK                         _______ _______ _______ _____ _____    ______ ____
ROOT
ATOM      1  N   UNL     1       8.473   7.721  18.578  0.00  0.00    +0.000 N 
ATOM      2  H   UNL     1       9.006   7.249  19.313  0.00  0.00    +0.000 HD
ENDROOT
BRANCH   1   5
ATOM      3  O   UNL     1       7.395   5.666  20.076  0.00  0.00    +0.000 OA
ATOM      4  C   UNL     1       6.912   5.859  18.965  0.00  0.00    +0.000 C 
ATOM      5  C   UNL     1       7.409   6.974  18.088  0.00  0.00    +0.000 C 
ATOM      6  C   UNL     1       6.813   7.181  16.905  0.00  0.00    +0.000 C 
ATOM      7  C   UNL     1       5.703   6.365  16.388  0.00  0.00    +0.000 C 
ATOM      8  O   UNL     1       5.211   6.641  15.296  0.00  0.00    +0.000 OA
ATOM      9  C   UNL     1       5.247   5.236  17.226  0.00  0.00    +0.000 A 
ATOM     10  N   UNL     1       4.253   4.465  16.711  0.00  0.00    +0.000 NA
ATOM     11  C   UNL     1       3.829   3.426  17.459  0.00  0.00    +0.000 A 
ATOM     12  C   UNL     1       4.352   3.117  18.705  0.00  0.00    +0.000 A 
ATOM     13  C   UNL     1       5.373   3.920  19.211  0.00  0.00    +0.000 A 
ATOM     14  C   UNL     1       5.834   5.002  18.459  0.00  0.00    +0.000 A 
ENDBRANCH   1   5
BRANCH   1  15
ATOM     15  C   UNL     1       8.631   9.154  18.381  0.00  0.00    +0.000 C 
BRANCH  15  16
ATOM     16  C   UNL     1       9.083   9.904  19.632  0.00  0.00    +0.000 C 
BRANCH  16  17
ATOM     17  C   UNL     1       9.935  11.105  19.264  0.00  0.00    +0.000 A 
ATOM     18  C   UNL     1      10.622  11.842  20.244  0.00  0.00    +0.000 A 
ATOM     19  C   UNL     1      11.445  12.920  19.891  0.00  0.00    +0.000 A 
ATOM     20  C   UNL     1      11.558  13.276  18.555  0.00  0.00    +0.000 A 
ATOM     21  C   UNL     1      10.870  12.561  17.578  0.00  0.00    +0.000 A 
ATOM     22  C   UNL     1      10.077  11.472  17.916  0.00  0.00    +0.000 A 
BRANCH  20  23
ATOM     23  O   UNL     1      12.333  14.328  18.150  0.00  0.00    +0.000 OA
ATOM     24  H   UNL     1      13.225  13.988  17.956  0.00  0.00    +0.000 HD
ENDBRANCH  20  23
BRANCH  21  25
ATOM     25  O   UNL     1      10.959  12.940  16.269  0.00  0.00    +0.000 OA
ATOM     26  H   UNL     1      10.430  12.273  15.787  0.00  0.00    +0.000 HD
ENDBRANCH  21  25
ENDBRANCH  16  17
ENDBRANCH  15  16
ENDBRANCH   1  15
TORSDOF 6
ENDMDL
MODEL 9
REMARK VINA RESULT:      -7.8      7.106     10.211
REMARK  Name = 
REMARK  6 active torsions:
REMARK  status: ('A' for Active; 'I' for Inactive)
REMARK    1  A    between atoms: C_3  and  N_4
REMARK    2  A    between atoms: N_4  and  C_5
REMARK    3  A    between atoms: C_5  and  C_6
REMARK    4  A    between atoms: C_6  and  C_7
REMARK    5  A    between atoms: C_10  and  O_11
REMARK    6  A    between atoms: C_12  and  O_13
REMARK                            x       y       z     vdW  Elec       q    Type
REMARK                         _______ _______ _______ _____ _____    ______ ____
ROOT
ATOM      1  N   UNL     1       1.500   8.872  19.226  0.00  0.00    +0.000 N 
ATOM      2  H   UNL     1       1.268   9.250  18.303  0.00  0.00    +0.000 HD
ENDROOT
BRANCH   1   5
ATOM      3  O   UNL     1      -0.429  10.782  18.710  0.00  0.00    +0.000 OA
ATOM      4  C   UNL     1      -0.201  10.524  19.887  0.00  0.00    +0.000 C 
ATOM      5  C   UNL     1       0.809   9.478  20.269  0.00  0.00    +0.000 C 
ATOM      6  C   UNL     1       0.984   9.191  21.566  0.00  0.00    +0.000 C 
ATOM      7  C   UNL     1       0.262   9.858  22.662  0.00  0.00    +0.000 C 
ATOM      8  O   UNL     1       0.483   9.516  23.822  0.00  0.00    +0.000 OA
ATOM      9  C   UNL     1      -0.691  10.924  22.292  0.00  0.00    +0.000 A 
ATOM     10  N   UNL     1      -1.313  11.561  23.319  0.00  0.00    +0.000 NA
ATOM     11  C   UNL     1      -2.183  12.541  23.001  0.00  0.00    +0.000 A 
ATOM     12  C   UNL     1      -2.464  12.919  21.698  0.00  0.00    +0.000 A 
ATOM     13  C   UNL     1      -1.812  12.254  20.661  0.00  0.00    +0.000 A 
ATOM     14  C   UNL     1      -0.905  11.236  20.959  0.00  0.00    +0.000 A 
ENDBRANCH   1   5
BRANCH   1  15
ATOM     15  C   UNL     1       2.195   7.598  19.329  0.00  0.00    +0.000 C 
BRANCH  15  16
ATOM     16  C   UNL     1       2.616   7.013  17.983  0.00  0.00    +0.000 C 
BRANCH  16  17
ATOM     17  C   UNL     1       2.917   5.531  18.110  0.00  0.00    +0.000 A 
ATOM     18  C   UNL     1       1.965   4.559  17.755  0.00  0.00    +0.000 A 
ATOM     19  C   UNL     1       2.269   3.192  17.829  0.00  0.00    +0.000 A 
ATOM     20  C   UNL     1       3.518   2.800  18.284  0.00  0.00    +0.000 A 
ATOM     21  C   UNL     1       4.463   3.755  18.650  0.00  0.00    +0.000 A 
ATOM     22  C   UNL     1       4.183   5.112  18.550  0.00  0.00    +0.000 A 
BRANCH  20  23
ATOM     23  O   UNL     1       3.868   1.481  18.392  0.00  0.00    +0.000 OA
ATOM     24  H   UNL     1       3.148   0.946  18.013  0.00  0.00    +0.000 HD
ENDBRANCH  20  23
BRANCH  21  25
ATOM     25  O   UNL     1       5.680   3.360  19.130  0.00  0.00    +0.000 OA
ATOM     26  H   UNL     1       5.899   2.562  18.609  0.00  0.00    +0.000 HD
ENDBRANCH  21  25
ENDBRANCH  16  17
ENDBRANCH  15  16
ENDBRANCH   1  15
TORSDOF 6
ENDMDL
