MODEL 1
REMARK VINA RESULT:      -7.6      0.000      0.000
REMARK  Name = 
REMARK  7 active torsions:
REMARK  status: ('A' for Active; 'I' for Inactive)
REMARK    1  A    between atoms: C_1  and  N_2
REMARK    2  A    between atoms: N_2  and  C_3
REMARK    3  A    between atoms: N_2  and  S_18
REMARK    4  A    between atoms: C_3  and  C_4
REMARK    5  A    between atoms: N_6  and  C_7
REMARK    6  A    between atoms: C_11  and  C_12
REMARK    7  A    between atoms: S_18  and  C_21
REMARK                            x       y       z     vdW  Elec       q    Type
REMARK                         _______ _______ _______ _____ _____    ______ ____
ROOT
ATOM      1  C   UNL     1       4.602   5.082  18.324  0.00  0.00    +0.000 C 
ATOM      2  O   UNL     1       5.181   5.485  19.333  0.00  0.00    +0.000 OA
ATOM      3  N   UNL     1       3.336   5.500  17.929  0.00  0.00    +0.000 N 
ATOM      4  H   UNL     1       2.753   4.801  17.484  0.00  0.00    +0.000 HD
ENDROOT
BRANCH   3   5
ATOM      5  C   UNL     1       2.695   6.494  18.654  0.00  0.00    +0.000 A 
ATOM      6  S   UNL     1       2.695   8.027  17.916  0.00  0.00    +0.000 S 
ATOM      7  C   UNL     1       1.720   8.683  19.154  0.00  0.00    +0.000 A 
ATOM      8  C   UNL     1       1.510   7.789  20.189  0.00  0.00    +0.000 A 
ATOM      9  C   UNL     1       2.062   6.499  19.877  0.00  0.00    +0.000 A 
ATOM     10  C   UNL     1       0.823   8.196  21.464  0.00  0.00    +0.000 C 
ATOM     11  C   UNL     1       0.038   9.508  21.316  0.00  0.00    +0.000 C 
ATOM     12  C   UNL     1       0.819  10.565  20.519  0.00  0.00    +0.000 C 
ATOM     13  C   UNL     1       1.171  10.076  19.105  0.00  0.00    +0.000 C 
BRANCH   9  14
ATOM     14  C   UNL     1       2.052   5.388  20.785  0.00  0.00    +0.000 C 
ATOM     15  N   UNL     1       2.120   4.500  21.529  0.00  0.00    +0.000 NA
ENDBRANCH   9  14
ENDBRANCH   3   5
BRANCH   1  16
ATOM     16  C   UNL     1       5.215   4.001  17.439  0.00  0.00    +0.000 C 
BRANCH  16  18
ATOM     17  C   UNL     1       7.571   4.542  17.986  0.00  0.00    +0.000 C 
ATOM     18  N   UNL     1       6.571   4.341  16.898  0.00  0.00    +0.000 NA
BRANCH  18  19
ATOM     19  S   UNL     1       6.493   5.689  15.819  0.00  0.00    +0.000 S 
ATOM     20  O   UNL     1       5.152   6.231  15.890  0.00  0.00    +0.000 OA
ATOM     21  O   UNL     1       7.652   6.520  16.074  0.00  0.00    +0.000 OA
BRANCH  19  22
ATOM     22  C   UNL     1       6.673   4.939  14.217  0.00  0.00    +0.000 A 
ATOM     23  C   UNL     1       5.778   3.928  13.845  0.00  0.00    +0.000 A 
ATOM     24  C   UNL     1       5.904   3.324  12.594  0.00  0.00    +0.000 A 
ATOM     25  C   UNL     1       6.905   3.737  11.717  0.00  0.00    +0.000 A 
ATOM     26  C   UNL     1       7.785   4.761  12.082  0.00  0.00    +0.000 A 
ATOM     27  C   UNL     1       7.668   5.367  13.336  0.00  0.00    +0.000 A 
ENDBRANCH  19  22
ENDBRANCH  18  19
ENDBRANCH  16  18
ENDBRANCH   1  16
TORSDOF 6
ENDMDL
MODEL 2
REMARK VINA RESULT:      -7.5      3.468      4.630
REMARK  Name = 
REMARK  7 active torsions:
REMARK  status: ('A' for Active; 'I' for Inactive)
REMARK    1  A    between atoms: C_1  and  N_2
REMARK    2  A    between atoms: N_2  and  C_3
REMARK    3  A    between atoms: N_2  and  S_18
REMARK    4  A    between atoms: C_3  and  C_4
REMARK    5  A    between atoms: N_6  and  C_7
REMARK    6  A    between atoms: C_11  and  C_12
REMARK    7  A    between atoms: S_18  and  C_21
REMARK                            x       y       z     vdW  Elec       q    Type
REMARK                         _______ _______ _______ _____ _____    ______ ____
ROOT
ATOM      1  C   UNL     1       1.793   5.795  20.546  0.00  0.00    +0.000 C 
ATOM      2  O   UNL     1       0.586   5.607  20.384  0.00  0.00    +0.000 OA
ATOM      3  N   UNL     1       2.384   7.051  20.621  0.00  0.00    +0.000 N 
ATOM      4  H   UNL     1       3.311   7.133  20.219  0.00  0.00    +0.000 HD
ENDROOT
BRANCH   3   5
ATOM      5  C   UNL     1       1.579   8.180  20.596  0.00  0.00    +0.000 A 
ATOM      6  S   UNL     1       0.745   8.493  22.046  0.00  0.00    +0.000 S 
ATOM      7  C   UNL     1       0.114   9.955  21.431  0.00  0.00    +0.000 A 
ATOM      8  C   UNL     1       0.417  10.139  20.094  0.00  0.00    +0.000 A 
ATOM      9  C   UNL     1       1.299   9.109  19.618  0.00  0.00    +0.000 A 
ATOM     10  C   UNL     1      -0.170  11.269  19.293  0.00  0.00    +0.000 C 
ATOM     11  C   UNL     1      -0.752  12.379  20.183  0.00  0.00    +0.000 C 
ATOM     12  C   UNL     1      -1.547  11.813  21.371  0.00  0.00    +0.000 C 
ATOM     13  C   UNL     1      -0.682  10.912  22.265  0.00  0.00    +0.000 C 
BRANCH   9  14
ATOM     14  C   UNL     1       1.737   9.001  18.256  0.00  0.00    +0.000 C 
ATOM     15  N   UNL     1       2.163   8.922  17.180  0.00  0.00    +0.000 NA
ENDBRANCH   9  14
ENDBRANCH   3   5
BRANCH   1  16
ATOM     16  C   UNL     1       2.775   4.629  20.604  0.00  0.00    +0.000 C 
BRANCH  16  18
ATOM     17  C   UNL     1       1.681   2.462  20.107  0.00  0.00    +0.000 C 
ATOM     18  N   UNL     1       2.533   3.565  19.577  0.00  0.00    +0.000 NA
BRANCH  18  19
ATOM     19  S   UNL     1       4.022   2.986  18.915  0.00  0.00    +0.000 S 
ATOM     20  O   UNL     1       4.846   2.537  20.016  0.00  0.00    +0.000 OA
ATOM     21  O   UNL     1       3.695   2.105  17.813  0.00  0.00    +0.000 OA
BRANCH  19  22
ATOM     22  C   UNL     1       4.774   4.459  18.261  0.00  0.00    +0.000 A 
ATOM     23  C   UNL     1       4.084   5.187  17.284  0.00  0.00    +0.000 A 
ATOM     24  C   UNL     1       4.659   6.344  16.756  0.00  0.00    +0.000 A 
ATOM     25  C   UNL     1       5.903   6.776  17.210  0.00  0.00    +0.000 A 
ATOM     26  C   UNL     1       6.580   6.059  18.202  0.00  0.00    +0.000 A 
ATOM     27  C   UNL     1       6.014   4.897  18.732  0.00  0.00    +0.000 A 
ENDBRANCH  19  22
ENDBRANCH  18  19
ENDBRANCH  16  18
ENDBRANCH   1  16
TORSDOF 6
ENDMDL
MODEL 3
REMARK VINA RESULT:      -7.5      3.082      4.335
REMARK  Name = 
REMARK  7 active torsions:
REMARK  status: ('A' for Active; 'I' for Inactive)
REMARK    1  A    between atoms: C_1  and  N_2
REMARK    2  A    between atoms: N_2  and  C_3
REMARK    3  A    between atoms: N_2  and  S_18
REMARK    4  A    between atoms: C_3  and  C_4
REMARK    5  A    between atoms: N_6  and  C_7
REMARK    6  A    between atoms: C_11  and  C_12
REMARK    7  A    between atoms: S_18  and  C_21
REMARK                            x       y       z     vdW  Elec       q    Type
REMARK                         _______ _______ _______ _____ _____    ______ ____
ROOT
ATOM      1  C   UNL     1       2.039   6.565  20.025  0.00  0.00    +0.000 C 
ATOM      2  O   UNL     1       0.996   6.309  20.627  0.00  0.00    +0.000 OA
ATOM      3  N   UNL     1       2.300   7.776  19.395  0.00  0.00    +0.000 N 
ATOM      4  H   UNL     1       2.843   7.728  18.541  0.00  0.00    +0.000 HD
ENDROOT
BRANCH   3   5
ATOM      5  C   UNL     1       1.381   8.809  19.506  0.00  0.00    +0.000 A 
ATOM      6  S   UNL     1       0.736   9.350  18.027  0.00  0.00    +0.000 S 
ATOM      7  C   UNL     1      -0.323  10.427  18.821  0.00  0.00    +0.000 A 
ATOM      8  C   UNL     1      -0.096  10.481  20.185  0.00  0.00    +0.000 A 
ATOM      9  C   UNL     1       0.885   9.509  20.584  0.00  0.00    +0.000 A 
ATOM     10  C   UNL     1      -0.792  11.480  21.069  0.00  0.00    +0.000 C 
ATOM     11  C   UNL     1      -2.031  12.094  20.400  0.00  0.00    +0.000 C 
ATOM     12  C   UNL     1      -1.777  12.451  18.926  0.00  0.00    +0.000 C 
ATOM     13  C   UNL     1      -1.369  11.222  18.099  0.00  0.00    +0.000 C 
BRANCH   9  14
ATOM     14  C   UNL     1       1.371   9.372  21.926  0.00  0.00    +0.000 C 
ATOM     15  N   UNL     1       1.826   9.301  22.992  0.00  0.00    +0.000 NA
ENDBRANCH   9  14
ENDBRANCH   3   5
BRANCH   1  16
ATOM     16  C   UNL     1       3.131   5.514  19.851  0.00  0.00    +0.000 C 
BRANCH  16  18
ATOM     17  C   UNL     1       2.089   4.191  18.033  0.00  0.00    +0.000 C 
ATOM     18  N   UNL     1       3.273   4.995  18.452  0.00  0.00    +0.000 NA
BRANCH  18  19
ATOM     19  S   UNL     1       4.758   4.131  18.255  0.00  0.00    +0.000 S 
ATOM     20  O   UNL     1       5.007   3.401  19.480  0.00  0.00    +0.000 OA
ATOM     21  O   UNL     1       4.702   3.454  16.976  0.00  0.00    +0.000 OA
BRANCH  19  22
ATOM     22  C   UNL     1       5.971   5.427  18.159  0.00  0.00    +0.000 A 
ATOM     23  C   UNL     1       7.080   5.373  19.013  0.00  0.00    +0.000 A 
ATOM     24  C   UNL     1       8.042   6.382  18.955  0.00  0.00    +0.000 A 
ATOM     25  C   UNL     1       7.905   7.426  18.043  0.00  0.00    +0.000 A 
ATOM     26  C   UNL     1       6.809   7.466  17.175  0.00  0.00    +0.000 A 
ATOM     27  C   UNL     1       5.838   6.462  17.230  0.00  0.00    +0.000 A 
ENDBRANCH  19  22
ENDBRANCH  18  19
ENDBRANCH  16  18
ENDBRANCH   1  16
TORSDOF 6
ENDMDL
MODEL 4
REMARK VINA RESULT:      -7.3      3.294      4.360
REMARK  Name = 
REMARK  7 active torsions:
REMARK  status: ('A' for Active; 'I' for Inactive)
REMARK    1  A    between atoms: C_1  and  N_2
REMARK    2  A    between atoms: N_2  and  C_3
REMARK    3  A    between atoms: N_2  and  S_18
REMARK    4  A    between atoms: C_3  and  C_4
REMARK    5  A    between atoms: N_6  and  C_7
REMARK    6  A    between atoms: C_11  and  C_12
REMARK    7  A    between atoms: S_18  and  C_21
REMARK                            x       y       z     vdW  Elec       q    Type
REMARK                         _______ _______ _______ _____ _____    ______ ____
ROOT
ATOM      1  C   UNL     1       1.951   6.107  20.335  0.00  0.00    +0.000 C 
ATOM      2  O   UNL     1       0.764   5.882  20.574  0.00  0.00    +0.000 OA
ATOM      3  N   UNL     1       2.439   7.330  19.891  0.00  0.00    +0.000 N 
ATOM      4  H   UNL     1       3.216   7.293  19.241  0.00  0.00    +0.000 HD
ENDROOT
BRANCH   3   5
ATOM      5  C   UNL     1       1.571   8.407  19.781  0.00  0.00    +0.000 A 
ATOM      6  S   UNL     1       1.124   8.801  18.187  0.00  0.00    +0.000 S 
ATOM      7  C   UNL     1       0.045  10.006  18.732  0.00  0.00    +0.000 A 
ATOM      8  C   UNL     1       0.123  10.206  20.098  0.00  0.00    +0.000 A 
ATOM      9  C   UNL     1       0.999   9.247  20.711  0.00  0.00    +0.000 A 
ATOM     10  C   UNL     1      -0.610  11.329  20.781  0.00  0.00    +0.000 C 
ATOM     11  C   UNL     1      -1.732  11.914  19.910  0.00  0.00    +0.000 C 
ATOM     12  C   UNL     1      -1.299  12.087  18.445  0.00  0.00    +0.000 C 
ATOM     13  C   UNL     1      -0.870  10.756  17.811  0.00  0.00    +0.000 C 
BRANCH   9  14
ATOM     14  C   UNL     1       1.326   9.244  22.108  0.00  0.00    +0.000 C 
ATOM     15  N   UNL     1       1.517   9.223  23.253  0.00  0.00    +0.000 NA
ENDBRANCH   9  14
ENDBRANCH   3   5
BRANCH   1  16
ATOM     16  C   UNL     1       3.001   5.006  20.436  0.00  0.00    +0.000 C 
BRANCH  16  18
ATOM     17  C   UNL     1       1.966   2.754  20.446  0.00  0.00    +0.000 C 
ATOM     18  N   UNL     1       2.689   3.777  19.637  0.00  0.00    +0.000 NA
BRANCH  18  19
ATOM     19  S   UNL     1       4.112   3.140  18.889  0.00  0.00    +0.000 S 
ATOM     20  O   UNL     1       4.974   2.643  19.939  0.00  0.00    +0.000 OA
ATOM     21  O   UNL     1       3.687   2.286  17.799  0.00  0.00    +0.000 OA
BRANCH  19  22
ATOM     22  C   UNL     1       4.893   4.585  18.207  0.00  0.00    +0.000 A 
ATOM     23  C   UNL     1       4.218   5.308  17.216  0.00  0.00    +0.000 A 
ATOM     24  C   UNL     1       4.815   6.442  16.666  0.00  0.00    +0.000 A 
ATOM     25  C   UNL     1       6.067   6.859  17.112  0.00  0.00    +0.000 A 
ATOM     26  C   UNL     1       6.730   6.148  18.118  0.00  0.00    +0.000 A 
ATOM     27  C   UNL     1       6.141   5.008  18.671  0.00  0.00    +0.000 A 
ENDBRANCH  19  22
ENDBRANCH  18  19
ENDBRANCH  16  18
ENDBRANCH   1  16
TORSDOF 6
ENDMDL
MODEL 5
REMARK VINA RESULT:      -7.2      6.234      7.534
REMARK  Name = 
REMARK  7 active torsions:
REMARK  status: ('A' for Active; 'I' for Inactive)
REMARK    1  A    between atoms: C_1  and  N_2
REMARK    2  A    between atoms: N_2  and  C_3
REMARK    3  A    between atoms: N_2  and  S_18
REMARK    4  A    between atoms: C_3  and  C_4
REMARK    5  A    between atoms: N_6  and  C_7
REMARK    6  A    between atoms: C_11  and  C_12
REMARK    7  A    between atoms: S_18  and  C_21
REMARK                            x       y       z     vdW  Elec       q    Type
REMARK                         _______ _______ _______ _____ _____    ______ ____
ROOT
ATOM      1  C   UNL     1       8.361   8.854  18.437  0.00  0.00    +0.000 C 
ATOM      2  O   UNL     1       7.804   9.498  17.547  0.00  0.00    +0.000 OA
ATOM      3  N   UNL     1       9.304   9.384  19.311  0.00  0.00    +0.000 N 
ATOM      4  H   UNL     1      10.052   8.761  19.593  0.00  0.00    +0.000 HD
ENDROOT
BRANCH   3   5
ATOM      5  C   UNL     1       9.594  10.739  19.253  0.00  0.00    +0.000 A 
ATOM      6  S   UNL     1      10.417  11.233  17.848  0.00  0.00    +0.000 S 
ATOM      7  C   UNL     1      10.345  12.872  18.316  0.00  0.00    +0.000 A 
ATOM      8  C   UNL     1       9.827  13.035  19.589  0.00  0.00    +0.000 A 
ATOM      9  C   UNL     1       9.364  11.783  20.122  0.00  0.00    +0.000 A 
ATOM     10  C   UNL     1       9.821  14.371  20.281  0.00  0.00    +0.000 C 
ATOM     11  C   UNL     1      10.032  15.538  19.305  0.00  0.00    +0.000 C 
ATOM     12  C   UNL     1      11.129  15.239  18.270  0.00  0.00    +0.000 C 
ATOM     13  C   UNL     1      10.805  13.992  17.433  0.00  0.00    +0.000 C 
BRANCH   9  14
ATOM     14  C   UNL     1       8.833  11.628  21.445  0.00  0.00    +0.000 C 
ATOM     15  N   UNL     1       8.376  11.574  22.511  0.00  0.00    +0.000 NA
ENDBRANCH   9  14
ENDBRANCH   3   5
BRANCH   1  16
ATOM     16  C   UNL     1       8.110   7.360  18.608  0.00  0.00    +0.000 C 
BRANCH  16  18
ATOM     17  C   UNL     1       6.075   7.258  17.197  0.00  0.00    +0.000 C 
ATOM     18  N   UNL     1       7.440   6.707  17.437  0.00  0.00    +0.000 NA
BRANCH  18  19
ATOM     19  S   UNL     1       7.434   4.986  17.601  0.00  0.00    +0.000 S 
ATOM     20  O   UNL     1       7.781   4.421  16.314  0.00  0.00    +0.000 OA
ATOM     21  O   UNL     1       8.191   4.659  18.792  0.00  0.00    +0.000 OA
BRANCH  19  22
ATOM     22  C   UNL     1       5.721   4.612  17.896  0.00  0.00    +0.000 A 
ATOM     23  C   UNL     1       4.972   4.039  16.861  0.00  0.00    +0.000 A 
ATOM     24  C   UNL     1       3.625   3.741  17.071  0.00  0.00    +0.000 A 
ATOM     25  C   UNL     1       3.038   3.998  18.308  0.00  0.00    +0.000 A 
ATOM     26  C   UNL     1       3.793   4.550  19.347  0.00  0.00    +0.000 A 
ATOM     27  C   UNL     1       5.142   4.856  19.143  0.00  0.00    +0.000 A 
ENDBRANCH  19  22
ENDBRANCH  18  19
ENDBRANCH  16  18
ENDBRANCH   1  16
TORSDOF 6
ENDMDL
MODEL 6
REMARK VINA RESULT:      -7.2      3.740      4.877
REMARK  Name = 
REMARK  7 active torsions:
REMARK  status: ('A' for Active; 'I' for Inactive)
REMARK    1  A    between atoms: C_1  and  N_2
REMARK    2  A    between atoms: N_2  and  C_3
REMARK    3  A    between atoms: N_2  and  S_18
REMARK    4  A    between atoms: C_3  and  C_4
REMARK    5  A    between atoms: N_6  and  C_7
REMARK    6  A    between atoms: C_11  and  C_12
REMARK    7  A    between atoms: S_18  and  C_21
REMARK                            x       y       z     vdW  Elec       q    Type
REMARK                         _______ _______ _______ _____ _____    ______ ____
ROOT
ATOM      1  C   UNL     1       1.644   6.082  20.597  0.00  0.00    +0.000 C 
ATOM      2  O   UNL     1       0.439   5.879  20.449  0.00  0.00    +0.000 OA
ATOM      3  N   UNL     1       2.216   7.344  20.705  0.00  0.00    +0.000 N 
ATOM      4  H   UNL     1       3.135   7.456  20.292  0.00  0.00    +0.000 HD
ENDROOT
BRANCH   3   5
ATOM      5  C   UNL     1       1.392   8.460  20.733  0.00  0.00    +0.000 A 
ATOM      6  S   UNL     1       0.609   8.731  22.219  0.00  0.00    +0.000 S 
ATOM      7  C   UNL     1      -0.069  10.193  21.656  0.00  0.00    +0.000 A 
ATOM      8  C   UNL     1       0.180  10.407  20.313  0.00  0.00    +0.000 A 
ATOM      9  C   UNL     1       1.061   9.402  19.784  0.00  0.00    +0.000 A 
ATOM     10  C   UNL     1      -0.455  11.542  19.556  0.00  0.00    +0.000 C 
ATOM     11  C   UNL     1      -1.021  12.625  20.488  0.00  0.00    +0.000 C 
ATOM     12  C   UNL     1      -1.762  12.024  21.694  0.00  0.00    +0.000 C 
ATOM     13  C   UNL     1      -0.849  11.121  22.538  0.00  0.00    +0.000 C 
BRANCH   9  14
ATOM     14  C   UNL     1       1.449   9.328  18.405  0.00  0.00    +0.000 C 
ATOM     15  N   UNL     1       1.832   9.294  17.310  0.00  0.00    +0.000 NA
ENDBRANCH   9  14
ENDBRANCH   3   5
BRANCH   1  16
ATOM     16  C   UNL     1       2.646   4.932  20.599  0.00  0.00    +0.000 C 
BRANCH  16  18
ATOM     17  C   UNL     1       2.597   2.466  20.840  0.00  0.00    +0.000 C 
ATOM     18  N   UNL     1       2.106   3.640  20.063  0.00  0.00    +0.000 NA
BRANCH  18  19
ATOM     19  S   UNL     1       2.422   3.488  18.370  0.00  0.00    +0.000 S 
ATOM     20  O   UNL     1       2.854   2.128  18.125  0.00  0.00    +0.000 OA
ATOM     21  O   UNL     1       1.293   4.055  17.663  0.00  0.00    +0.000 OA
BRANCH  19  22
ATOM     22  C   UNL     1       3.834   4.540  18.124  0.00  0.00    +0.000 A 
ATOM     23  C   UNL     1       5.099   4.063  18.490  0.00  0.00    +0.000 A 
ATOM     24  C   UNL     1       6.219   4.875  18.308  0.00  0.00    +0.000 A 
ATOM     25  C   UNL     1       6.079   6.144  17.751  0.00  0.00    +0.000 A 
ATOM     26  C   UNL     1       4.818   6.610  17.365  0.00  0.00    +0.000 A 
ATOM     27  C   UNL     1       3.690   5.805  17.549  0.00  0.00    +0.000 A 
ENDBRANCH  19  22
ENDBRANCH  18  19
ENDBRANCH  16  18
ENDBRANCH   1  16
TORSDOF 6
ENDMDL
MODEL 7
REMARK VINA RESULT:      -7.1      4.175      8.571
REMARK  Name = 
REMARK  7 active torsions:
REMARK  status: ('A' for Active; 'I' for Inactive)
REMARK    1  A    between atoms: C_1  and  N_2
REMARK    2  A    between atoms: N_2  and  C_3
REMARK    3  A    between atoms: N_2  and  S_18
REMARK    4  A    between atoms: C_3  and  C_4
REMARK    5  A    between atoms: N_6  and  C_7
REMARK    6  A    between atoms: C_11  and  C_12
REMARK    7  A    between atoms: S_18  and  C_21
REMARK                            x       y       z     vdW  Elec       q    Type
REMARK                         _______ _______ _______ _____ _____    ______ ____
ROOT
ATOM      1  C   UNL     1       1.661   8.582  19.237  0.00  0.00    +0.000 C 
ATOM      2  O   UNL     1       1.301   8.345  18.084  0.00  0.00    +0.000 OA
ATOM      3  N   UNL     1       2.180   7.628  20.105  0.00  0.00    +0.000 N 
ATOM      4  H   UNL     1       1.940   7.737  21.084  0.00  0.00    +0.000 HD
ENDROOT
BRANCH   3   5
ATOM      5  C   UNL     1       2.394   6.338  19.643  0.00  0.00    +0.000 A 
ATOM      6  S   UNL     1       1.554   5.127  20.496  0.00  0.00    +0.000 S 
ATOM      7  C   UNL     1       2.105   3.917  19.426  0.00  0.00    +0.000 A 
ATOM      8  C   UNL     1       3.027   4.399  18.514  0.00  0.00    +0.000 A 
ATOM      9  C   UNL     1       3.171   5.824  18.628  0.00  0.00    +0.000 A 
ATOM     10  C   UNL     1       3.776   3.486  17.581  0.00  0.00    +0.000 C 
ATOM     11  C   UNL     1       3.117   2.103  17.458  0.00  0.00    +0.000 C 
ATOM     12  C   UNL     1       2.649   1.560  18.819  0.00  0.00    +0.000 C 
ATOM     13  C   UNL     1       1.634   2.496  19.493  0.00  0.00    +0.000 C 
BRANCH   9  14
ATOM     14  C   UNL     1       4.101   6.596  17.855  0.00  0.00    +0.000 C 
ATOM     15  N   UNL     1       4.883   7.154  17.205  0.00  0.00    +0.000 NA
ENDBRANCH   9  14
ENDBRANCH   3   5
BRANCH   1  16
ATOM     16  C   UNL     1       1.490   9.968  19.851  0.00  0.00    +0.000 C 
BRANCH  16  18
ATOM     17  C   UNL     1       1.789  12.052  18.541  0.00  0.00    +0.000 C 
ATOM     18  N   UNL     1       0.843  10.971  18.943  0.00  0.00    +0.000 NA
BRANCH  18  19
ATOM     19  S   UNL     1      -0.611  11.595  19.639  0.00  0.00    +0.000 S 
ATOM     20  O   UNL     1      -0.893  10.824  20.831  0.00  0.00    +0.000 OA
ATOM     21  O   UNL     1      -0.486  13.037  19.690  0.00  0.00    +0.000 OA
BRANCH  19  22
ATOM     22  C   UNL     1      -1.850  11.174  18.435  0.00  0.00    +0.000 A 
ATOM     23  C   UNL     1      -1.548  10.202  17.473  0.00  0.00    +0.000 A 
ATOM     24  C   UNL     1      -2.505   9.860  16.517  0.00  0.00    +0.000 A 
ATOM     25  C   UNL     1      -3.757  10.471  16.533  0.00  0.00    +0.000 A 
ATOM     26  C   UNL     1      -4.065  11.425  17.508  0.00  0.00    +0.000 A 
ATOM     27  C   UNL     1      -3.109  11.778  18.465  0.00  0.00    +0.000 A 
ENDBRANCH  19  22
ENDBRANCH  18  19
ENDBRANCH  16  18
ENDBRANCH   1  16
TORSDOF 6
ENDMDL
MODEL 8
REMARK VINA RESULT:      -7.1      3.902      5.085
REMARK  Name = 
REMARK  7 active torsions:
REMARK  status: ('A' for Active; 'I' for Inactive)
REMARK    1  A    between atoms: C_1  and  N_2
REMARK    2  A    between atoms: N_2  and  C_3
REMARK    3  A    between atoms: N_2  and  S_18
REMARK    4  A    between atoms: C_3  and  C_4
REMARK    5  A    between atoms: N_6  and  C_7
REMARK    6  A    between atoms: C_11  and  C_12
REMARK    7  A    between atoms: S_18  and  C_21
REMARK                            x       y       z     vdW  Elec       q    Type
REMARK                         _______ _______ _______ _____ _____    ______ ____
ROOT
ATOM      1  C   UNL     1       1.514   6.144  20.707  0.00  0.00    +0.000 C 
ATOM      2  O   UNL     1       0.320   5.964  20.466  0.00  0.00    +0.000 OA
ATOM      3  N   UNL     1       2.103   7.395  20.846  0.00  0.00    +0.000 N 
ATOM      4  H   UNL     1       3.054   7.482  20.506  0.00  0.00    +0.000 HD
ENDROOT
BRANCH   3   5
ATOM      5  C   UNL     1       1.305   8.528  20.796  0.00  0.00    +0.000 A 
ATOM      6  S   UNL     1       0.461   8.871  22.233  0.00  0.00    +0.000 S 
ATOM      7  C   UNL     1      -0.157  10.325  21.588  0.00  0.00    +0.000 A 
ATOM      8  C   UNL     1       0.158  10.484  20.250  0.00  0.00    +0.000 A 
ATOM      9  C   UNL     1       1.038   9.441  19.799  0.00  0.00    +0.000 A 
ATOM     10  C   UNL     1      -0.416  11.603  19.425  0.00  0.00    +0.000 C 
ATOM     11  C   UNL     1      -0.999  12.732  20.290  0.00  0.00    +0.000 C 
ATOM     12  C   UNL     1      -1.807  12.191  21.481  0.00  0.00    +0.000 C 
ATOM     13  C   UNL     1      -0.955  11.301  22.398  0.00  0.00    +0.000 C 
BRANCH   9  14
ATOM     14  C   UNL     1       1.487   9.308  18.443  0.00  0.00    +0.000 C 
ATOM     15  N   UNL     1       1.798   9.143  17.337  0.00  0.00    +0.000 NA
ENDBRANCH   9  14
ENDBRANCH   3   5
BRANCH   1  16
ATOM     16  C   UNL     1       2.487   4.973  20.802  0.00  0.00    +0.000 C 
BRANCH  16  18
ATOM     17  C   UNL     1       2.216   2.600  21.464  0.00  0.00    +0.000 C 
ATOM     18  N   UNL     1       1.892   3.644  20.449  0.00  0.00    +0.000 NA
BRANCH  18  19
ATOM     19  S   UNL     1       2.337   3.166  18.848  0.00  0.00    +0.000 S 
ATOM     20  O   UNL     1       2.886   1.829  18.926  0.00  0.00    +0.000 OA
ATOM     21  O   UNL     1       1.221   3.469  17.976  0.00  0.00    +0.000 OA
BRANCH  19  22
ATOM     22  C   UNL     1       3.679   4.264  18.456  0.00  0.00    +0.000 A 
ATOM     23  C   UNL     1       3.412   5.401  17.683  0.00  0.00    +0.000 A 
ATOM     24  C   UNL     1       4.452   6.273  17.361  0.00  0.00    +0.000 A 
ATOM     25  C   UNL     1       5.743   6.021  17.820  0.00  0.00    +0.000 A 
ATOM     26  C   UNL     1       6.003   4.897  18.611  0.00  0.00    +0.000 A 
ATOM     27  C   UNL     1       4.968   4.015  18.933  0.00  0.00    +0.000 A 
ENDBRANCH  19  22
ENDBRANCH  18  19
ENDBRANCH  16  18
ENDBRANCH   1  16
TORSDOF 6
ENDMDL
MODEL 9
REMARK VINA RESULT:      -7.1      6.730     11.617
REMARK  Name = 
REMARK  7 active torsions:
REMARK  status: ('A' for Active; 'I' for Inactive)
REMARK    1  A    between atoms: C_1  and  N_2
REMARK    2  A    between atoms: N_2  and  C_3
REMARK    3  A    between atoms: N_2  and  S_18
REMARK    4  A    between atoms: C_3  and  C_4
REMARK    5  A    between atoms: N_6  and  C_7
REMARK    6  A    between atoms: C_11  and  C_12
REMARK    7  A    between atoms: S_18  and  C_21
REMARK                            x       y       z     vdW  Elec       q    Type
REMARK                         _______ _______ _______ _____ _____    ______ ____
ROOT
ATOM      1  C   UNL     1      -0.735  12.726  22.461  0.00  0.00    +0.000 C 
ATOM      2  O   UNL     1       0.324  13.227  22.080  0.00  0.00    +0.000 OA
ATOM      3  N   UNL     1      -1.215  11.495  22.031  0.00  0.00    +0.000 N 
ATOM      4  H   UNL     1      -2.222  11.416  21.937  0.00  0.00    +0.000 HD
ENDROOT
BRANCH   3   5
ATOM      5  C   UNL     1      -0.437  10.724  21.181  0.00  0.00    +0.000 A 
ATOM      6  S   UNL     1       0.421   9.467  21.945  0.00  0.00    +0.000 S 
ATOM      7  C   UNL     1       1.006   8.886  20.451  0.00  0.00    +0.000 A 
ATOM      8  C   UNL     1       0.672   9.715  19.395  0.00  0.00    +0.000 A 
ATOM      9  C   UNL     1      -0.197  10.775  19.825  0.00  0.00    +0.000 A 
ATOM     10  C   UNL     1       1.217   9.498  18.009  0.00  0.00    +0.000 C 
ATOM     11  C   UNL     1       1.793   8.086  17.819  0.00  0.00    +0.000 C 
ATOM     12  C   UNL     1       2.625   7.631  19.029  0.00  0.00    +0.000 C 
ATOM     13  C   UNL     1       1.799   7.621  20.324  0.00  0.00    +0.000 C 
BRANCH   9  14
ATOM     14  C   UNL     1      -0.661  11.825  18.965  0.00  0.00    +0.000 C 
ATOM     15  N   UNL     1      -0.972  12.665  18.227  0.00  0.00    +0.000 NA
ENDBRANCH   9  14
ENDBRANCH   3   5
BRANCH   1  16
ATOM     16  C   UNL     1      -1.668  13.474  23.408  0.00  0.00    +0.000 C 
BRANCH  16  18
ATOM     17  C   UNL     1      -2.993  15.534  23.027  0.00  0.00    +0.000 C 
ATOM     18  N   UNL     1      -2.871  14.074  22.745  0.00  0.00    +0.000 NA
BRANCH  18  19
ATOM     19  S   UNL     1      -4.308  13.203  23.152  0.00  0.00    +0.000 S 
ATOM     20  O   UNL     1      -3.908  11.998  23.847  0.00  0.00    +0.000 OA
ATOM     21  O   UNL     1      -5.232  14.143  23.751  0.00  0.00    +0.000 OA
BRANCH  19  22
ATOM     22  C   UNL     1      -4.946  12.710  21.567  0.00  0.00    +0.000 A 
ATOM     23  C   UNL     1      -4.070  12.663  20.476  0.00  0.00    +0.000 A 
ATOM     24  C   UNL     1      -4.551  12.282  19.224  0.00  0.00    +0.000 A 
ATOM     25  C   UNL     1      -5.891  11.935  19.066  0.00  0.00    +0.000 A 
ATOM     26  C   UNL     1      -6.760  11.962  20.162  0.00  0.00    +0.000 A 
ATOM     27  C   UNL     1      -6.287  12.348  21.419  0.00  0.00    +0.000 A 
ENDBRANCH  19  22
ENDBRANCH  18  19
ENDBRANCH  16  18
ENDBRANCH   1  16
TORSDOF 6
ENDMDL
