MODEL 1
REMARK VINA RESULT:      -7.6      0.000      0.000
REMARK  Name = 
REMARK  4 active torsions:
REMARK  status: ('A' for Active; 'I' for Inactive)
REMARK    1  A    between atoms: C_1  and  C_2
REMARK    2  A    between atoms: C_7  and  C_8
REMARK    3  A    between atoms: N_16  and  C_17
REMARK    4  A    between atoms: N_16  and  C_18
REMARK                            x       y       z     vdW  Elec       q    Type
REMARK                         _______ _______ _______ _____ _____    ______ ____
ROOT
ATOM      1  C   UNL     1       4.498   3.759  17.178  0.00  0.00    +0.000 A 
ATOM      2  C   UNL     1       4.254   2.432  17.523  0.00  0.00    +0.000 A 
ATOM      3  C   UNL     1       3.292   2.100  18.484  0.00  0.00    +0.000 A 
ATOM      4  C   UNL     1       2.567   3.065  19.171  0.00  0.00    +0.000 A 
ATOM      5  N   UNL     1       1.685   2.639  20.073  0.00  0.00    +0.000 NA
ATOM      6  C   UNL     1       1.040   3.581  20.755  0.00  0.00    +0.000 A 
ATOM      7  N   UNL     1       1.186   4.904  20.615  0.00  0.00    +0.000 NA
ATOM      8  C   UNL     1       2.073   5.346  19.697  0.00  0.00    +0.000 A 
ATOM      9  N   UNL     1       2.266   6.726  19.645  0.00  0.00    +0.000 N 
ATOM     10  C   UNL     1       1.785   7.522  20.772  0.00  0.00    +0.000 C 
ATOM     11  C   UNL     1       2.361   7.446  18.383  0.00  0.00    +0.000 C 
ATOM     12  C   UNL     1       2.816   4.421  18.912  0.00  0.00    +0.000 A 
ATOM     13  C   UNL     1       3.800   4.728  17.925  0.00  0.00    +0.000 A 
ENDROOT
BRANCH   1  20
ATOM     14  C   UNL     1       7.372   4.788  17.672  0.00  0.00    +0.000 C 
ATOM     15  C   UNL     1       6.756   4.624  16.304  0.00  0.00    +0.000 A 
ATOM     16  C   UNL     1       7.584   4.911  15.199  0.00  0.00    +0.000 A 
ATOM     17  C   UNL     1       7.146   4.725  13.893  0.00  0.00    +0.000 A 
ATOM     18  C   UNL     1       5.853   4.280  13.666  0.00  0.00    +0.000 A 
ATOM     19  C   UNL     1       5.004   4.030  14.746  0.00  0.00    +0.000 A 
ATOM     20  C   UNL     1       5.426   4.173  16.090  0.00  0.00    +0.000 A 
ENDBRANCH   1  20
TORSDOF 1
ENDMDL
MODEL 2
REMARK VINA RESULT:      -7.3      2.902      5.986
REMARK  Name = 
REMARK  4 active torsions:
REMARK  status: ('A' for Active; 'I' for Inactive)
REMARK    1  A    between atoms: C_1  and  C_2
REMARK    2  A    between atoms: C_7  and  C_8
REMARK    3  A    between atoms: N_16  and  C_17
REMARK    4  A    between atoms: N_16  and  C_18
REMARK                            x       y       z     vdW  Elec       q    Type
REMARK                         _______ _______ _______ _____ _____    ______ ____
ROOT
ATOM      1  C   UNL     1       3.681   3.728  18.079  0.00  0.00    +0.000 A 
ATOM      2  C   UNL     1       3.375   3.224  16.817  0.00  0.00    +0.000 A 
ATOM      3  C   UNL     1       4.208   3.472  15.720  0.00  0.00    +0.000 A 
ATOM      4  C   UNL     1       5.348   4.260  15.817  0.00  0.00    +0.000 A 
ATOM      5  N   UNL     1       6.062   4.441  14.708  0.00  0.00    +0.000 NA
ATOM      6  C   UNL     1       7.119   5.241  14.812  0.00  0.00    +0.000 A 
ATOM      7  N   UNL     1       7.534   5.868  15.920  0.00  0.00    +0.000 NA
ATOM      8  C   UNL     1       6.820   5.686  17.052  0.00  0.00    +0.000 A 
ATOM      9  N   UNL     1       7.227   6.428  18.160  0.00  0.00    +0.000 N 
ATOM     10  C   UNL     1       8.126   7.557  17.929  0.00  0.00    +0.000 C 
ATOM     11  C   UNL     1       7.303   5.847  19.494  0.00  0.00    +0.000 C 
ATOM     12  C   UNL     1       5.671   4.848  17.050  0.00  0.00    +0.000 A 
ATOM     13  C   UNL     1       4.805   4.574  18.151  0.00  0.00    +0.000 A 
ENDROOT
BRANCH   1  20
ATOM     14  C   UNL     1       4.724   1.920  20.360  0.00  0.00    +0.000 C 
ATOM     15  C   UNL     1       3.378   2.603  20.371  0.00  0.00    +0.000 A 
ATOM     16  C   UNL     1       2.593   2.434  21.530  0.00  0.00    +0.000 A 
ATOM     17  C   UNL     1       1.369   3.075  21.680  0.00  0.00    +0.000 A 
ATOM     18  C   UNL     1       0.889   3.873  20.653  0.00  0.00    +0.000 A 
ATOM     19  C   UNL     1       1.633   4.020  19.481  0.00  0.00    +0.000 A 
ATOM     20  C   UNL     1       2.899   3.412  19.307  0.00  0.00    +0.000 A 
ENDBRANCH   1  20
TORSDOF 1
ENDMDL
MODEL 3
REMARK VINA RESULT:      -7.2      1.224      3.004
REMARK  Name = 
REMARK  4 active torsions:
REMARK  status: ('A' for Active; 'I' for Inactive)
REMARK    1  A    between atoms: C_1  and  C_2
REMARK    2  A    between atoms: C_7  and  C_8
REMARK    3  A    between atoms: N_16  and  C_17
REMARK    4  A    between atoms: N_16  and  C_18
REMARK                            x       y       z     vdW  Elec       q    Type
REMARK                         _______ _______ _______ _____ _____    ______ ____
ROOT
ATOM      1  C   UNL     1       4.338   5.975  17.043  0.00  0.00    +0.000 A 
ATOM      2  C   UNL     1       3.888   7.292  17.091  0.00  0.00    +0.000 A 
ATOM      3  C   UNL     1       3.060   7.735  18.130  0.00  0.00    +0.000 A 
ATOM      4  C   UNL     1       2.613   6.886  19.134  0.00  0.00    +0.000 A 
ATOM      5  N   UNL     1       1.820   7.409  20.067  0.00  0.00    +0.000 NA
ATOM      6  C   UNL     1       1.361   6.567  20.989  0.00  0.00    +0.000 A 
ATOM      7  N   UNL     1       1.628   5.257  21.071  0.00  0.00    +0.000 NA
ATOM      8  C   UNL     1       2.437   4.719  20.133  0.00  0.00    +0.000 A 
ATOM      9  N   UNL     1       2.616   3.337  20.196  0.00  0.00    +0.000 N 
ATOM     10  C   UNL     1       1.678   2.568  21.011  0.00  0.00    +0.000 C 
ATOM     11  C   UNL     1       3.921   2.718  20.013  0.00  0.00    +0.000 C 
ATOM     12  C   UNL     1       2.983   5.533  19.102  0.00  0.00    +0.000 A 
ATOM     13  C   UNL     1       3.829   5.112  18.032  0.00  0.00    +0.000 A 
ENDROOT
BRANCH   1  20
ATOM     14  C   UNL     1       7.395   6.399  17.227  0.00  0.00    +0.000 C 
ATOM     15  C   UNL     1       6.713   5.637  16.117  0.00  0.00    +0.000 A 
ATOM     16  C   UNL     1       7.550   5.045  15.149  0.00  0.00    +0.000 A 
ATOM     17  C   UNL     1       7.035   4.260  14.123  0.00  0.00    +0.000 A 
ATOM     18  C   UNL     1       5.664   4.081  14.027  0.00  0.00    +0.000 A 
ATOM     19  C   UNL     1       4.816   4.693  14.951  0.00  0.00    +0.000 A 
ATOM     20  C   UNL     1       5.305   5.470  16.030  0.00  0.00    +0.000 A 
ENDBRANCH   1  20
TORSDOF 1
ENDMDL
MODEL 4
REMARK VINA RESULT:      -7.2      2.328      6.909
REMARK  Name = 
REMARK  4 active torsions:
REMARK  status: ('A' for Active; 'I' for Inactive)
REMARK    1  A    between atoms: C_1  and  C_2
REMARK    2  A    between atoms: C_7  and  C_8
REMARK    3  A    between atoms: N_16  and  C_17
REMARK    4  A    between atoms: N_16  and  C_18
REMARK                            x       y       z     vdW  Elec       q    Type
REMARK                         _______ _______ _______ _____ _____    ______ ____
ROOT
ATOM      1  C   UNL     1       2.083   7.910  19.393  0.00  0.00    +0.000 A 
ATOM      2  C   UNL     1       2.713   8.334  18.225  0.00  0.00    +0.000 A 
ATOM      3  C   UNL     1       3.413   7.433  17.414  0.00  0.00    +0.000 A 
ATOM      4  C   UNL     1       3.554   6.092  17.746  0.00  0.00    +0.000 A 
ATOM      5  N   UNL     1       4.250   5.325  16.909  0.00  0.00    +0.000 NA
ATOM      6  C   UNL     1       4.416   4.057  17.272  0.00  0.00    +0.000 A 
ATOM      7  N   UNL     1       3.945   3.482  18.386  0.00  0.00    +0.000 NA
ATOM      8  C   UNL     1       3.232   4.250  19.238  0.00  0.00    +0.000 A 
ATOM      9  N   UNL     1       2.839   3.641  20.430  0.00  0.00    +0.000 N 
ATOM     10  C   UNL     1       3.500   2.394  20.806  0.00  0.00    +0.000 C 
ATOM     11  C   UNL     1       1.504   3.819  20.985  0.00  0.00    +0.000 C 
ATOM     12  C   UNL     1       2.994   5.621  18.943  0.00  0.00    +0.000 A 
ATOM     13  C   UNL     1       2.285   6.562  19.748  0.00  0.00    +0.000 A 
ENDROOT
BRANCH   1  20
ATOM     14  C   UNL     1       0.111  10.001  18.255  0.00  0.00    +0.000 C 
ATOM     15  C   UNL     1       0.307   9.738  19.728  0.00  0.00    +0.000 A 
ATOM     16  C   UNL     1      -0.515  10.465  20.615  0.00  0.00    +0.000 A 
ATOM     17  C   UNL     1      -0.471  10.251  21.988  0.00  0.00    +0.000 A 
ATOM     18  C   UNL     1       0.424   9.327  22.504  0.00  0.00    +0.000 A 
ATOM     19  C   UNL     1       1.274   8.627  21.646  0.00  0.00    +0.000 A 
ATOM     20  C   UNL     1       1.234   8.792  20.240  0.00  0.00    +0.000 A 
ENDBRANCH   1  20
TORSDOF 1
ENDMDL
MODEL 5
REMARK VINA RESULT:      -7.1      2.117      6.228
REMARK  Name = 
REMARK  4 active torsions:
REMARK  status: ('A' for Active; 'I' for Inactive)
REMARK    1  A    between atoms: C_1  and  C_2
REMARK    2  A    between atoms: C_7  and  C_8
REMARK    3  A    between atoms: N_16  and  C_17
REMARK    4  A    between atoms: N_16  and  C_18
REMARK                            x       y       z     vdW  Elec       q    Type
REMARK                         _______ _______ _______ _____ _____    ______ ____
ROOT
ATOM      1  C   UNL     1       1.912   6.757  20.044  0.00  0.00    +0.000 A 
ATOM      2  C   UNL     1       1.405   5.698  20.793  0.00  0.00    +0.000 A 
ATOM      3  C   UNL     1       1.861   4.390  20.595  0.00  0.00    +0.000 A 
ATOM      4  C   UNL     1       2.801   4.072  19.623  0.00  0.00    +0.000 A 
ATOM      5  N   UNL     1       3.156   2.793  19.512  0.00  0.00    +0.000 NA
ATOM      6  C   UNL     1       4.017   2.503  18.541  0.00  0.00    +0.000 A 
ATOM      7  N   UNL     1       4.563   3.371  17.679  0.00  0.00    +0.000 NA
ATOM      8  C   UNL     1       4.215   4.671  17.789  0.00  0.00    +0.000 A 
ATOM      9  N   UNL     1       4.730   5.528  16.816  0.00  0.00    +0.000 N 
ATOM     10  C   UNL     1       5.289   4.926  15.607  0.00  0.00    +0.000 C 
ATOM     11  C   UNL     1       5.261   6.843  17.148  0.00  0.00    +0.000 C 
ATOM     12  C   UNL     1       3.300   5.088  18.795  0.00  0.00    +0.000 A 
ATOM     13  C   UNL     1       2.819   6.412  19.023  0.00  0.00    +0.000 A 
ENDROOT
BRANCH   1  20
ATOM     14  C   UNL     1       1.664   8.859  17.790  0.00  0.00    +0.000 C 
ATOM     15  C   UNL     1       1.411   9.150  19.250  0.00  0.00    +0.000 A 
ATOM     16  C   UNL     1       0.981  10.455  19.568  0.00  0.00    +0.000 A 
ATOM     17  C   UNL     1       0.649  10.814  20.870  0.00  0.00    +0.000 A 
ATOM     18  C   UNL     1       0.775   9.880  21.886  0.00  0.00    +0.000 A 
ATOM     19  C   UNL     1       1.238   8.596  21.597  0.00  0.00    +0.000 A 
ATOM     20  C   UNL     1       1.552   8.183  20.279  0.00  0.00    +0.000 A 
ENDBRANCH   1  20
TORSDOF 1
ENDMDL
MODEL 6
REMARK VINA RESULT:      -7.0      2.409      6.404
REMARK  Name = 
REMARK  4 active torsions:
REMARK  status: ('A' for Active; 'I' for Inactive)
REMARK    1  A    between atoms: C_1  and  C_2
REMARK    2  A    between atoms: C_7  and  C_8
REMARK    3  A    between atoms: N_16  and  C_17
REMARK    4  A    between atoms: N_16  and  C_18
REMARK                            x       y       z     vdW  Elec       q    Type
REMARK                         _______ _______ _______ _____ _____    ______ ____
ROOT
ATOM      1  C   UNL     1       2.208   7.860  18.670  0.00  0.00    +0.000 A 
ATOM      2  C   UNL     1       3.218   8.131  17.750  0.00  0.00    +0.000 A 
ATOM      3  C   UNL     1       4.115   7.135  17.347  0.00  0.00    +0.000 A 
ATOM      4  C   UNL     1       4.077   5.848  17.868  0.00  0.00    +0.000 A 
ATOM      5  N   UNL     1       4.985   4.982  17.424  0.00  0.00    +0.000 NA
ATOM      6  C   UNL     1       4.963   3.771  17.974  0.00  0.00    +0.000 A 
ATOM      7  N   UNL     1       4.114   3.343  18.918  0.00  0.00    +0.000 NA
ATOM      8  C   UNL     1       3.185   4.213  19.370  0.00  0.00    +0.000 A 
ATOM      9  N   UNL     1       2.382   3.762  20.417  0.00  0.00    +0.000 N 
ATOM     10  C   UNL     1       2.820   2.575  21.148  0.00  0.00    +0.000 C 
ATOM     11  C   UNL     1       0.946   4.006  20.450  0.00  0.00    +0.000 C 
ATOM     12  C   UNL     1       3.121   5.534  18.846  0.00  0.00    +0.000 A 
ATOM     13  C   UNL     1       2.219   6.569  19.235  0.00  0.00    +0.000 A 
ENDROOT
BRANCH   1  20
ATOM     14  C   UNL     1       1.458   8.506  21.599  0.00  0.00    +0.000 C 
ATOM     15  C   UNL     1       0.822   9.164  20.398  0.00  0.00    +0.000 A 
ATOM     16  C   UNL     1      -0.130  10.171  20.660  0.00  0.00    +0.000 A 
ATOM     17  C   UNL     1      -0.726  10.893  19.632  0.00  0.00    +0.000 A 
ATOM     18  C   UNL     1      -0.405  10.596  18.317  0.00  0.00    +0.000 A 
ATOM     19  C   UNL     1       0.504   9.574  18.037  0.00  0.00    +0.000 A 
ATOM     20  C   UNL     1       1.157   8.841  19.057  0.00  0.00    +0.000 A 
ENDBRANCH   1  20
TORSDOF 1
ENDMDL
MODEL 7
REMARK VINA RESULT:      -7.0      2.240      5.967
REMARK  Name = 
REMARK  4 active torsions:
REMARK  status: ('A' for Active; 'I' for Inactive)
REMARK    1  A    between atoms: C_1  and  C_2
REMARK    2  A    between atoms: C_7  and  C_8
REMARK    3  A    between atoms: N_16  and  C_17
REMARK    4  A    between atoms: N_16  and  C_18
REMARK                            x       y       z     vdW  Elec       q    Type
REMARK                         _______ _______ _______ _____ _____    ______ ____
ROOT
ATOM      1  C   UNL     1       2.084   6.907  19.699  0.00  0.00    +0.000 A 
ATOM      2  C   UNL     1       1.429   6.040  20.570  0.00  0.00    +0.000 A 
ATOM      3  C   UNL     1       1.920   4.752  20.812  0.00  0.00    +0.000 A 
ATOM      4  C   UNL     1       3.050   4.257  20.173  0.00  0.00    +0.000 A 
ATOM      5  N   UNL     1       3.424   3.014  20.469  0.00  0.00    +0.000 NA
ATOM      6  C   UNL     1       4.476   2.542  19.808  0.00  0.00    +0.000 A 
ATOM      7  N   UNL     1       5.195   3.198  18.888  0.00  0.00    +0.000 NA
ATOM      8  C   UNL     1       4.828   4.462  18.586  0.00  0.00    +0.000 A 
ATOM      9  N   UNL     1       5.540   5.079  17.558  0.00  0.00    +0.000 N 
ATOM     10  C   UNL     1       6.351   4.229  16.688  0.00  0.00    +0.000 C 
ATOM     11  C   UNL     1       5.984   6.464  17.647  0.00  0.00    +0.000 C 
ATOM     12  C   UNL     1       3.715   5.063  19.237  0.00  0.00    +0.000 A 
ATOM     13  C   UNL     1       3.192   6.372  19.013  0.00  0.00    +0.000 A 
ENDROOT
BRANCH   1  20
ATOM     14  C   UNL     1       0.926   8.721  21.918  0.00  0.00    +0.000 C 
ATOM     15  C   UNL     1       1.168   9.172  20.498  0.00  0.00    +0.000 A 
ATOM     16  C   UNL     1       0.893  10.525  20.209  0.00  0.00    +0.000 A 
ATOM     17  C   UNL     1       1.147  11.067  18.955  0.00  0.00    +0.000 A 
ATOM     18  C   UNL     1       1.650  10.254  17.952  0.00  0.00    +0.000 A 
ATOM     19  C   UNL     1       1.890   8.902  18.207  0.00  0.00    +0.000 A 
ATOM     20  C   UNL     1       1.678   8.323  19.481  0.00  0.00    +0.000 A 
ENDBRANCH   1  20
TORSDOF 1
ENDMDL
MODEL 8
REMARK VINA RESULT:      -6.9      3.674      5.950
REMARK  Name = 
REMARK  4 active torsions:
REMARK  status: ('A' for Active; 'I' for Inactive)
REMARK    1  A    between atoms: C_1  and  C_2
REMARK    2  A    between atoms: C_7  and  C_8
REMARK    3  A    between atoms: N_16  and  C_17
REMARK    4  A    between atoms: N_16  and  C_18
REMARK                            x       y       z     vdW  Elec       q    Type
REMARK                         _______ _______ _______ _____ _____    ______ ____
ROOT
ATOM      1  C   UNL     1       2.229   6.416  19.275  0.00  0.00    +0.000 A 
ATOM      2  C   UNL     1       2.639   6.745  17.985  0.00  0.00    +0.000 A 
ATOM      3  C   UNL     1       2.584   8.066  17.525  0.00  0.00    +0.000 A 
ATOM      4  C   UNL     1       2.083   9.102  18.303  0.00  0.00    +0.000 A 
ATOM      5  N   UNL     1       2.066  10.319  17.763  0.00  0.00    +0.000 NA
ATOM      6  C   UNL     1       1.535  11.285  18.506  0.00  0.00    +0.000 A 
ATOM      7  N   UNL     1       1.029  11.152  19.739  0.00  0.00    +0.000 NA
ATOM      8  C   UNL     1       1.049   9.923  20.298  0.00  0.00    +0.000 A 
ATOM      9  N   UNL     1       0.429   9.806  21.542  0.00  0.00    +0.000 N 
ATOM     10  C   UNL     1      -0.461  10.886  21.963  0.00  0.00    +0.000 C 
ATOM     11  C   UNL     1       1.021   9.041  22.631  0.00  0.00    +0.000 C 
ATOM     12  C   UNL     1       1.596   8.819  19.588  0.00  0.00    +0.000 A 
ATOM     13  C   UNL     1       1.668   7.464  20.031  0.00  0.00    +0.000 A 
ENDROOT
BRANCH   1  20
ATOM     14  C   UNL     1       4.862   4.795  19.267  0.00  0.00    +0.000 C 
ATOM     15  C   UNL     1       3.573   4.311  19.886  0.00  0.00    +0.000 A 
ATOM     16  C   UNL     1       3.617   3.064  20.544  0.00  0.00    +0.000 A 
ATOM     17  C   UNL     1       2.509   2.554  21.211  0.00  0.00    +0.000 A 
ATOM     18  C   UNL     1       1.322   3.269  21.202  0.00  0.00    +0.000 A 
ATOM     19  C   UNL     1       1.247   4.486  20.522  0.00  0.00    +0.000 A 
ATOM     20  C   UNL     1       2.363   5.054  19.862  0.00  0.00    +0.000 A 
ENDBRANCH   1  20
TORSDOF 1
ENDMDL
MODEL 9
REMARK VINA RESULT:      -6.7      3.699      6.482
REMARK  Name = 
REMARK  4 active torsions:
REMARK  status: ('A' for Active; 'I' for Inactive)
REMARK    1  A    between atoms: C_1  and  C_2
REMARK    2  A    between atoms: C_7  and  C_8
REMARK    3  A    between atoms: N_16  and  C_17
REMARK    4  A    between atoms: N_16  and  C_18
REMARK                            x       y       z     vdW  Elec       q    Type
REMARK                         _______ _______ _______ _____ _____    ______ ____
ROOT
ATOM      1  C   UNL     1       1.952   7.711  19.314  0.00  0.00    +0.000 A 
ATOM      2  C   UNL     1       2.201   8.357  18.105  0.00  0.00    +0.000 A 
ATOM      3  C   UNL     1       1.890   9.711  17.932  0.00  0.00    +0.000 A 
ATOM      4  C   UNL     1       1.284  10.465  18.928  0.00  0.00    +0.000 A 
ATOM      5  N   UNL     1       1.022  11.741  18.653  0.00  0.00    +0.000 NA
ATOM      6  C   UNL     1       0.394  12.431  19.601  0.00  0.00    +0.000 A 
ATOM      7  N   UNL     1       0.014  11.969  20.799  0.00  0.00    +0.000 NA
ATOM      8  C   UNL     1       0.282  10.678  21.089  0.00  0.00    +0.000 A 
ATOM      9  N   UNL     1      -0.212  10.208  22.306  0.00  0.00    +0.000 N 
ATOM     10  C   UNL     1      -1.236  11.006  22.978  0.00  0.00    +0.000 C 
ATOM     11  C   UNL     1       0.581   9.363  23.188  0.00  0.00    +0.000 C 
ATOM     12  C   UNL     1       0.951   9.852  20.145  0.00  0.00    +0.000 A 
ATOM     13  C   UNL     1       1.283   8.472  20.293  0.00  0.00    +0.000 A 
ENDROOT
BRANCH   1  20
ATOM     14  C   UNL     1       4.342   6.303  17.950  0.00  0.00    +0.000 C 
ATOM     15  C   UNL     1       3.468   5.659  18.998  0.00  0.00    +0.000 A 
ATOM     16  C   UNL     1       3.821   4.355  19.401  0.00  0.00    +0.000 A 
ATOM     17  C   UNL     1       3.130   3.693  20.410  0.00  0.00    +0.000 A 
ATOM     18  C   UNL     1       2.047   4.313  21.013  0.00  0.00    +0.000 A 
ATOM     19  C   UNL     1       1.657   5.588  20.599  0.00  0.00    +0.000 A 
ATOM     20  C   UNL     1       2.357   6.307  19.600  0.00  0.00    +0.000 A 
ENDBRANCH   1  20
TORSDOF 1
ENDMDL
