MODEL 1
REMARK VINA RESULT:      -8.7      0.000      0.000
REMARK  Name = 
REMARK  4 active torsions:
REMARK  status: ('A' for Active; 'I' for Inactive)
REMARK    1  A    between atoms: C_2  and  C_3
REMARK    2  A    between atoms: C_3  and  S_4
REMARK    3  A    between atoms: S_4  and  C_5
REMARK    4  A    between atoms: N_14  and  C_15
REMARK                            x       y       z     vdW  Elec       q    Type
REMARK                         _______ _______ _______ _____ _____    ______ ____
ROOT
ATOM      1  O   UNL     1       0.842   4.149  20.177  0.00  0.00    +0.000 OA
ATOM      2  C   UNL     1       2.063   4.285  20.250  0.00  0.00    +0.000 C 
ATOM      3  N   UNL     1       2.764   5.471  20.100  0.00  0.00    +0.000 N 
ATOM      4  H   UNL     1       3.763   5.374  19.914  0.00  0.00    +0.000 HD
ENDROOT
BRANCH   3   5
ATOM      5  C   UNL     1       2.207   6.755  19.919  0.00  0.00    +0.000 A 
ATOM      6  C   UNL     1       2.277   7.454  18.714  0.00  0.00    +0.000 A 
ATOM      7  C   UNL     1       1.750   8.744  18.607  0.00  0.00    +0.000 A 
ATOM      8  C   UNL     1       1.131   9.358  19.702  0.00  0.00    +0.000 A 
ATOM      9  C   UNL     1       0.627  10.667  19.610  0.00  0.00    +0.000 A 
ATOM     10  C   UNL     1       0.014  11.270  20.708  0.00  0.00    +0.000 A 
ATOM     11  C   UNL     1      -0.110  10.570  21.904  0.00  0.00    +0.000 A 
ATOM     12  C   UNL     1       0.388   9.269  22.009  0.00  0.00    +0.000 A 
ATOM     13  C   UNL     1       1.019   8.647  20.919  0.00  0.00    +0.000 A 
ATOM     14  C   UNL     1       1.553   7.346  21.007  0.00  0.00    +0.000 A 
ENDBRANCH   3   5
BRANCH   2  15
ATOM     15  C   UNL     1       2.954   3.081  20.501  0.00  0.00    +0.000 C 
BRANCH  15  16
ATOM     16  S   UNL     1       3.647   2.476  18.939  0.00  0.00    +0.000 S 
BRANCH  16  17
ATOM     17  C   UNL     1       4.678   3.786  18.512  0.00  0.00    +0.000 A 
ATOM     18  N   UNL     1       4.482   4.690  17.580  0.00  0.00    +0.000 NA
ATOM     19  C   UNL     1       5.559   5.541  17.702  0.00  0.00    +0.000 A 
ATOM     20  C   UNL     1       5.855   6.720  17.002  0.00  0.00    +0.000 A 
ATOM     21  C   UNL     1       7.029   7.416  17.324  0.00  0.00    +0.000 A 
ATOM     22  C   UNL     1       7.896   6.943  18.313  0.00  0.00    +0.000 A 
ATOM     23  C   UNL     1       7.620   5.769  19.023  0.00  0.00    +0.000 A 
ATOM     24  C   UNL     1       6.438   5.104  18.691  0.00  0.00    +0.000 A 
ATOM     25  N   UNL     1       5.847   3.970  19.186  0.00  0.00    +0.000 N 
ATOM     26  H   UNL     1       6.191   3.381  19.929  0.00  0.00    +0.000 HD
ENDBRANCH  16  17
ENDBRANCH  15  16
ENDBRANCH   2  15
TORSDOF 4
ENDMDL
MODEL 2
REMARK VINA RESULT:      -8.4      1.040      1.661
REMARK  Name = 
REMARK  4 active torsions:
REMARK  status: ('A' for Active; 'I' for Inactive)
REMARK    1  A    between atoms: C_2  and  C_3
REMARK    2  A    between atoms: C_3  and  S_4
REMARK    3  A    between atoms: S_4  and  C_5
REMARK    4  A    between atoms: N_14  and  C_15
REMARK                            x       y       z     vdW  Elec       q    Type
REMARK                         _______ _______ _______ _____ _____    ______ ____
ROOT
ATOM      1  O   UNL     1       0.778   4.298  20.207  0.00  0.00    +0.000 OA
ATOM      2  C   UNL     1       1.951   4.451  20.544  0.00  0.00    +0.000 C 
ATOM      3  N   UNL     1       2.711   5.596  20.363  0.00  0.00    +0.000 N 
ATOM      4  H   UNL     1       3.721   5.473  20.440  0.00  0.00    +0.000 HD
ENDROOT
BRANCH   3   5
ATOM      5  C   UNL     1       2.260   6.826  19.836  0.00  0.00    +0.000 A 
ATOM      6  C   UNL     1       2.498   7.226  18.522  0.00  0.00    +0.000 A 
ATOM      7  C   UNL     1       2.069   8.477  18.070  0.00  0.00    +0.000 A 
ATOM      8  C   UNL     1       1.382   9.350  18.921  0.00  0.00    +0.000 A 
ATOM      9  C   UNL     1       0.977  10.621  18.482  0.00  0.00    +0.000 A 
ATOM     10  C   UNL     1       0.295  11.485  19.339  0.00  0.00    +0.000 A 
ATOM     11  C   UNL     1       0.004  11.083  20.639  0.00  0.00    +0.000 A 
ATOM     12  C   UNL     1       0.403   9.822  21.089  0.00  0.00    +0.000 A 
ATOM     13  C   UNL     1       1.100   8.942  20.245  0.00  0.00    +0.000 A 
ATOM     14  C   UNL     1       1.537   7.676  20.682  0.00  0.00    +0.000 A 
ENDBRANCH   3   5
BRANCH   2  15
ATOM     15  C   UNL     1       2.713   3.315  21.203  0.00  0.00    +0.000 C 
BRANCH  15  16
ATOM     16  S   UNL     1       3.307   2.148  19.950  0.00  0.00    +0.000 S 
BRANCH  16  17
ATOM     17  C   UNL     1       4.276   3.182  18.974  0.00  0.00    +0.000 A 
ATOM     18  N   UNL     1       5.302   3.908  19.350  0.00  0.00    +0.000 NA
ATOM     19  C   UNL     1       5.758   4.481  18.182  0.00  0.00    +0.000 A 
ATOM     20  C   UNL     1       6.864   5.315  17.963  0.00  0.00    +0.000 A 
ATOM     21  C   UNL     1       7.118   5.766  16.660  0.00  0.00    +0.000 A 
ATOM     22  C   UNL     1       6.284   5.404  15.599  0.00  0.00    +0.000 A 
ATOM     23  C   UNL     1       5.176   4.573  15.796  0.00  0.00    +0.000 A 
ATOM     24  C   UNL     1       4.954   4.128  17.100  0.00  0.00    +0.000 A 
ATOM     25  N   UNL     1       4.006   3.301  17.644  0.00  0.00    +0.000 N 
ATOM     26  H   UNL     1       3.253   2.837  17.158  0.00  0.00    +0.000 HD
ENDBRANCH  16  17
ENDBRANCH  15  16
ENDBRANCH   2  15
TORSDOF 4
ENDMDL
MODEL 3
REMARK VINA RESULT:      -8.3      0.693      1.721
REMARK  Name = 
REMARK  4 active torsions:
REMARK  status: ('A' for Active; 'I' for Inactive)
REMARK    1  A    between atoms: C_2  and  C_3
REMARK    2  A    between atoms: C_3  and  S_4
REMARK    3  A    between atoms: S_4  and  C_5
REMARK    4  A    between atoms: N_14  and  C_15
REMARK                            x       y       z     vdW  Elec       q    Type
REMARK                         _______ _______ _______ _____ _____    ______ ____
ROOT
ATOM      1  O   UNL     1       0.739   3.949  19.955  0.00  0.00    +0.000 OA
ATOM      2  C   UNL     1       1.918   4.048  20.288  0.00  0.00    +0.000 C 
ATOM      3  N   UNL     1       2.620   5.230  20.469  0.00  0.00    +0.000 N 
ATOM      4  H   UNL     1       3.638   5.145  20.471  0.00  0.00    +0.000 HD
ENDROOT
BRANCH   3   5
ATOM      5  C   UNL     1       2.093   6.537  20.388  0.00  0.00    +0.000 A 
ATOM      6  C   UNL     1       1.295   7.102  21.382  0.00  0.00    +0.000 A 
ATOM      7  C   UNL     1       0.761   8.384  21.224  0.00  0.00    +0.000 A 
ATOM      8  C   UNL     1       1.025   9.133  20.072  0.00  0.00    +0.000 A 
ATOM      9  C   UNL     1       0.466  10.409  19.894  0.00  0.00    +0.000 A 
ATOM     10  C   UNL     1       0.733  11.147  18.740  0.00  0.00    +0.000 A 
ATOM     11  C   UNL     1       1.567  10.621  17.759  0.00  0.00    +0.000 A 
ATOM     12  C   UNL     1       2.128   9.352  17.923  0.00  0.00    +0.000 A 
ATOM     13  C   UNL     1       1.864   8.589  19.072  0.00  0.00    +0.000 A 
ATOM     14  C   UNL     1       2.395   7.297  19.250  0.00  0.00    +0.000 A 
ENDBRANCH   3   5
BRANCH   2  15
ATOM     15  C   UNL     1       2.758   2.804  20.516  0.00  0.00    +0.000 C 
BRANCH  15  16
ATOM     16  S   UNL     1       3.434   2.206  18.945  0.00  0.00    +0.000 S 
BRANCH  16  17
ATOM     17  C   UNL     1       4.411   3.544  18.480  0.00  0.00    +0.000 A 
ATOM     18  N   UNL     1       4.101   4.514  17.653  0.00  0.00    +0.000 NA
ATOM     19  C   UNL     1       5.193   5.354  17.691  0.00  0.00    +0.000 A 
ATOM     20  C   UNL     1       5.404   6.582  17.046  0.00  0.00    +0.000 A 
ATOM     21  C   UNL     1       6.617   7.252  17.258  0.00  0.00    +0.000 A 
ATOM     22  C   UNL     1       7.604   6.708  18.084  0.00  0.00    +0.000 A 
ATOM     23  C   UNL     1       7.414   5.485  18.736  0.00  0.00    +0.000 A 
ATOM     24  C   UNL     1       6.192   4.846  18.518  0.00  0.00    +0.000 A 
ATOM     25  N   UNL     1       5.662   3.678  19.003  0.00  0.00    +0.000 N 
ATOM     26  H   UNL     1       6.097   3.035  19.648  0.00  0.00    +0.000 HD
ENDBRANCH  16  17
ENDBRANCH  15  16
ENDBRANCH   2  15
TORSDOF 4
ENDMDL
MODEL 4
REMARK VINA RESULT:      -8.3      1.106      1.291
REMARK  Name = 
REMARK  4 active torsions:
REMARK  status: ('A' for Active; 'I' for Inactive)
REMARK    1  A    between atoms: C_2  and  C_3
REMARK    2  A    between atoms: C_3  and  S_4
REMARK    3  A    between atoms: S_4  and  C_5
REMARK    4  A    between atoms: N_14  and  C_15
REMARK                            x       y       z     vdW  Elec       q    Type
REMARK                         _______ _______ _______ _____ _____    ______ ____
ROOT
ATOM      1  O   UNL     1       0.803   4.536  20.341  0.00  0.00    +0.000 OA
ATOM      2  C   UNL     1       2.007   4.697  20.533  0.00  0.00    +0.000 C 
ATOM      3  N   UNL     1       2.730   5.850  20.270  0.00  0.00    +0.000 N 
ATOM      4  H   UNL     1       3.744   5.735  20.222  0.00  0.00    +0.000 HD
ENDROOT
BRANCH   3   5
ATOM      5  C   UNL     1       2.208   7.079  19.813  0.00  0.00    +0.000 A 
ATOM      6  C   UNL     1       2.399   7.554  18.516  0.00  0.00    +0.000 A 
ATOM      7  C   UNL     1       1.900   8.802  18.133  0.00  0.00    +0.000 A 
ATOM      8  C   UNL     1       1.189   9.598  19.039  0.00  0.00    +0.000 A 
ATOM      9  C   UNL     1       0.713  10.866  18.670  0.00  0.00    +0.000 A 
ATOM     10  C   UNL     1       0.007  11.652  19.581  0.00  0.00    +0.000 A 
ATOM     11  C   UNL     1      -0.236  11.175  20.865  0.00  0.00    +0.000 A 
ATOM     12  C   UNL     1       0.234   9.915  21.245  0.00  0.00    +0.000 A 
ATOM     13  C   UNL     1       0.955   9.113  20.347  0.00  0.00    +0.000 A 
ATOM     14  C   UNL     1       1.463   7.851  20.713  0.00  0.00    +0.000 A 
ENDBRANCH   3   5
BRANCH   2  15
ATOM     15  C   UNL     1       2.853   3.562  21.084  0.00  0.00    +0.000 C 
BRANCH  15  16
ATOM     16  S   UNL     1       3.063   2.270  19.832  0.00  0.00    +0.000 S 
BRANCH  16  17
ATOM     17  C   UNL     1       4.067   3.079  18.693  0.00  0.00    +0.000 A 
ATOM     18  N   UNL     1       3.824   3.295  17.422  0.00  0.00    +0.000 NA
ATOM     19  C   UNL     1       4.902   4.040  16.992  0.00  0.00    +0.000 A 
ATOM     20  C   UNL     1       5.160   4.604  15.734  0.00  0.00    +0.000 A 
ATOM     21  C   UNL     1       6.344   5.332  15.554  0.00  0.00    +0.000 A 
ATOM     22  C   UNL     1       7.258   5.488  16.600  0.00  0.00    +0.000 A 
ATOM     23  C   UNL     1       7.020   4.934  17.863  0.00  0.00    +0.000 A 
ATOM     24  C   UNL     1       5.827   4.225  18.018  0.00  0.00    +0.000 A 
ATOM     25  N   UNL     1       5.265   3.588  19.094  0.00  0.00    +0.000 N 
ATOM     26  H   UNL     1       5.646   3.519  20.026  0.00  0.00    +0.000 HD
ENDBRANCH  16  17
ENDBRANCH  15  16
ENDBRANCH   2  15
TORSDOF 4
ENDMDL
MODEL 5
REMARK VINA RESULT:      -8.3      2.830      3.377
REMARK  Name = 
REMARK  4 active torsions:
REMARK  status: ('A' for Active; 'I' for Inactive)
REMARK    1  A    between atoms: C_2  and  C_3
REMARK    2  A    between atoms: C_3  and  S_4
REMARK    3  A    between atoms: S_4  and  C_5
REMARK    4  A    between atoms: N_14  and  C_15
REMARK                            x       y       z     vdW  Elec       q    Type
REMARK                         _______ _______ _______ _____ _____    ______ ____
ROOT
ATOM      1  O   UNL     1       2.434   4.282  18.513  0.00  0.00    +0.000 OA
ATOM      2  C   UNL     1       3.550   4.792  18.436  0.00  0.00    +0.000 C 
ATOM      3  N   UNL     1       3.831   6.150  18.454  0.00  0.00    +0.000 N 
ATOM      4  H   UNL     1       4.754   6.415  18.108  0.00  0.00    +0.000 HD
ENDROOT
BRANCH   3   5
ATOM      5  C   UNL     1       2.902   7.195  18.649  0.00  0.00    +0.000 A 
ATOM      6  C   UNL     1       2.583   8.125  17.660  0.00  0.00    +0.000 A 
ATOM      7  C   UNL     1       1.691   9.168  17.926  0.00  0.00    +0.000 A 
ATOM      8  C   UNL     1       1.091   9.296  19.184  0.00  0.00    +0.000 A 
ATOM      9  C   UNL     1       0.219  10.360  19.466  0.00  0.00    +0.000 A 
ATOM     10  C   UNL     1      -0.371  10.479  20.724  0.00  0.00    +0.000 A 
ATOM     11  C   UNL     1      -0.103   9.533  21.708  0.00  0.00    +0.000 A 
ATOM     12  C   UNL     1       0.764   8.471  21.441  0.00  0.00    +0.000 A 
ATOM     13  C   UNL     1       1.377   8.338  20.184  0.00  0.00    +0.000 A 
ATOM     14  C   UNL     1       2.275   7.292  19.897  0.00  0.00    +0.000 A 
ENDBRANCH   3   5
BRANCH   2  15
ATOM     15  C   UNL     1       4.783   3.920  18.278  0.00  0.00    +0.000 C 
BRANCH  15  16
ATOM     16  S   UNL     1       6.255   4.950  18.038  0.00  0.00    +0.000 S 
BRANCH  16  17
ATOM     17  C   UNL     1       6.464   4.827  16.334  0.00  0.00    +0.000 A 
ATOM     18  N   UNL     1       7.345   5.450  15.588  0.00  0.00    +0.000 NA
ATOM     19  C   UNL     1       7.136   4.945  14.322  0.00  0.00    +0.000 A 
ATOM     20  C   UNL     1       7.820   5.206  13.127  0.00  0.00    +0.000 A 
ATOM     21  C   UNL     1       7.408   4.549  11.959  0.00  0.00    +0.000 A 
ATOM     22  C   UNL     1       6.330   3.659  11.978  0.00  0.00    +0.000 A 
ATOM     23  C   UNL     1       5.634   3.385  13.159  0.00  0.00    +0.000 A 
ATOM     24  C   UNL     1       6.074   4.042  14.309  0.00  0.00    +0.000 A 
ATOM     25  N   UNL     1       5.659   3.996  15.615  0.00  0.00    +0.000 N 
ATOM     26  H   UNL     1       4.910   3.436  15.995  0.00  0.00    +0.000 HD
ENDBRANCH  16  17
ENDBRANCH  15  16
ENDBRANCH   2  15
TORSDOF 4
ENDMDL
MODEL 6
REMARK VINA RESULT:      -8.2      2.121      4.080
REMARK  Name = 
REMARK  4 active torsions:
REMARK  status: ('A' for Active; 'I' for Inactive)
REMARK    1  A    between atoms: C_2  and  C_3
REMARK    2  A    between atoms: C_3  and  S_4
REMARK    3  A    between atoms: S_4  and  C_5
REMARK    4  A    between atoms: N_14  and  C_15
REMARK                            x       y       z     vdW  Elec       q    Type
REMARK                         _______ _______ _______ _____ _____    ______ ____
ROOT
ATOM      1  O   UNL     1       5.774   6.396  18.227  0.00  0.00    +0.000 OA
ATOM      2  C   UNL     1       5.060   6.273  17.233  0.00  0.00    +0.000 C 
ATOM      3  N   UNL     1       3.720   6.617  17.142  0.00  0.00    +0.000 N 
ATOM      4  H   UNL     1       3.210   6.204  16.360  0.00  0.00    +0.000 HD
ENDROOT
BRANCH   3   5
ATOM      5  C   UNL     1       2.947   7.247  18.141  0.00  0.00    +0.000 A 
ATOM      6  C   UNL     1       2.723   6.687  19.399  0.00  0.00    +0.000 A 
ATOM      7  C   UNL     1       1.908   7.335  20.331  0.00  0.00    +0.000 A 
ATOM      8  C   UNL     1       1.309   8.563  20.029  0.00  0.00    +0.000 A 
ATOM      9  C   UNL     1       0.464   9.203  20.950  0.00  0.00    +0.000 A 
ATOM     10  C   UNL     1      -0.130  10.427  20.638  0.00  0.00    +0.000 A 
ATOM     11  C   UNL     1       0.122  11.025  19.407  0.00  0.00    +0.000 A 
ATOM     12  C   UNL     1       0.959  10.397  18.481  0.00  0.00    +0.000 A 
ATOM     13  C   UNL     1       1.558   9.161  18.772  0.00  0.00    +0.000 A 
ATOM     14  C   UNL     1       2.385   8.495  17.846  0.00  0.00    +0.000 A 
ENDBRANCH   3   5
BRANCH   2  15
ATOM     15  C   UNL     1       5.621   5.673  15.956  0.00  0.00    +0.000 C 
BRANCH  15  16
ATOM     16  S   UNL     1       5.651   3.865  16.072  0.00  0.00    +0.000 S 
BRANCH  16  17
ATOM     17  C   UNL     1       4.385   3.590  17.205  0.00  0.00    +0.000 A 
ATOM     18  N   UNL     1       3.093   3.579  16.976  0.00  0.00    +0.000 NA
ATOM     19  C   UNL     1       2.537   3.241  18.191  0.00  0.00    +0.000 A 
ATOM     20  C   UNL     1       1.194   3.030  18.535  0.00  0.00    +0.000 A 
ATOM     21  C   UNL     1       0.885   2.684  19.859  0.00  0.00    +0.000 A 
ATOM     22  C   UNL     1       1.891   2.562  20.821  0.00  0.00    +0.000 A 
ATOM     23  C   UNL     1       3.236   2.769  20.499  0.00  0.00    +0.000 A 
ATOM     24  C   UNL     1       3.516   3.099  19.172  0.00  0.00    +0.000 A 
ATOM     25  N   UNL     1       4.691   3.338  18.508  0.00  0.00    +0.000 N 
ATOM     26  H   UNL     1       5.623   3.313  18.895  0.00  0.00    +0.000 HD
ENDBRANCH  16  17
ENDBRANCH  15  16
ENDBRANCH   2  15
TORSDOF 4
ENDMDL
MODEL 7
REMARK VINA RESULT:      -8.1      4.344      6.449
REMARK  Name = 
REMARK  4 active torsions:
REMARK  status: ('A' for Active; 'I' for Inactive)
REMARK    1  A    between atoms: C_2  and  C_3
REMARK    2  A    between atoms: C_3  and  S_4
REMARK    3  A    between atoms: S_4  and  C_5
REMARK    4  A    between atoms: N_14  and  C_15
REMARK                            x       y       z     vdW  Elec       q    Type
REMARK                         _______ _______ _______ _____ _____    ______ ____
ROOT
ATOM      1  O   UNL     1       7.421   5.287  20.036  0.00  0.00    +0.000 OA
ATOM      2  C   UNL     1       7.309   5.987  19.032  0.00  0.00    +0.000 C 
ATOM      3  N   UNL     1       6.288   5.917  18.097  0.00  0.00    +0.000 N 
ATOM      4  H   UNL     1       6.480   6.361  17.197  0.00  0.00    +0.000 HD
ENDROOT
BRANCH   3   5
ATOM      5  C   UNL     1       5.145   5.091  18.164  0.00  0.00    +0.000 A 
ATOM      6  C   UNL     1       4.853   4.114  17.213  0.00  0.00    +0.000 A 
ATOM      7  C   UNL     1       3.681   3.358  17.306  0.00  0.00    +0.000 A 
ATOM      8  C   UNL     1       2.782   3.556  18.360  0.00  0.00    +0.000 A 
ATOM      9  C   UNL     1       1.587   2.821  18.441  0.00  0.00    +0.000 A 
ATOM     10  C   UNL     1       0.697   3.027  19.495  0.00  0.00    +0.000 A 
ATOM     11  C   UNL     1       0.995   3.963  20.481  0.00  0.00    +0.000 A 
ATOM     12  C   UNL     1       2.179   4.701  20.411  0.00  0.00    +0.000 A 
ATOM     13  C   UNL     1       3.084   4.516  19.353  0.00  0.00    +0.000 A 
ATOM     14  C   UNL     1       4.271   5.266  19.245  0.00  0.00    +0.000 A 
ENDBRANCH   3   5
BRANCH   2  15
ATOM     15  C   UNL     1       8.361   7.032  18.703  0.00  0.00    +0.000 C 
BRANCH  15  16
ATOM     16  S   UNL     1       7.639   8.358  17.702  0.00  0.00    +0.000 S 
BRANCH  16  17
ATOM     17  C   UNL     1       8.548   9.712  18.249  0.00  0.00    +0.000 A 
ATOM     18  N   UNL     1       8.916  10.764  17.556  0.00  0.00    +0.000 NA
ATOM     19  C   UNL     1       9.548  11.572  18.476  0.00  0.00    +0.000 A 
ATOM     20  C   UNL     1      10.102  12.851  18.317  0.00  0.00    +0.000 A 
ATOM     21  C   UNL     1      10.692  13.471  19.428  0.00  0.00    +0.000 A 
ATOM     22  C   UNL     1      10.741  12.827  20.668  0.00  0.00    +0.000 A 
ATOM     23  C   UNL     1      10.195  11.552  20.848  0.00  0.00    +0.000 A 
ATOM     24  C   UNL     1       9.602  10.964  19.729  0.00  0.00    +0.000 A 
ATOM     25  N   UNL     1       8.958   9.768  19.547  0.00  0.00    +0.000 N 
ATOM     26  H   UNL     1       8.791   9.056  20.243  0.00  0.00    +0.000 HD
ENDBRANCH  16  17
ENDBRANCH  15  16
ENDBRANCH   2  15
TORSDOF 4
ENDMDL
MODEL 8
REMARK VINA RESULT:      -8.1      2.862      3.357
REMARK  Name = 
REMARK  4 active torsions:
REMARK  status: ('A' for Active; 'I' for Inactive)
REMARK    1  A    between atoms: C_2  and  C_3
REMARK    2  A    between atoms: C_3  and  S_4
REMARK    3  A    between atoms: S_4  and  C_5
REMARK    4  A    between atoms: N_14  and  C_15
REMARK                            x       y       z     vdW  Elec       q    Type
REMARK                         _______ _______ _______ _____ _____    ______ ____
ROOT
ATOM      1  O   UNL     1       2.720   4.227  18.753  0.00  0.00    +0.000 OA
ATOM      2  C   UNL     1       3.810   4.781  18.625  0.00  0.00    +0.000 C 
ATOM      3  N   UNL     1       4.029   6.147  18.543  0.00  0.00    +0.000 N 
ATOM      4  H   UNL     1       4.935   6.429  18.166  0.00  0.00    +0.000 HD
ENDROOT
BRANCH   3   5
ATOM      5  C   UNL     1       3.054   7.160  18.674  0.00  0.00    +0.000 A 
ATOM      6  C   UNL     1       2.736   8.050  17.648  0.00  0.00    +0.000 A 
ATOM      7  C   UNL     1       1.796   9.064  17.852  0.00  0.00    +0.000 A 
ATOM      8  C   UNL     1       1.147   9.203  19.084  0.00  0.00    +0.000 A 
ATOM      9  C   UNL     1       0.225  10.240  19.304  0.00  0.00    +0.000 A 
ATOM     10  C   UNL     1      -0.415  10.371  20.537  0.00  0.00    +0.000 A 
ATOM     11  C   UNL     1      -0.146   9.464  21.556  0.00  0.00    +0.000 A 
ATOM     12  C   UNL     1       0.769   8.429  21.351  0.00  0.00    +0.000 A 
ATOM     13  C   UNL     1       1.432   8.286  20.121  0.00  0.00    +0.000 A 
ATOM     14  C   UNL     1       2.379   7.267  19.896  0.00  0.00    +0.000 A 
ENDBRANCH   3   5
BRANCH   2  15
ATOM     15  C   UNL     1       5.081   3.956  18.514  0.00  0.00    +0.000 C 
BRANCH  15  16
ATOM     16  S   UNL     1       6.473   5.009  18.027  0.00  0.00    +0.000 S 
BRANCH  16  17
ATOM     17  C   UNL     1       6.558   4.676  16.340  0.00  0.00    +0.000 A 
ATOM     18  N   UNL     1       5.845   3.813  15.657  0.00  0.00    +0.000 NA
ATOM     19  C   UNL     1       6.252   3.994  14.352  0.00  0.00    +0.000 A 
ATOM     20  C   UNL     1       5.796   3.381  13.176  0.00  0.00    +0.000 A 
ATOM     21  C   UNL     1       6.379   3.751  11.956  0.00  0.00    +0.000 A 
ATOM     22  C   UNL     1       7.402   4.703  11.908  0.00  0.00    +0.000 A 
ATOM     23  C   UNL     1       7.871   5.326  13.069  0.00  0.00    +0.000 A 
ATOM     24  C   UNL     1       7.263   4.949  14.268  0.00  0.00    +0.000 A 
ATOM     25  N   UNL     1       7.443   5.361  15.563  0.00  0.00    +0.000 N 
ATOM     26  H   UNL     1       8.092   6.059  15.894  0.00  0.00    +0.000 HD
ENDBRANCH  16  17
ENDBRANCH  15  16
ENDBRANCH   2  15
TORSDOF 4
ENDMDL
MODEL 9
REMARK VINA RESULT:      -8.0      1.051      2.205
REMARK  Name = 
REMARK  4 active torsions:
REMARK  status: ('A' for Active; 'I' for Inactive)
REMARK    1  A    between atoms: C_2  and  C_3
REMARK    2  A    between atoms: C_3  and  S_4
REMARK    3  A    between atoms: S_4  and  C_5
REMARK    4  A    between atoms: N_14  and  C_15
REMARK                            x       y       z     vdW  Elec       q    Type
REMARK                         _______ _______ _______ _____ _____    ______ ____
ROOT
ATOM      1  O   UNL     1       1.053   3.924  18.321  0.00  0.00    +0.000 OA
ATOM      2  C   UNL     1       1.885   3.741  19.208  0.00  0.00    +0.000 C 
ATOM      3  N   UNL     1       2.421   4.711  20.040  0.00  0.00    +0.000 N 
ATOM      4  H   UNL     1       3.284   4.454  20.522  0.00  0.00    +0.000 HD
ENDROOT
BRANCH   3   5
ATOM      5  C   UNL     1       2.053   6.073  20.083  0.00  0.00    +0.000 A 
ATOM      6  C   UNL     1       1.362   6.643  21.152  0.00  0.00    +0.000 A 
ATOM      7  C   UNL     1       0.981   7.988  21.117  0.00  0.00    +0.000 A 
ATOM      8  C   UNL     1       1.294   8.794  20.017  0.00  0.00    +0.000 A 
ATOM      9  C   UNL     1       0.886  10.137  19.963  0.00  0.00    +0.000 A 
ATOM     10  C   UNL     1       1.201  10.931  18.860  0.00  0.00    +0.000 A 
ATOM     11  C   UNL     1       1.933  10.393  17.806  0.00  0.00    +0.000 A 
ATOM     12  C   UNL     1       2.343   9.058  17.846  0.00  0.00    +0.000 A 
ATOM     13  C   UNL     1       2.027   8.239  18.942  0.00  0.00    +0.000 A 
ATOM     14  C   UNL     1       2.406   6.883  18.996  0.00  0.00    +0.000 A 
ENDBRANCH   3   5
BRANCH   2  15
ATOM     15  C   UNL     1       2.445   2.351  19.458  0.00  0.00    +0.000 C 
BRANCH  15  16
ATOM     16  S   UNL     1       3.609   1.898  18.145  0.00  0.00    +0.000 S 
BRANCH  16  17
ATOM     17  C   UNL     1       4.666   3.255  18.163  0.00  0.00    +0.000 A 
ATOM     18  N   UNL     1       5.395   3.691  19.164  0.00  0.00    +0.000 NA
ATOM     19  C   UNL     1       6.104   4.746  18.633  0.00  0.00    +0.000 A 
ATOM     20  C   UNL     1       7.079   5.561  19.225  0.00  0.00    +0.000 A 
ATOM     21  C   UNL     1       7.662   6.579  18.457  0.00  0.00    +0.000 A 
ATOM     22  C   UNL     1       7.275   6.789  17.131  0.00  0.00    +0.000 A 
ATOM     23  C   UNL     1       6.304   5.988  16.521  0.00  0.00    +0.000 A 
ATOM     24  C   UNL     1       5.750   4.974  17.304  0.00  0.00    +0.000 A 
ATOM     25  N   UNL     1       4.819   4.005  17.036  0.00  0.00    +0.000 N 
ATOM     26  H   UNL     1       4.340   3.847  16.161  0.00  0.00    +0.000 HD
ENDBRANCH  16  17
ENDBRANCH  15  16
ENDBRANCH   2  15
TORSDOF 4
ENDMDL
