MODEL 1
REMARK VINA RESULT:      -7.7      0.000      0.000
REMARK  Name = 
REMARK  3 active torsions:
REMARK  status: ('A' for Active; 'I' for Inactive)
REMARK    1  A    between atoms: C_1  and  N_2
REMARK    2  A    between atoms: N_5  and  C_6
REMARK    3  A    between atoms: C_6  and  C_7
REMARK                            x       y       z     vdW  Elec       q    Type
REMARK                         _______ _______ _______ _____ _____    ______ ____
ROOT
ATOM      1  C   UNL     1       3.896   4.493  17.670  0.00  0.00    +0.000 C 
ATOM      2  C   UNL     1       2.365   4.288  17.670  0.00  0.00    +0.000 C 
ATOM      3  C   UNL     1       2.066   3.734  19.030  0.00  0.00    +0.000 A 
ATOM      4  C   UNL     1       0.825   3.459  19.579  0.00  0.00    +0.000 A 
ATOM      5  C   UNL     1       0.769   2.919  20.870  0.00  0.00    +0.000 A 
ATOM      6  C   UNL     1       1.944   2.659  21.595  0.00  0.00    +0.000 A 
ATOM      7  C   UNL     1       3.193   2.933  21.037  0.00  0.00    +0.000 A 
ATOM      8  C   UNL     1       3.217   3.466  19.760  0.00  0.00    +0.000 A 
ATOM      9  C   UNL     1       4.370   3.849  18.959  0.00  0.00    +0.000 C 
ATOM     10  O   UNL     1       5.525   3.696  19.311  0.00  0.00    +0.000 OA
ENDROOT
BRANCH   1  11
ATOM     11  C   UNL     1       4.615   3.870  16.471  0.00  0.00    +0.000 C 
BRANCH  11  16
ATOM     12  C   UNL     1       7.940   6.587  18.584  0.00  0.00    +0.000 C 
ATOM     13  N   UNL     1       7.303   6.305  17.300  0.00  0.00    +0.000 NA
ATOM     14  C   UNL     1       5.864   6.617  17.346  0.00  0.00    +0.000 C 
ATOM     15  C   UNL     1       5.141   6.245  16.028  0.00  0.00    +0.000 C 
ATOM     16  N   UNL     1       5.313   4.838  15.599  0.00  0.00    +0.000 NA
ATOM     17  C   UNL     1       6.774   4.563  15.579  0.00  0.00    +0.000 C 
ATOM     18  C   UNL     1       7.512   4.901  16.899  0.00  0.00    +0.000 C 
ENDBRANCH  11  16
ENDBRANCH   1  11
TORSDOF 2
ENDMDL
MODEL 2
REMARK VINA RESULT:      -7.6      2.499      6.314
REMARK  Name = 
REMARK  3 active torsions:
REMARK  status: ('A' for Active; 'I' for Inactive)
REMARK    1  A    between atoms: C_1  and  N_2
REMARK    2  A    between atoms: N_5  and  C_6
REMARK    3  A    between atoms: C_6  and  C_7
REMARK                            x       y       z     vdW  Elec       q    Type
REMARK                         _______ _______ _______ _____ _____    ______ ____
ROOT
ATOM      1  C   UNL     1       5.809   4.491  16.592  0.00  0.00    +0.000 C 
ATOM      2  C   UNL     1       5.161   3.664  15.460  0.00  0.00    +0.000 C 
ATOM      3  C   UNL     1       5.987   3.981  14.252  0.00  0.00    +0.000 A 
ATOM      4  C   UNL     1       5.884   3.429  12.986  0.00  0.00    +0.000 A 
ATOM      5  C   UNL     1       6.749   3.887  11.983  0.00  0.00    +0.000 A 
ATOM      6  C   UNL     1       7.699   4.887  12.251  0.00  0.00    +0.000 A 
ATOM      7  C   UNL     1       7.796   5.445  13.526  0.00  0.00    +0.000 A 
ATOM      8  C   UNL     1       6.929   4.972  14.496  0.00  0.00    +0.000 A 
ATOM      9  C   UNL     1       6.828   5.369  15.893  0.00  0.00    +0.000 C 
ATOM     10  O   UNL     1       7.496   6.251  16.400  0.00  0.00    +0.000 OA
ENDROOT
BRANCH   1  11
ATOM     11  C   UNL     1       4.823   5.353  17.387  0.00  0.00    +0.000 C 
BRANCH  11  16
ATOM     12  C   UNL     1       1.077   2.856  19.011  0.00  0.00    +0.000 C 
ATOM     13  N   UNL     1       2.323   3.497  19.423  0.00  0.00    +0.000 NA
ATOM     14  C   UNL     1       2.275   4.950  19.180  0.00  0.00    +0.000 C 
ATOM     15  C   UNL     1       3.614   5.647  19.523  0.00  0.00    +0.000 C 
ATOM     16  N   UNL     1       4.802   5.086  18.840  0.00  0.00    +0.000 NA
ATOM     17  C   UNL     1       4.805   3.622  19.100  0.00  0.00    +0.000 C 
ATOM     18  C   UNL     1       3.483   2.899  18.736  0.00  0.00    +0.000 C 
ENDBRANCH  11  16
ENDBRANCH   1  11
TORSDOF 2
ENDMDL
MODEL 3
REMARK VINA RESULT:      -7.1      2.102      5.869
REMARK  Name = 
REMARK  3 active torsions:
REMARK  status: ('A' for Active; 'I' for Inactive)
REMARK    1  A    between atoms: C_1  and  N_2
REMARK    2  A    between atoms: N_5  and  C_6
REMARK    3  A    between atoms: C_6  and  C_7
REMARK                            x       y       z     vdW  Elec       q    Type
REMARK                         _______ _______ _______ _____ _____    ______ ____
ROOT
ATOM      1  C   UNL     1       4.544   4.721  17.416  0.00  0.00    +0.000 C 
ATOM      2  C   UNL     1       4.752   6.085  16.722  0.00  0.00    +0.000 C 
ATOM      3  C   UNL     1       6.030   6.605  17.305  0.00  0.00    +0.000 A 
ATOM      4  C   UNL     1       6.715   7.756  16.954  0.00  0.00    +0.000 A 
ATOM      5  C   UNL     1       7.891   8.073  17.646  0.00  0.00    +0.000 A 
ATOM      6  C   UNL     1       8.367   7.245  18.676  0.00  0.00    +0.000 A 
ATOM      7  C   UNL     1       7.672   6.088  19.030  0.00  0.00    +0.000 A 
ATOM      8  C   UNL     1       6.514   5.801  18.328  0.00  0.00    +0.000 A 
ATOM      9  C   UNL     1       5.616   4.666  18.487  0.00  0.00    +0.000 C 
ATOM     10  O   UNL     1       5.751   3.805  19.336  0.00  0.00    +0.000 OA
ENDROOT
BRANCH   1  11
ATOM     11  C   UNL     1       3.159   4.537  18.042  0.00  0.00    +0.000 C 
BRANCH  11  16
ATOM     12  C   UNL     1       1.370   2.540  22.007  0.00  0.00    +0.000 C 
ATOM     13  N   UNL     1       1.572   2.323  20.577  0.00  0.00    +0.000 NA
ATOM     14  C   UNL     1       3.008   2.301  20.244  0.00  0.00    +0.000 C 
ATOM     15  C   UNL     1       3.255   2.162  18.723  0.00  0.00    +0.000 C 
ATOM     16  N   UNL     1       2.586   3.184  17.886  0.00  0.00    +0.000 NA
ATOM     17  C   UNL     1       1.147   3.181  18.261  0.00  0.00    +0.000 C 
ATOM     18  C   UNL     1       0.876   3.348  19.778  0.00  0.00    +0.000 C 
ENDBRANCH  11  16
ENDBRANCH   1  11
TORSDOF 2
ENDMDL
MODEL 4
REMARK VINA RESULT:      -7.0      2.491      6.313
REMARK  Name = 
REMARK  3 active torsions:
REMARK  status: ('A' for Active; 'I' for Inactive)
REMARK    1  A    between atoms: C_1  and  N_2
REMARK    2  A    between atoms: N_5  and  C_6
REMARK    3  A    between atoms: C_6  and  C_7
REMARK                            x       y       z     vdW  Elec       q    Type
REMARK                         _______ _______ _______ _____ _____    ______ ____
ROOT
ATOM      1  C   UNL     1       5.933   4.289  16.634  0.00  0.00    +0.000 C 
ATOM      2  C   UNL     1       5.312   3.478  15.475  0.00  0.00    +0.000 C 
ATOM      3  C   UNL     1       6.083   3.910  14.266  0.00  0.00    +0.000 A 
ATOM      4  C   UNL     1       5.985   3.416  12.976  0.00  0.00    +0.000 A 
ATOM      5  C   UNL     1       6.791   3.981  11.979  0.00  0.00    +0.000 A 
ATOM      6  C   UNL     1       7.680   5.028  12.277  0.00  0.00    +0.000 A 
ATOM      7  C   UNL     1       7.773   5.527  13.577  0.00  0.00    +0.000 A 
ATOM      8  C   UNL     1       6.965   4.948  14.541  0.00  0.00    +0.000 A 
ATOM      9  C   UNL     1       6.873   5.268  15.958  0.00  0.00    +0.000 C 
ATOM     10  O   UNL     1       7.495   6.166  16.494  0.00  0.00    +0.000 OA
ENDROOT
BRANCH   1  11
ATOM     11  C   UNL     1       4.913   5.042  17.493  0.00  0.00    +0.000 C 
BRANCH  11  16
ATOM     12  C   UNL     1       2.384   4.063  21.437  0.00  0.00    +0.000 C 
ATOM     13  N   UNL     1       2.297   4.142  19.981  0.00  0.00    +0.000 NA
ATOM     14  C   UNL     1       3.202   3.167  19.345  0.00  0.00    +0.000 C 
ATOM     15  C   UNL     1       3.200   3.286  17.802  0.00  0.00    +0.000 C 
ATOM     16  N   UNL     1       3.508   4.637  17.280  0.00  0.00    +0.000 NA
ATOM     17  C   UNL     1       2.584   5.587  17.954  0.00  0.00    +0.000 C 
ATOM     18  C   UNL     1       2.592   5.505  19.502  0.00  0.00    +0.000 C 
ENDBRANCH  11  16
ENDBRANCH   1  11
TORSDOF 2
ENDMDL
MODEL 5
REMARK VINA RESULT:      -7.0      1.413      2.116
REMARK  Name = 
REMARK  3 active torsions:
REMARK  status: ('A' for Active; 'I' for Inactive)
REMARK    1  A    between atoms: C_1  and  N_2
REMARK    2  A    between atoms: N_5  and  C_6
REMARK    3  A    between atoms: C_6  and  C_7
REMARK                            x       y       z     vdW  Elec       q    Type
REMARK                         _______ _______ _______ _____ _____    ______ ____
ROOT
ATOM      1  C   UNL     1       4.328   3.267  17.821  0.00  0.00    +0.000 C 
ATOM      2  C   UNL     1       4.607   3.229  19.340  0.00  0.00    +0.000 C 
ATOM      3  C   UNL     1       3.257   3.035  19.959  0.00  0.00    +0.000 A 
ATOM      4  C   UNL     1       2.958   2.842  21.297  0.00  0.00    +0.000 A 
ATOM      5  C   UNL     1       1.614   2.702  21.670  0.00  0.00    +0.000 A 
ATOM      6  C   UNL     1       0.590   2.758  20.709  0.00  0.00    +0.000 A 
ATOM      7  C   UNL     1       0.895   2.958  19.363  0.00  0.00    +0.000 A 
ATOM      8  C   UNL     1       2.230   3.092  19.025  0.00  0.00    +0.000 A 
ATOM      9  C   UNL     1       2.816   3.295  17.708  0.00  0.00    +0.000 C 
ATOM     10  O   UNL     1       2.167   3.430  16.688  0.00  0.00    +0.000 OA
ENDROOT
BRANCH   1  11
ATOM     11  C   UNL     1       4.936   4.474  17.100  0.00  0.00    +0.000 C 
BRANCH  11  16
ATOM     12  C   UNL     1       7.768   8.302  17.580  0.00  0.00    +0.000 C 
ATOM     13  N   UNL     1       7.754   6.903  17.161  0.00  0.00    +0.000 NA
ATOM     14  C   UNL     1       6.858   6.706  16.007  0.00  0.00    +0.000 C 
ATOM     15  C   UNL     1       6.751   5.218  15.595  0.00  0.00    +0.000 C 
ATOM     16  N   UNL     1       6.342   4.298  16.680  0.00  0.00    +0.000 NA
ATOM     17  C   UNL     1       7.260   4.537  17.825  0.00  0.00    +0.000 C 
ATOM     18  C   UNL     1       7.361   6.018  18.273  0.00  0.00    +0.000 C 
ENDBRANCH  11  16
ENDBRANCH   1  11
TORSDOF 2
ENDMDL
MODEL 6
REMARK VINA RESULT:      -6.8      4.072      4.731
REMARK  Name = 
REMARK  3 active torsions:
REMARK  status: ('A' for Active; 'I' for Inactive)
REMARK    1  A    between atoms: C_1  and  N_2
REMARK    2  A    between atoms: N_5  and  C_6
REMARK    3  A    between atoms: C_6  and  C_7
REMARK                            x       y       z     vdW  Elec       q    Type
REMARK                         _______ _______ _______ _____ _____    ______ ____
ROOT
ATOM      1  C   UNL     1       2.546   6.994  18.303  0.00  0.00    +0.000 C 
ATOM      2  C   UNL     1       2.357   6.715  19.810  0.00  0.00    +0.000 C 
ATOM      3  C   UNL     1       1.643   7.927  20.324  0.00  0.00    +0.000 A 
ATOM      4  C   UNL     1       1.154   8.144  21.601  0.00  0.00    +0.000 A 
ATOM      5  C   UNL     1       0.531   9.368  21.881  0.00  0.00    +0.000 A 
ATOM      6  C   UNL     1       0.407  10.357  20.890  0.00  0.00    +0.000 A 
ATOM      7  C   UNL     1       0.907  10.136  19.606  0.00  0.00    +0.000 A 
ATOM      8  C   UNL     1       1.515   8.918  19.359  0.00  0.00    +0.000 A 
ATOM      9  C   UNL     1       2.104   8.433  18.120  0.00  0.00    +0.000 C 
ATOM     10  O   UNL     1       2.183   9.093  17.100  0.00  0.00    +0.000 OA
ENDROOT
BRANCH   1  11
ATOM     11  C   UNL     1       3.983   6.814  17.804  0.00  0.00    +0.000 C 
BRANCH  11  16
ATOM     12  C   UNL     1       6.877   4.514  14.763  0.00  0.00    +0.000 C 
ATOM     13  N   UNL     1       6.383   4.511  16.138  0.00  0.00    +0.000 NA
ATOM     14  C   UNL     1       4.926   4.298  16.175  0.00  0.00    +0.000 C 
ATOM     15  C   UNL     1       4.358   4.378  17.613  0.00  0.00    +0.000 C 
ATOM     16  N   UNL     1       4.678   5.626  18.342  0.00  0.00    +0.000 NA
ATOM     17  C   UNL     1       6.152   5.808  18.269  0.00  0.00    +0.000 C 
ATOM     18  C   UNL     1       6.738   5.761  16.835  0.00  0.00    +0.000 C 
ENDBRANCH  11  16
ENDBRANCH   1  11
TORSDOF 2
ENDMDL
MODEL 7
REMARK VINA RESULT:      -6.8      2.633      6.365
REMARK  Name = 
REMARK  3 active torsions:
REMARK  status: ('A' for Active; 'I' for Inactive)
REMARK    1  A    between atoms: C_1  and  N_2
REMARK    2  A    between atoms: N_5  and  C_6
REMARK    3  A    between atoms: C_6  and  C_7
REMARK                            x       y       z     vdW  Elec       q    Type
REMARK                         _______ _______ _______ _____ _____    ______ ____
ROOT
ATOM      1  C   UNL     1       6.081   4.108  16.411  0.00  0.00    +0.000 C 
ATOM      2  C   UNL     1       5.489   3.298  15.236  0.00  0.00    +0.000 C 
ATOM      3  C   UNL     1       6.213   3.813  14.030  0.00  0.00    +0.000 A 
ATOM      4  C   UNL     1       6.121   3.356  12.726  0.00  0.00    +0.000 A 
ATOM      5  C   UNL     1       6.875   3.998  11.736  0.00  0.00    +0.000 A 
ATOM      6  C   UNL     1       7.706   5.086  12.054  0.00  0.00    +0.000 A 
ATOM      7  C   UNL     1       7.792   5.548  13.368  0.00  0.00    +0.000 A 
ATOM      8  C   UNL     1       7.036   4.893  14.324  0.00  0.00    +0.000 A 
ATOM      9  C   UNL     1       6.950   5.161  15.752  0.00  0.00    +0.000 C 
ATOM     10  O   UNL     1       7.527   6.078  16.308  0.00  0.00    +0.000 OA
ENDROOT
BRANCH   1  11
ATOM     11  C   UNL     1       5.034   4.771  17.310  0.00  0.00    +0.000 C 
BRANCH  11  16
ATOM     12  C   UNL     1       1.843   6.698  20.312  0.00  0.00    +0.000 C 
ATOM     13  N   UNL     1       2.223   5.452  19.651  0.00  0.00    +0.000 NA
ATOM     14  C   UNL     1       3.566   5.017  20.077  0.00  0.00    +0.000 C 
ATOM     15  C   UNL     1       4.036   3.747  19.327  0.00  0.00    +0.000 C 
ATOM     16  N   UNL     1       4.012   3.850  17.850  0.00  0.00    +0.000 NA
ATOM     17  C   UNL     1       2.649   4.301  17.466  0.00  0.00    +0.000 C 
ATOM     18  C   UNL     1       2.169   5.589  18.184  0.00  0.00    +0.000 C 
ENDBRANCH  11  16
ENDBRANCH   1  11
TORSDOF 2
ENDMDL
MODEL 8
REMARK VINA RESULT:      -6.7      1.633      1.948
REMARK  Name = 
REMARK  3 active torsions:
REMARK  status: ('A' for Active; 'I' for Inactive)
REMARK    1  A    between atoms: C_1  and  N_2
REMARK    2  A    between atoms: N_5  and  C_6
REMARK    3  A    between atoms: C_6  and  C_7
REMARK                            x       y       z     vdW  Elec       q    Type
REMARK                         _______ _______ _______ _____ _____    ______ ____
ROOT
ATOM      1  C   UNL     1       2.391   5.890  17.913  0.00  0.00    +0.000 C 
ATOM      2  C   UNL     1       2.095   4.431  17.500  0.00  0.00    +0.000 C 
ATOM      3  C   UNL     1       1.762   3.743  18.788  0.00  0.00    +0.000 A 
ATOM      4  C   UNL     1       1.331   2.439  18.965  0.00  0.00    +0.000 A 
ATOM      5  C   UNL     1       1.094   1.983  20.268  0.00  0.00    +0.000 A 
ATOM      6  C   UNL     1       1.291   2.826  21.375  0.00  0.00    +0.000 A 
ATOM      7  C   UNL     1       1.730   4.138  21.193  0.00  0.00    +0.000 A 
ATOM      8  C   UNL     1       1.955   4.560  19.894  0.00  0.00    +0.000 A 
ATOM      9  C   UNL     1       2.400   5.866  19.430  0.00  0.00    +0.000 C 
ATOM     10  O   UNL     1       2.694   6.787  20.169  0.00  0.00    +0.000 OA
ENDROOT
BRANCH   1  11
ATOM     11  C   UNL     1       3.720   6.437  17.384  0.00  0.00    +0.000 C 
BRANCH  11  16
ATOM     12  C   UNL     1       8.265   6.933  18.800  0.00  0.00    +0.000 C 
ATOM     13  N   UNL     1       7.367   6.078  18.028  0.00  0.00    +0.000 NA
ATOM     14  C   UNL     1       6.799   6.808  16.881  0.00  0.00    +0.000 C 
ATOM     15  C   UNL     1       5.774   5.957  16.094  0.00  0.00    +0.000 C 
ATOM     16  N   UNL     1       4.665   5.406  16.907  0.00  0.00    +0.000 NA
ATOM     17  C   UNL     1       5.280   4.691  18.056  0.00  0.00    +0.000 C 
ATOM     18  C   UNL     1       6.289   5.535  18.876  0.00  0.00    +0.000 C 
ENDBRANCH  11  16
ENDBRANCH   1  11
TORSDOF 2
ENDMDL
MODEL 9
REMARK VINA RESULT:      -6.7      3.834      4.919
REMARK  Name = 
REMARK  3 active torsions:
REMARK  status: ('A' for Active; 'I' for Inactive)
REMARK    1  A    between atoms: C_1  and  N_2
REMARK    2  A    between atoms: N_5  and  C_6
REMARK    3  A    between atoms: C_6  and  C_7
REMARK                            x       y       z     vdW  Elec       q    Type
REMARK                         _______ _______ _______ _____ _____    ______ ____
ROOT
ATOM      1  C   UNL     1       2.681   6.250  18.591  0.00  0.00    +0.000 C 
ATOM      2  C   UNL     1       2.299   7.556  17.859  0.00  0.00    +0.000 C 
ATOM      3  C   UNL     1       1.775   8.447  18.943  0.00  0.00    +0.000 A 
ATOM      4  C   UNL     1       1.381   9.770  18.836  0.00  0.00    +0.000 A 
ATOM      5  C   UNL     1       0.896  10.419  19.978  0.00  0.00    +0.000 A 
ATOM      6  C   UNL     1       0.806   9.745  21.208  0.00  0.00    +0.000 A 
ATOM      7  C   UNL     1       1.199   8.410  21.311  0.00  0.00    +0.000 A 
ATOM      8  C   UNL     1       1.675   7.796  20.166  0.00  0.00    +0.000 A 
ATOM      9  C   UNL     1       2.154   6.431  20.001  0.00  0.00    +0.000 C 
ATOM     10  O   UNL     1       2.151   5.597  20.888  0.00  0.00    +0.000 OA
ENDROOT
BRANCH   1  11
ATOM     11  C   UNL     1       2.094   4.982  17.964  0.00  0.00    +0.000 C 
BRANCH  11  16
ATOM     12  C   UNL     1       4.471   1.898  20.747  0.00  0.00    +0.000 C 
ATOM     13  N   UNL     1       4.313   2.345  19.366  0.00  0.00    +0.000 NA
ATOM     14  C   UNL     1       4.701   3.760  19.221  0.00  0.00    +0.000 C 
ATOM     15  C   UNL     1       4.460   4.290  17.787  0.00  0.00    +0.000 C 
ATOM     16  N   UNL     1       3.079   4.118  17.282  0.00  0.00    +0.000 NA
ATOM     17  C   UNL     1       2.726   2.685  17.457  0.00  0.00    +0.000 C 
ATOM     18  C   UNL     1       2.931   2.141  18.894  0.00  0.00    +0.000 C 
ENDBRANCH  11  16
ENDBRANCH   1  11
TORSDOF 2
ENDMDL
