MODEL 1
REMARK VINA RESULT:      -8.0      0.000      0.000
REMARK  Name = 
REMARK  10 active torsions:
REMARK  status: ('A' for Active; 'I' for Inactive)
REMARK    1  A    between atoms: C_1  and  C_2
REMARK    2  A    between atoms: C_2  and  C_3
REMARK    3  A    between atoms: C_2  and  C_4
REMARK    4  A    between atoms: C_7  and  N_8
REMARK    5  A    between atoms: N_8  and  C_9
REMARK    6  A    between atoms: C_11  and  C_12
REMARK    7  A    between atoms: C_12  and  C_14
REMARK    8  A    between atoms: C_20  and  N_21
REMARK    9  A    between atoms: C_22  and  S_23
REMARK   10  A    between atoms: S_23  and  C_26
REMARK                            x       y       z     vdW  Elec       q    Type
REMARK                         _______ _______ _______ _____ _____    ______ ____
ROOT
ATOM      1  C   UNL     1      -0.276  11.138  18.651  0.00  0.00    +0.000 A 
ATOM      2  S   UNL     1      -1.688  10.312  18.106  0.00  0.00    +0.000 S 
ATOM      3  C   UNL     1      -2.713  11.632  18.472  0.00  0.00    +0.000 A 
ATOM      4  C   UNL     1      -2.067  12.494  19.345  0.00  0.00    +0.000 A 
ATOM      5  C   UNL     1      -0.656  12.218  19.443  0.00  0.00    +0.000 A 
ENDROOT
BRANCH   4   6
ATOM      6  N   UNL     1      -2.711  13.506  19.973  0.00  0.00    +0.000 N 
ATOM      7  H   UNL     1      -3.341  14.127  19.462  0.00  0.00    +0.000 HD
ATOM      8  H   UNL     1      -2.324  13.933  20.819  0.00  0.00    +0.000 HD
ENDBRANCH   4   6
BRANCH   5   9
ATOM      9  S   UNL     1       0.480  13.121  20.394  0.00  0.00    +0.000 S 
ATOM     10  O   UNL     1      -0.347  13.884  21.327  0.00  0.00    +0.000 OA
ATOM     11  O   UNL     1       1.457  12.165  20.880  0.00  0.00    +0.000 OA
BRANCH   9  12
ATOM     12  C   UNL     1       1.302  14.274  19.325  0.00  0.00    +0.000 A 
ATOM     13  C   UNL     1       0.814  15.580  19.205  0.00  0.00    +0.000 A 
ATOM     14  C   UNL     1       1.533  16.530  18.472  0.00  0.00    +0.000 A 
ATOM     15  C   UNL     1       2.738  16.175  17.873  0.00  0.00    +0.000 A 
ATOM     16  C   UNL     1       3.223  14.867  17.980  0.00  0.00    +0.000 A 
ATOM     17  C   UNL     1       2.502  13.912  18.707  0.00  0.00    +0.000 A 
ENDBRANCH   9  12
ENDBRANCH   5   9
BRANCH   1  18
ATOM     18  N   UNL     1       0.985  10.668  18.381  0.00  0.00    +0.000 N 
ATOM     19  H   UNL     1       1.324  10.834  17.424  0.00  0.00    +0.000 HD
BRANCH  18  23
ATOM     20  C   UNL     1       2.329   6.792  19.523  0.00  0.00    +0.000 A 
ATOM     21  C   UNL     1       1.689   7.619  20.452  0.00  0.00    +0.000 A 
ATOM     22  C   UNL     1       1.241   8.891  20.085  0.00  0.00    +0.000 A 
ATOM     23  C   UNL     1       1.465   9.396  18.800  0.00  0.00    +0.000 A 
ATOM     24  C   UNL     1       2.106   8.571  17.870  0.00  0.00    +0.000 A 
ATOM     25  C   UNL     1       2.536   7.286  18.227  0.00  0.00    +0.000 A 
BRANCH  20  27
ATOM     26  C   UNL     1       1.424   4.733  20.571  0.00  0.00    +0.000 C 
ATOM     27  C   UNL     1       2.659   5.363  19.920  0.00  0.00    +0.000 C 
ATOM     28  C   UNL     1       3.161   4.484  18.774  0.00  0.00    +0.000 C 
ENDBRANCH  20  27
ENDBRANCH  18  23
ENDBRANCH   1  18
BRANCH   3  29
ATOM     29  C   UNL     1      -4.084  11.656  17.955  0.00  0.00    +0.000 C 
ATOM     30  O   UNL     1      -4.355  11.930  16.787  0.00  0.00    +0.000 OA
BRANCH  29  31
ATOM     31  C   UNL     1      -5.224  11.303  18.873  0.00  0.00    +0.000 A 
ATOM     32  C   UNL     1      -5.622  12.170  19.902  0.00  0.00    +0.000 A 
ATOM     33  C   UNL     1      -6.762  11.898  20.660  0.00  0.00    +0.000 A 
ATOM     34  C   UNL     1      -7.487  10.732  20.433  0.00  0.00    +0.000 A 
ATOM     35  C   UNL     1      -7.055   9.822  19.465  0.00  0.00    +0.000 A 
ATOM     36  C   UNL     1      -5.922  10.100  18.691  0.00  0.00    +0.000 A 
ENDBRANCH  29  31
ENDBRANCH   3  29
TORSDOF 8
ENDMDL
MODEL 2
REMARK VINA RESULT:      -7.9      2.264      7.079
REMARK  Name = 
REMARK  10 active torsions:
REMARK  status: ('A' for Active; 'I' for Inactive)
REMARK    1  A    between atoms: C_1  and  C_2
REMARK    2  A    between atoms: C_2  and  C_3
REMARK    3  A    between atoms: C_2  and  C_4
REMARK    4  A    between atoms: C_7  and  N_8
REMARK    5  A    between atoms: N_8  and  C_9
REMARK    6  A    between atoms: C_11  and  C_12
REMARK    7  A    between atoms: C_12  and  C_14
REMARK    8  A    between atoms: C_20  and  N_21
REMARK    9  A    between atoms: C_22  and  S_23
REMARK   10  A    between atoms: S_23  and  C_26
REMARK                            x       y       z     vdW  Elec       q    Type
REMARK                         _______ _______ _______ _____ _____    ______ ____
ROOT
ATOM      1  C   UNL     1       0.877   9.921  18.731  0.00  0.00    +0.000 A 
ATOM      2  S   UNL     1       1.975   8.953  17.821  0.00  0.00    +0.000 S 
ATOM      3  C   UNL     1       2.175   7.824  19.091  0.00  0.00    +0.000 A 
ATOM      4  C   UNL     1       1.747   8.386  20.285  0.00  0.00    +0.000 A 
ATOM      5  C   UNL     1       0.988   9.593  20.079  0.00  0.00    +0.000 A 
ENDROOT
BRANCH   4   6
ATOM      6  N   UNL     1       1.985   7.807  21.485  0.00  0.00    +0.000 N 
ATOM      7  H   UNL     1       2.891   7.384  21.696  0.00  0.00    +0.000 HD
ATOM      8  H   UNL     1       1.221   7.421  22.046  0.00  0.00    +0.000 HD
ENDBRANCH   4   6
BRANCH   5   9
ATOM      9  S   UNL     1       0.248  10.539  21.332  0.00  0.00    +0.000 S 
ATOM     10  O   UNL     1      -1.188  10.359  21.127  0.00  0.00    +0.000 OA
ATOM     11  O   UNL     1       0.877  10.134  22.574  0.00  0.00    +0.000 OA
BRANCH   9  12
ATOM     12  C   UNL     1       0.631  12.246  21.036  0.00  0.00    +0.000 A 
ATOM     13  C   UNL     1      -0.294  13.236  21.383  0.00  0.00    +0.000 A 
ATOM     14  C   UNL     1       0.056  14.587  21.279  0.00  0.00    +0.000 A 
ATOM     15  C   UNL     1       1.328  14.940  20.839  0.00  0.00    +0.000 A 
ATOM     16  C   UNL     1       2.251  13.953  20.478  0.00  0.00    +0.000 A 
ATOM     17  C   UNL     1       1.902  12.601  20.574  0.00  0.00    +0.000 A 
ENDBRANCH   9  12
ENDBRANCH   5   9
BRANCH   1  18
ATOM     18  N   UNL     1       0.127  10.909  18.142  0.00  0.00    +0.000 N 
ATOM     19  H   UNL     1       0.438  11.872  18.329  0.00  0.00    +0.000 HD
BRANCH  18  23
ATOM     20  C   UNL     1      -4.121  10.904  17.861  0.00  0.00    +0.000 A 
ATOM     21  C   UNL     1      -3.456  11.968  18.480  0.00  0.00    +0.000 A 
ATOM     22  C   UNL     1      -2.062  11.979  18.574  0.00  0.00    +0.000 A 
ATOM     23  C   UNL     1      -1.294  10.909  18.102  0.00  0.00    +0.000 A 
ATOM     24  C   UNL     1      -1.957   9.844  17.483  0.00  0.00    +0.000 A 
ATOM     25  C   UNL     1      -3.354   9.839  17.367  0.00  0.00    +0.000 A 
BRANCH  20  27
ATOM     26  C   UNL     1      -6.340  10.477  18.888  0.00  0.00    +0.000 C 
ATOM     27  C   UNL     1      -5.622  11.006  17.643  0.00  0.00    +0.000 C 
ATOM     28  C   UNL     1      -6.121  12.409  17.298  0.00  0.00    +0.000 C 
ENDBRANCH  20  27
ENDBRANCH  18  23
ENDBRANCH   1  18
BRANCH   3  29
ATOM     29  C   UNL     1       2.819   6.534  18.827  0.00  0.00    +0.000 C 
ATOM     30  O   UNL     1       3.983   6.433  18.441  0.00  0.00    +0.000 OA
BRANCH  29  31
ATOM     31  C   UNL     1       2.047   5.263  19.061  0.00  0.00    +0.000 A 
ATOM     32  C   UNL     1       1.687   4.426  17.995  0.00  0.00    +0.000 A 
ATOM     33  C   UNL     1       1.091   3.186  18.232  0.00  0.00    +0.000 A 
ATOM     34  C   UNL     1       0.803   2.792  19.536  0.00  0.00    +0.000 A 
ATOM     35  C   UNL     1       1.084   3.651  20.600  0.00  0.00    +0.000 A 
ATOM     36  C   UNL     1       1.698   4.888  20.366  0.00  0.00    +0.000 A 
ENDBRANCH  29  31
ENDBRANCH   3  29
TORSDOF 8
ENDMDL
MODEL 3
REMARK VINA RESULT:      -7.9      0.212      1.204
REMARK  Name = 
REMARK  10 active torsions:
REMARK  status: ('A' for Active; 'I' for Inactive)
REMARK    1  A    between atoms: C_1  and  C_2
REMARK    2  A    between atoms: C_2  and  C_3
REMARK    3  A    between atoms: C_2  and  C_4
REMARK    4  A    between atoms: C_7  and  N_8
REMARK    5  A    between atoms: N_8  and  C_9
REMARK    6  A    between atoms: C_11  and  C_12
REMARK    7  A    between atoms: C_12  and  C_14
REMARK    8  A    between atoms: C_20  and  N_21
REMARK    9  A    between atoms: C_22  and  S_23
REMARK   10  A    between atoms: S_23  and  C_26
REMARK                            x       y       z     vdW  Elec       q    Type
REMARK                         _______ _______ _______ _____ _____    ______ ____
ROOT
ATOM      1  C   UNL     1      -0.366  11.146  18.634  0.00  0.00    +0.000 A 
ATOM      2  S   UNL     1      -1.748  10.310  18.033  0.00  0.00    +0.000 S 
ATOM      3  C   UNL     1      -2.801  11.613  18.381  0.00  0.00    +0.000 A 
ATOM      4  C   UNL     1      -2.194  12.472  19.286  0.00  0.00    +0.000 A 
ATOM      5  C   UNL     1      -0.784  12.211  19.427  0.00  0.00    +0.000 A 
ENDROOT
BRANCH   4   6
ATOM      6  N   UNL     1      -2.871  13.468  19.905  0.00  0.00    +0.000 N 
ATOM      7  H   UNL     1      -3.257  14.251  19.374  0.00  0.00    +0.000 HD
ATOM      8  H   UNL     1      -2.693  13.695  20.887  0.00  0.00    +0.000 HD
ENDBRANCH   4   6
BRANCH   5   9
ATOM      9  S   UNL     1       0.309  13.116  20.425  0.00  0.00    +0.000 S 
ATOM     10  O   UNL     1      -0.557  13.864  21.334  0.00  0.00    +0.000 OA
ATOM     11  O   UNL     1       1.276  12.164  20.938  0.00  0.00    +0.000 OA
BRANCH   9  12
ATOM     12  C   UNL     1       1.159  14.285  19.396  0.00  0.00    +0.000 A 
ATOM     13  C   UNL     1       0.655  15.583  19.257  0.00  0.00    +0.000 A 
ATOM     14  C   UNL     1       1.391  16.547  18.558  0.00  0.00    +0.000 A 
ATOM     15  C   UNL     1       2.627  16.213  18.013  0.00  0.00    +0.000 A 
ATOM     16  C   UNL     1       3.127  14.913  18.138  0.00  0.00    +0.000 A 
ATOM     17  C   UNL     1       2.390  13.944  18.830  0.00  0.00    +0.000 A 
ENDBRANCH   9  12
ENDBRANCH   5   9
BRANCH   1  18
ATOM     18  N   UNL     1       0.909  10.695  18.400  0.00  0.00    +0.000 N 
ATOM     19  H   UNL     1       1.309  10.952  17.487  0.00  0.00    +0.000 HD
BRANCH  18  23
ATOM     20  C   UNL     1       2.352   6.835  19.471  0.00  0.00    +0.000 A 
ATOM     21  C   UNL     1       2.522   7.315  18.168  0.00  0.00    +0.000 A 
ATOM     22  C   UNL     1       2.055   8.582  17.809  0.00  0.00    +0.000 A 
ATOM     23  C   UNL     1       1.359   9.385  18.720  0.00  0.00    +0.000 A 
ATOM     24  C   UNL     1       1.188   8.906  20.023  0.00  0.00    +0.000 A 
ATOM     25  C   UNL     1       1.675   7.645  20.394  0.00  0.00    +0.000 A 
BRANCH  20  27
ATOM     26  C   UNL     1       2.119   4.802  20.876  0.00  0.00    +0.000 C 
ATOM     27  C   UNL     1       3.011   5.522  19.859  0.00  0.00    +0.000 C 
ATOM     28  C   UNL     1       3.328   4.597  18.684  0.00  0.00    +0.000 C 
ENDBRANCH  20  27
ENDBRANCH  18  23
ENDBRANCH   1  18
BRANCH   3  29
ATOM     29  C   UNL     1      -4.155  11.627  17.820  0.00  0.00    +0.000 C 
ATOM     30  O   UNL     1      -4.389  11.890  16.642  0.00  0.00    +0.000 OA
BRANCH  29  31
ATOM     31  C   UNL     1      -5.322  11.278  18.705  0.00  0.00    +0.000 A 
ATOM     32  C   UNL     1      -6.009  10.064  18.553  0.00  0.00    +0.000 A 
ATOM     33  C   UNL     1      -7.001   9.689  19.462  0.00  0.00    +0.000 A 
ATOM     34  C   UNL     1      -7.351  10.546  20.502  0.00  0.00    +0.000 A 
ATOM     35  C   UNL     1      -6.730  11.792  20.615  0.00  0.00    +0.000 A 
ATOM     36  C   UNL     1      -5.723  12.163  19.716  0.00  0.00    +0.000 A 
ENDBRANCH  29  31
ENDBRANCH   3  29
TORSDOF 8
ENDMDL
MODEL 4
REMARK VINA RESULT:      -7.9      2.199      3.309
REMARK  Name = 
REMARK  10 active torsions:
REMARK  status: ('A' for Active; 'I' for Inactive)
REMARK    1  A    between atoms: C_1  and  C_2
REMARK    2  A    between atoms: C_2  and  C_3
REMARK    3  A    between atoms: C_2  and  C_4
REMARK    4  A    between atoms: C_7  and  N_8
REMARK    5  A    between atoms: N_8  and  C_9
REMARK    6  A    between atoms: C_11  and  C_12
REMARK    7  A    between atoms: C_12  and  C_14
REMARK    8  A    between atoms: C_20  and  N_21
REMARK    9  A    between atoms: C_22  and  S_23
REMARK   10  A    between atoms: S_23  and  C_26
REMARK                            x       y       z     vdW  Elec       q    Type
REMARK                         _______ _______ _______ _____ _____    ______ ____
ROOT
ATOM      1  C   UNL     1      -0.200  10.911  18.924  0.00  0.00    +0.000 A 
ATOM      2  S   UNL     1      -1.275  10.080  17.863  0.00  0.00    +0.000 S 
ATOM      3  C   UNL     1      -2.455  11.316  17.943  0.00  0.00    +0.000 A 
ATOM      4  C   UNL     1      -2.213  12.120  19.047  0.00  0.00    +0.000 A 
ATOM      5  C   UNL     1      -0.906  11.895  19.610  0.00  0.00    +0.000 A 
ENDROOT
BRANCH   4   6
ATOM      6  N   UNL     1      -3.105  13.040  19.482  0.00  0.00    +0.000 N 
ATOM      7  H   UNL     1      -3.061  14.009  19.162  0.00  0.00    +0.000 HD
ATOM      8  H   UNL     1      -3.571  12.937  20.388  0.00  0.00    +0.000 HD
ENDBRANCH   4   6
BRANCH   5   9
ATOM      9  S   UNL     1      -0.235  12.753  20.961  0.00  0.00    +0.000 S 
ATOM     10  O   UNL     1       0.702  11.809  21.567  0.00  0.00    +0.000 OA
ATOM     11  O   UNL     1       0.226  14.028  20.445  0.00  0.00    +0.000 OA
BRANCH   9  12
ATOM     12  C   UNL     1      -1.537  13.054  22.128  0.00  0.00    +0.000 A 
ATOM     13  C   UNL     1      -2.198  11.974  22.723  0.00  0.00    +0.000 A 
ATOM     14  C   UNL     1      -3.130  12.202  23.743  0.00  0.00    +0.000 A 
ATOM     15  C   UNL     1      -3.388  13.502  24.166  0.00  0.00    +0.000 A 
ATOM     16  C   UNL     1      -2.738  14.585  23.564  0.00  0.00    +0.000 A 
ATOM     17  C   UNL     1      -1.811  14.361  22.539  0.00  0.00    +0.000 A 
ENDBRANCH   9  12
ENDBRANCH   5   9
BRANCH   1  18
ATOM     18  N   UNL     1       1.107  10.522  19.078  0.00  0.00    +0.000 N 
ATOM     19  H   UNL     1       1.776  10.948  18.421  0.00  0.00    +0.000 HD
BRANCH  18  23
ATOM     20  C   UNL     1       2.232   6.454  19.640  0.00  0.00    +0.000 A 
ATOM     21  C   UNL     1       1.632   7.171  20.681  0.00  0.00    +0.000 A 
ATOM     22  C   UNL     1       1.257   8.505  20.504  0.00  0.00    +0.000 A 
ATOM     23  C   UNL     1       1.515   9.179  19.306  0.00  0.00    +0.000 A 
ATOM     24  C   UNL     1       2.115   8.464  18.264  0.00  0.00    +0.000 A 
ATOM     25  C   UNL     1       2.472   7.119  18.430  0.00  0.00    +0.000 A 
BRANCH  20  27
ATOM     26  C   UNL     1       1.289   4.353  20.567  0.00  0.00    +0.000 C 
ATOM     27  C   UNL     1       2.480   4.966  19.824  0.00  0.00    +0.000 C 
ATOM     28  C   UNL     1       2.748   4.201  18.527  0.00  0.00    +0.000 C 
ENDBRANCH  20  27
ENDBRANCH  18  23
ENDBRANCH   1  18
BRANCH   3  29
ATOM     29  C   UNL     1      -3.563  11.330  16.983  0.00  0.00    +0.000 C 
ATOM     30  O   UNL     1      -3.403  11.184  15.773  0.00  0.00    +0.000 OA
BRANCH  29  31
ATOM     31  C   UNL     1      -4.972  11.499  17.487  0.00  0.00    +0.000 A 
ATOM     32  C   UNL     1      -5.521  10.607  18.421  0.00  0.00    +0.000 A 
ATOM     33  C   UNL     1      -6.775  10.848  18.984  0.00  0.00    +0.000 A 
ATOM     34  C   UNL     1      -7.517  11.956  18.581  0.00  0.00    +0.000 A 
ATOM     35  C   UNL     1      -7.015  12.806  17.594  0.00  0.00    +0.000 A 
ATOM     36  C   UNL     1      -5.750  12.577  17.041  0.00  0.00    +0.000 A 
ENDBRANCH  29  31
ENDBRANCH   3  29
TORSDOF 8
ENDMDL
MODEL 5
REMARK VINA RESULT:      -7.8      2.618      7.822
REMARK  Name = 
REMARK  10 active torsions:
REMARK  status: ('A' for Active; 'I' for Inactive)
REMARK    1  A    between atoms: C_1  and  C_2
REMARK    2  A    between atoms: C_2  and  C_3
REMARK    3  A    between atoms: C_2  and  C_4
REMARK    4  A    between atoms: C_7  and  N_8
REMARK    5  A    between atoms: N_8  and  C_9
REMARK    6  A    between atoms: C_11  and  C_12
REMARK    7  A    between atoms: C_12  and  C_14
REMARK    8  A    between atoms: C_20  and  N_21
REMARK    9  A    between atoms: C_22  and  S_23
REMARK   10  A    between atoms: S_23  and  C_26
REMARK                            x       y       z     vdW  Elec       q    Type
REMARK                         _______ _______ _______ _____ _____    ______ ____
ROOT
ATOM      1  C   UNL     1       0.880   9.834  18.708  0.00  0.00    +0.000 A 
ATOM      2  S   UNL     1       1.852   8.924  17.613  0.00  0.00    +0.000 S 
ATOM      3  C   UNL     1       2.073   7.646  18.729  0.00  0.00    +0.000 A 
ATOM      4  C   UNL     1       1.764   8.086  20.008  0.00  0.00    +0.000 A 
ATOM      5  C   UNL     1       1.064   9.345  19.998  0.00  0.00    +0.000 A 
ENDROOT
BRANCH   4   6
ATOM      6  N   UNL     1       2.051   7.359  21.113  0.00  0.00    +0.000 N 
ATOM      7  H   UNL     1       1.308   6.943  21.678  0.00  0.00    +0.000 HD
ATOM      8  H   UNL     1       2.916   7.516  21.638  0.00  0.00    +0.000 HD
ENDBRANCH   4   6
BRANCH   5   9
ATOM      9  S   UNL     1       0.471  10.175  21.402  0.00  0.00    +0.000 S 
ATOM     10  O   UNL     1      -0.976   9.967  21.367  0.00  0.00    +0.000 OA
ATOM     11  O   UNL     1       1.261   9.698  22.521  0.00  0.00    +0.000 OA
BRANCH   9  12
ATOM     12  C   UNL     1       0.779  11.909  21.191  0.00  0.00    +0.000 A 
ATOM     13  C   UNL     1      -0.145  12.842  21.674  0.00  0.00    +0.000 A 
ATOM     14  C   UNL     1       0.155  14.209  21.633  0.00  0.00    +0.000 A 
ATOM     15  C   UNL     1       1.377  14.633  21.120  0.00  0.00    +0.000 A 
ATOM     16  C   UNL     1       2.297  13.704  20.624  0.00  0.00    +0.000 A 
ATOM     17  C   UNL     1       1.997  12.337  20.657  0.00  0.00    +0.000 A 
ENDBRANCH   9  12
ENDBRANCH   5   9
BRANCH   1  18
ATOM     18  N   UNL     1       0.150  10.920  18.293  0.00  0.00    +0.000 N 
ATOM     19  H   UNL     1       0.447  11.827  18.679  0.00  0.00    +0.000 HD
BRANCH  18  23
ATOM     20  C   UNL     1      -4.083  10.971  17.833  0.00  0.00    +0.000 A 
ATOM     21  C   UNL     1      -3.445  11.947  18.606  0.00  0.00    +0.000 A 
ATOM     22  C   UNL     1      -2.057  11.940  18.760  0.00  0.00    +0.000 A 
ATOM     23  C   UNL     1      -1.268  10.932  18.192  0.00  0.00    +0.000 A 
ATOM     24  C   UNL     1      -1.904   9.955  17.419  0.00  0.00    +0.000 A 
ATOM     25  C   UNL     1      -3.295   9.972  17.244  0.00  0.00    +0.000 A 
BRANCH  20  27
ATOM     26  C   UNL     1      -6.344  10.535  18.758  0.00  0.00    +0.000 C 
ATOM     27  C   UNL     1      -5.572  11.107  17.565  0.00  0.00    +0.000 C 
ATOM     28  C   UNL     1      -6.039  12.532  17.266  0.00  0.00    +0.000 C 
ENDBRANCH  20  27
ENDBRANCH  18  23
ENDBRANCH   1  18
BRANCH   3  29
ATOM     29  C   UNL     1       2.620   6.365  18.273  0.00  0.00    +0.000 C 
ATOM     30  O   UNL     1       1.914   5.423  17.917  0.00  0.00    +0.000 OA
BRANCH  29  31
ATOM     31  C   UNL     1       4.113   6.186  18.200  0.00  0.00    +0.000 A 
ATOM     32  C   UNL     1       4.868   6.789  17.183  0.00  0.00    +0.000 A 
ATOM     33  C   UNL     1       6.263   6.730  17.200  0.00  0.00    +0.000 A 
ATOM     34  C   UNL     1       6.916   6.024  18.207  0.00  0.00    +0.000 A 
ATOM     35  C   UNL     1       6.173   5.353  19.180  0.00  0.00    +0.000 A 
ATOM     36  C   UNL     1       4.774   5.425  19.175  0.00  0.00    +0.000 A 
ENDBRANCH  29  31
ENDBRANCH   3  29
TORSDOF 8
ENDMDL
MODEL 6
REMARK VINA RESULT:      -7.8      1.041      1.290
REMARK  Name = 
REMARK  10 active torsions:
REMARK  status: ('A' for Active; 'I' for Inactive)
REMARK    1  A    between atoms: C_1  and  C_2
REMARK    2  A    between atoms: C_2  and  C_3
REMARK    3  A    between atoms: C_2  and  C_4
REMARK    4  A    between atoms: C_7  and  N_8
REMARK    5  A    between atoms: N_8  and  C_9
REMARK    6  A    between atoms: C_11  and  C_12
REMARK    7  A    between atoms: C_12  and  C_14
REMARK    8  A    between atoms: C_20  and  N_21
REMARK    9  A    between atoms: C_22  and  S_23
REMARK   10  A    between atoms: S_23  and  C_26
REMARK                            x       y       z     vdW  Elec       q    Type
REMARK                         _______ _______ _______ _____ _____    ______ ____
ROOT
ATOM      1  C   UNL     1      -0.180  10.902  18.708  0.00  0.00    +0.000 A 
ATOM      2  S   UNL     1      -1.304  10.062  17.706  0.00  0.00    +0.000 S 
ATOM      3  C   UNL     1      -2.492  11.284  17.860  0.00  0.00    +0.000 A 
ATOM      4  C   UNL     1      -2.196  12.087  18.952  0.00  0.00    +0.000 A 
ATOM      5  C   UNL     1      -0.856  11.876  19.437  0.00  0.00    +0.000 A 
ENDROOT
BRANCH   4   6
ATOM      6  N   UNL     1      -3.071  12.996  19.442  0.00  0.00    +0.000 N 
ATOM      7  H   UNL     1      -2.913  13.998  19.322  0.00  0.00    +0.000 HD
ATOM      8  H   UNL     1      -3.667  12.775  20.245  0.00  0.00    +0.000 HD
ENDBRANCH   4   6
BRANCH   5   9
ATOM      9  S   UNL     1      -0.117  12.737  20.750  0.00  0.00    +0.000 S 
ATOM     10  O   UNL     1      -1.240  13.228  21.546  0.00  0.00    +0.000 OA
ATOM     11  O   UNL     1       0.864  11.838  21.327  0.00  0.00    +0.000 OA
BRANCH   9  12
ATOM     12  C   UNL     1       0.732  14.143  20.080  0.00  0.00    +0.000 A 
ATOM     13  C   UNL     1       0.065  15.368  19.964  0.00  0.00    +0.000 A 
ATOM     14  C   UNL     1       0.766  16.512  19.565  0.00  0.00    +0.000 A 
ATOM     15  C   UNL     1       2.128  16.427  19.294  0.00  0.00    +0.000 A 
ATOM     16  C   UNL     1       2.796  15.202  19.395  0.00  0.00    +0.000 A 
ATOM     17  C   UNL     1       2.096  14.056  19.787  0.00  0.00    +0.000 A 
ENDBRANCH   9  12
ENDBRANCH   5   9
BRANCH   1  18
ATOM     18  N   UNL     1       1.139  10.528  18.783  0.00  0.00    +0.000 N 
ATOM     19  H   UNL     1       1.758  10.940  18.071  0.00  0.00    +0.000 HD
BRANCH  18  23
ATOM     20  C   UNL     1       2.343   6.488  19.381  0.00  0.00    +0.000 A 
ATOM     21  C   UNL     1       1.760   7.213  20.426  0.00  0.00    +0.000 A 
ATOM     22  C   UNL     1       1.359   8.538  20.238  0.00  0.00    +0.000 A 
ATOM     23  C   UNL     1       1.574   9.196  19.022  0.00  0.00    +0.000 A 
ATOM     24  C   UNL     1       2.157   8.473  17.976  0.00  0.00    +0.000 A 
ATOM     25  C   UNL     1       2.540   7.137  18.154  0.00  0.00    +0.000 A 
BRANCH  20  27
ATOM     26  C   UNL     1       1.814   4.512  20.786  0.00  0.00    +0.000 C 
ATOM     27  C   UNL     1       2.621   5.008  19.582  0.00  0.00    +0.000 C 
ATOM     28  C   UNL     1       2.338   4.135  18.358  0.00  0.00    +0.000 C 
ENDBRANCH  20  27
ENDBRANCH  18  23
ENDBRANCH   1  18
BRANCH   3  29
ATOM     29  C   UNL     1      -3.654  11.288  16.966  0.00  0.00    +0.000 C 
ATOM     30  O   UNL     1      -3.565  11.123  15.751  0.00  0.00    +0.000 OA
BRANCH  29  31
ATOM     31  C   UNL     1      -5.031  11.471  17.549  0.00  0.00    +0.000 A 
ATOM     32  C   UNL     1      -5.547  10.566  18.489  0.00  0.00    +0.000 A 
ATOM     33  C   UNL     1      -6.765  10.816  19.123  0.00  0.00    +0.000 A 
ATOM     34  C   UNL     1      -7.504  11.947  18.788  0.00  0.00    +0.000 A 
ATOM     35  C   UNL     1      -7.039  12.813  17.797  0.00  0.00    +0.000 A 
ATOM     36  C   UNL     1      -5.809  12.575  17.171  0.00  0.00    +0.000 A 
ENDBRANCH  29  31
ENDBRANCH   3  29
TORSDOF 8
ENDMDL
MODEL 7
REMARK VINA RESULT:      -7.8      2.196      3.193
REMARK  Name = 
REMARK  10 active torsions:
REMARK  status: ('A' for Active; 'I' for Inactive)
REMARK    1  A    between atoms: C_1  and  C_2
REMARK    2  A    between atoms: C_2  and  C_3
REMARK    3  A    between atoms: C_2  and  C_4
REMARK    4  A    between atoms: C_7  and  N_8
REMARK    5  A    between atoms: N_8  and  C_9
REMARK    6  A    between atoms: C_11  and  C_12
REMARK    7  A    between atoms: C_12  and  C_14
REMARK    8  A    between atoms: C_20  and  N_21
REMARK    9  A    between atoms: C_22  and  S_23
REMARK   10  A    between atoms: S_23  and  C_26
REMARK                            x       y       z     vdW  Elec       q    Type
REMARK                         _______ _______ _______ _____ _____    ______ ____
ROOT
ATOM      1  C   UNL     1       0.133  10.613  18.765  0.00  0.00    +0.000 A 
ATOM      2  S   UNL     1      -1.058   9.857  17.774  0.00  0.00    +0.000 S 
ATOM      3  C   UNL     1      -2.100  11.212  17.834  0.00  0.00    +0.000 A 
ATOM      4  C   UNL     1      -1.738  12.031  18.894  0.00  0.00    +0.000 A 
ATOM      5  C   UNL     1      -0.443  11.694  19.427  0.00  0.00    +0.000 A 
ENDROOT
BRANCH   4   6
ATOM      6  N   UNL     1      -2.514  13.058  19.314  0.00  0.00    +0.000 N 
ATOM      7  H   UNL     1      -3.528  12.958  19.383  0.00  0.00    +0.000 HD
ATOM      8  H   UNL     1      -2.211  14.029  19.198  0.00  0.00    +0.000 HD
ENDBRANCH   4   6
BRANCH   5   9
ATOM      9  S   UNL     1       0.361  12.532  20.717  0.00  0.00    +0.000 S 
ATOM     10  O   UNL     1       1.369  11.588  21.196  0.00  0.00    +0.000 OA
ATOM     11  O   UNL     1       0.748  13.824  20.184  0.00  0.00    +0.000 OA
BRANCH   9  12
ATOM     12  C   UNL     1      -0.811  12.788  22.024  0.00  0.00    +0.000 A 
ATOM     13  C   UNL     1      -1.056  14.083  22.493  0.00  0.00    +0.000 A 
ATOM     14  C   UNL     1      -2.075  14.308  23.426  0.00  0.00    +0.000 A 
ATOM     15  C   UNL     1      -2.847  13.242  23.876  0.00  0.00    +0.000 A 
ATOM     16  C   UNL     1      -2.597  11.944  23.419  0.00  0.00    +0.000 A 
ATOM     17  C   UNL     1      -1.574  11.715  22.491  0.00  0.00    +0.000 A 
ENDBRANCH   9  12
ENDBRANCH   5   9
BRANCH   1  18
ATOM     18  N   UNL     1       1.398  10.095  18.896  0.00  0.00    +0.000 N 
ATOM     19  H   UNL     1       2.093  10.448  18.223  0.00  0.00    +0.000 HD
BRANCH  18  23
ATOM     20  C   UNL     1       2.322   6.018  19.705  0.00  0.00    +0.000 A 
ATOM     21  C   UNL     1       2.567   6.560  18.438  0.00  0.00    +0.000 A 
ATOM     22  C   UNL     1       2.270   7.897  18.165  0.00  0.00    +0.000 A 
ATOM     23  C   UNL     1       1.673   8.720  19.127  0.00  0.00    +0.000 A 
ATOM     24  C   UNL     1       1.427   8.180  20.394  0.00  0.00    +0.000 A 
ATOM     25  C   UNL     1       1.744   6.845  20.679  0.00  0.00    +0.000 A 
BRANCH  20  27
ATOM     26  C   UNL     1       1.645   3.809  20.609  0.00  0.00    +0.000 C 
ATOM     27  C   UNL     1       2.803   4.609  20.004  0.00  0.00    +0.000 C 
ATOM     28  C   UNL     1       3.389   3.867  18.802  0.00  0.00    +0.000 C 
ENDBRANCH  20  27
ENDBRANCH  18  23
ENDBRANCH   1  18
BRANCH   3  29
ATOM     29  C   UNL     1      -3.233  11.302  16.909  0.00  0.00    +0.000 C 
ATOM     30  O   UNL     1      -3.107  11.238  15.687  0.00  0.00    +0.000 OA
BRANCH  29  31
ATOM     31  C   UNL     1      -4.626  11.451  17.462  0.00  0.00    +0.000 A 
ATOM     32  C   UNL     1      -5.481  12.467  17.010  0.00  0.00    +0.000 A 
ATOM     33  C   UNL     1      -6.813  12.515  17.427  0.00  0.00    +0.000 A 
ATOM     34  C   UNL     1      -7.289  11.578  18.340  0.00  0.00    +0.000 A 
ATOM     35  C   UNL     1      -6.426  10.611  18.858  0.00  0.00    +0.000 A 
ATOM     36  C   UNL     1      -5.095  10.549  18.427  0.00  0.00    +0.000 A 
ENDBRANCH  29  31
ENDBRANCH   3  29
TORSDOF 8
ENDMDL
MODEL 8
REMARK VINA RESULT:      -7.7      2.221      7.057
REMARK  Name = 
REMARK  10 active torsions:
REMARK  status: ('A' for Active; 'I' for Inactive)
REMARK    1  A    between atoms: C_1  and  C_2
REMARK    2  A    between atoms: C_2  and  C_3
REMARK    3  A    between atoms: C_2  and  C_4
REMARK    4  A    between atoms: C_7  and  N_8
REMARK    5  A    between atoms: N_8  and  C_9
REMARK    6  A    between atoms: C_11  and  C_12
REMARK    7  A    between atoms: C_12  and  C_14
REMARK    8  A    between atoms: C_20  and  N_21
REMARK    9  A    between atoms: C_22  and  S_23
REMARK   10  A    between atoms: S_23  and  C_26
REMARK                            x       y       z     vdW  Elec       q    Type
REMARK                         _______ _______ _______ _____ _____    ______ ____
ROOT
ATOM      1  C   UNL     1       0.827   9.976  18.690  0.00  0.00    +0.000 A 
ATOM      2  S   UNL     1       1.932   9.053  17.743  0.00  0.00    +0.000 S 
ATOM      3  C   UNL     1       2.178   7.903  18.986  0.00  0.00    +0.000 A 
ATOM      4  C   UNL     1       1.756   8.430  20.198  0.00  0.00    +0.000 A 
ATOM      5  C   UNL     1       0.966   9.623  20.029  0.00  0.00    +0.000 A 
ENDROOT
BRANCH   4   6
ATOM      6  N   UNL     1       2.026   7.832  21.381  0.00  0.00    +0.000 N 
ATOM      7  H   UNL     1       2.335   6.859  21.422  0.00  0.00    +0.000 HD
ATOM      8  H   UNL     1       1.581   8.149  22.247  0.00  0.00    +0.000 HD
ENDBRANCH   4   6
BRANCH   5   9
ATOM      9  S   UNL     1       0.223  10.525  21.312  0.00  0.00    +0.000 S 
ATOM     10  O   UNL     1      -1.212  10.334  21.112  0.00  0.00    +0.000 OA
ATOM     11  O   UNL     1       0.865  10.092  22.539  0.00  0.00    +0.000 OA
BRANCH   9  12
ATOM     12  C   UNL     1       0.586  12.243  21.062  0.00  0.00    +0.000 A 
ATOM     13  C   UNL     1       1.825  12.621  20.533  0.00  0.00    +0.000 A 
ATOM     14  C   UNL     1       2.066  13.961  20.206  0.00  0.00    +0.000 A 
ATOM     15  C   UNL     1       1.067  14.910  20.400  0.00  0.00    +0.000 A 
ATOM     16  C   UNL     1      -0.168  14.538  20.942  0.00  0.00    +0.000 A 
ATOM     17  C   UNL     1      -0.409  13.200  21.276  0.00  0.00    +0.000 A 
ENDBRANCH   9  12
ENDBRANCH   5   9
BRANCH   1  18
ATOM     18  N   UNL     1       0.045  10.958  18.133  0.00  0.00    +0.000 N 
ATOM     19  H   UNL     1       0.337  11.924  18.335  0.00  0.00    +0.000 HD
BRANCH  18  23
ATOM     20  C   UNL     1      -4.207  10.856  17.922  0.00  0.00    +0.000 A 
ATOM     21  C   UNL     1      -3.555  11.942  18.516  0.00  0.00    +0.000 A 
ATOM     22  C   UNL     1      -2.161  11.986  18.587  0.00  0.00    +0.000 A 
ATOM     23  C   UNL     1      -1.377  10.926  18.116  0.00  0.00    +0.000 A 
ATOM     24  C   UNL     1      -2.026   9.839  17.523  0.00  0.00    +0.000 A 
ATOM     25  C   UNL     1      -3.424   9.802  17.430  0.00  0.00    +0.000 A 
BRANCH  20  27
ATOM     26  C   UNL     1      -6.398  10.345  18.969  0.00  0.00    +0.000 C 
ATOM     27  C   UNL     1      -5.712  10.922  17.727  0.00  0.00    +0.000 C 
ATOM     28  C   UNL     1      -6.254  12.319  17.423  0.00  0.00    +0.000 C 
ENDBRANCH  20  27
ENDBRANCH  18  23
ENDBRANCH   1  18
BRANCH   3  29
ATOM     29  C   UNL     1       2.848   6.635  18.684  0.00  0.00    +0.000 C 
ATOM     30  O   UNL     1       3.975   6.571  18.197  0.00  0.00    +0.000 OA
BRANCH  29  31
ATOM     31  C   UNL     1       2.152   5.339  19.008  0.00  0.00    +0.000 A 
ATOM     32  C   UNL     1       1.861   4.983  20.334  0.00  0.00    +0.000 A 
ATOM     33  C   UNL     1       1.097   3.849  20.615  0.00  0.00    +0.000 A 
ATOM     34  C   UNL     1       0.660   3.030  19.577  0.00  0.00    +0.000 A 
ATOM     35  C   UNL     1       1.012   3.330  18.260  0.00  0.00    +0.000 A 
ATOM     36  C   UNL     1       1.762   4.477  17.973  0.00  0.00    +0.000 A 
ENDBRANCH  29  31
ENDBRANCH   3  29
TORSDOF 8
ENDMDL
MODEL 9
REMARK VINA RESULT:      -7.7      0.992      1.505
REMARK  Name = 
REMARK  10 active torsions:
REMARK  status: ('A' for Active; 'I' for Inactive)
REMARK    1  A    between atoms: C_1  and  C_2
REMARK    2  A    between atoms: C_2  and  C_3
REMARK    3  A    between atoms: C_2  and  C_4
REMARK    4  A    between atoms: C_7  and  N_8
REMARK    5  A    between atoms: N_8  and  C_9
REMARK    6  A    between atoms: C_11  and  C_12
REMARK    7  A    between atoms: C_12  and  C_14
REMARK    8  A    between atoms: C_20  and  N_21
REMARK    9  A    between atoms: C_22  and  S_23
REMARK   10  A    between atoms: S_23  and  C_26
REMARK                            x       y       z     vdW  Elec       q    Type
REMARK                         _______ _______ _______ _____ _____    ______ ____
ROOT
ATOM      1  C   UNL     1      -0.067  10.818  18.600  0.00  0.00    +0.000 A 
ATOM      2  S   UNL     1      -1.252   9.986  17.665  0.00  0.00    +0.000 S 
ATOM      3  C   UNL     1      -2.401  11.242  17.835  0.00  0.00    +0.000 A 
ATOM      4  C   UNL     1      -2.041  12.062  18.894  0.00  0.00    +0.000 A 
ATOM      5  C   UNL     1      -0.688  11.826  19.332  0.00  0.00    +0.000 A 
ENDROOT
BRANCH   4   6
ATOM      6  N   UNL     1      -2.872  13.005  19.396  0.00  0.00    +0.000 N 
ATOM      7  H   UNL     1      -3.525  13.507  18.792  0.00  0.00    +0.000 HD
ATOM      8  H   UNL     1      -2.631  13.523  20.246  0.00  0.00    +0.000 HD
ENDBRANCH   4   6
BRANCH   5   9
ATOM      9  S   UNL     1       0.125  12.698  20.593  0.00  0.00    +0.000 S 
ATOM     10  O   UNL     1      -0.953  13.282  21.389  0.00  0.00    +0.000 OA
ATOM     11  O   UNL     1       1.068  11.770  21.188  0.00  0.00    +0.000 OA
BRANCH   9  12
ATOM     12  C   UNL     1       1.034  14.027  19.849  0.00  0.00    +0.000 A 
ATOM     13  C   UNL     1       2.339  13.806  19.393  0.00  0.00    +0.000 A 
ATOM     14  C   UNL     1       3.011  14.808  18.684  0.00  0.00    +0.000 A 
ATOM     15  C   UNL     1       2.374  16.018  18.426  0.00  0.00    +0.000 A 
ATOM     16  C   UNL     1       1.075  16.247  18.892  0.00  0.00    +0.000 A 
ATOM     17  C   UNL     1       0.403  15.250  19.607  0.00  0.00    +0.000 A 
ENDBRANCH   9  12
ENDBRANCH   5   9
BRANCH   1  18
ATOM     18  N   UNL     1       1.243  10.410  18.633  0.00  0.00    +0.000 N 
ATOM     19  H   UNL     1       1.835  10.759  17.867  0.00  0.00    +0.000 HD
BRANCH  18  23
ATOM     20  C   UNL     1       2.374   6.381  19.416  0.00  0.00    +0.000 A 
ATOM     21  C   UNL     1       1.814   7.166  20.429  0.00  0.00    +0.000 A 
ATOM     22  C   UNL     1       1.437   8.488  20.180  0.00  0.00    +0.000 A 
ATOM     23  C   UNL     1       1.654   9.083  18.932  0.00  0.00    +0.000 A 
ATOM     24  C   UNL     1       2.215   8.299  17.918  0.00  0.00    +0.000 A 
ATOM     25  C   UNL     1       2.574   6.966  18.157  0.00  0.00    +0.000 A 
BRANCH  20  27
ATOM     26  C   UNL     1       4.114   4.612  19.479  0.00  0.00    +0.000 C 
ATOM     27  C   UNL     1       2.625   4.907  19.686  0.00  0.00    +0.000 C 
ATOM     28  C   UNL     1       2.176   4.427  21.066  0.00  0.00    +0.000 C 
ENDBRANCH  20  27
ENDBRANCH  18  23
ENDBRANCH   1  18
BRANCH   3  29
ATOM     29  C   UNL     1      -3.597  11.257  16.988  0.00  0.00    +0.000 C 
ATOM     30  O   UNL     1      -3.565  11.031  15.780  0.00  0.00    +0.000 OA
BRANCH  29  31
ATOM     31  C   UNL     1      -4.940  11.529  17.614  0.00  0.00    +0.000 A 
ATOM     32  C   UNL     1      -5.703  12.644  17.236  0.00  0.00    +0.000 A 
ATOM     33  C   UNL     1      -7.001  12.815  17.720  0.00  0.00    +0.000 A 
ATOM     34  C   UNL     1      -7.532  11.901  18.626  0.00  0.00    +0.000 A 
ATOM     35  C   UNL     1      -6.752  10.831  19.070  0.00  0.00    +0.000 A 
ATOM     36  C   UNL     1      -5.456  10.647  18.573  0.00  0.00    +0.000 A 
ENDBRANCH  29  31
ENDBRANCH   3  29
TORSDOF 8
ENDMDL
