MODEL 1
REMARK VINA RESULT:      -6.2      0.000      0.000
REMARK  Name = 
REMARK  5 active torsions:
REMARK  status: ('A' for Active; 'I' for Inactive)
REMARK    1  A    between atoms: C_1  and  C_2
REMARK    2  A    between atoms: C_2  and  C_3
REMARK    3  A    between atoms: C_19  and  C_20
REMARK    4  A    between atoms: C_20  and  O_22
REMARK    5  A    between atoms: O_22  and  C_23
REMARK                            x       y       z     vdW  Elec       q    Type
REMARK                         _______ _______ _______ _____ _____    ______ ____
ROOT
ATOM      1  C   UNL     1       8.804  14.595  21.441  0.00  0.00    +0.000 C 
ATOM      2  C   UNL     1       8.038  15.848  22.027  0.00  0.00    +0.000 C 
ATOM      3  C   UNL     1       8.899  16.656  22.934  0.00  0.00    +0.000 C 
ATOM      4  C   UNL     1      10.142  17.077  22.146  0.00  0.00    +0.000 C 
ATOM      5  N   UNL     1      10.973  15.932  21.634  0.00  0.00    +0.000 NA
ATOM      6  C   UNL     1      11.948  16.430  20.659  0.00  0.00    +0.000 C 
ATOM      7  C   UNL     1      12.232  15.297  19.696  0.00  0.00    +0.000 C 
ATOM      8  C   UNL     1      10.872  14.610  19.419  0.00  0.00    +0.000 C 
ATOM      9  C   UNL     1       9.873  15.360  18.423  0.00  0.00    +0.000 C 
ATOM     10  N   UNL     1       9.518  14.467  17.260  0.00  0.00    +0.000 NA
ATOM     11  C   UNL     1      10.060  13.148  17.476  0.00  0.00    +0.000 C 
ATOM     12  C   UNL     1       9.029  12.039  17.865  0.00  0.00    +0.000 C 
ATOM     13  C   UNL     1       9.578  10.917  18.791  0.00  0.00    +0.000 C 
ATOM     14  C   UNL     1      10.857  11.250  19.603  0.00  0.00    +0.000 C 
ATOM     15  C   UNL     1      11.860  12.049  18.807  0.00  0.00    +0.000 C 
ATOM     16  C   UNL     1      11.222  13.386  18.435  0.00  0.00    +0.000 C 
ATOM     17  C   UNL     1       8.618  15.708  19.196  0.00  0.00    +0.000 C 
ATOM     18  C   UNL     1       8.065  14.513  20.122  0.00  0.00    +0.000 C 
ATOM     19  C   UNL     1      10.355  14.723  21.023  0.00  0.00    +0.000 C 
ATOM     20  H   UNL     1       8.512  14.498  16.964  0.00  0.00    +0.000 HD
ENDROOT
BRANCH   1  22
ATOM     21  C   UNL     1       8.514  12.007  22.336  0.00  0.00    +0.000 C 
ATOM     22  C   UNL     1       8.609  13.518  22.593  0.00  0.00    +0.000 C 
ENDBRANCH   1  22
BRANCH  17  23
ATOM     23  C   UNL     1       7.677  16.782  18.691  0.00  0.00    +0.000 C 
ATOM     24  O   UNL     1       8.077  17.871  18.316  0.00  0.00    +0.000 OA
BRANCH  23  25
ATOM     25  O   UNL     1       6.357  16.416  18.588  0.00  0.00    +0.000 OA
ATOM     26  C   UNL     1       5.264  16.863  19.287  0.00  0.00    +0.000 C 
ENDBRANCH  23  25
ENDBRANCH  17  23
TORSDOF 3
ENDMDL
MODEL 2
REMARK VINA RESULT:      -6.2      1.628      2.213
REMARK  Name = 
REMARK  5 active torsions:
REMARK  status: ('A' for Active; 'I' for Inactive)
REMARK    1  A    between atoms: C_1  and  C_2
REMARK    2  A    between atoms: C_2  and  C_3
REMARK    3  A    between atoms: C_19  and  C_20
REMARK    4  A    between atoms: C_20  and  O_22
REMARK    5  A    between atoms: O_22  and  C_23
REMARK                            x       y       z     vdW  Elec       q    Type
REMARK                         _______ _______ _______ _____ _____    ______ ____
ROOT
ATOM      1  C   UNL     1       9.649  15.654  20.482  0.00  0.00    +0.000 C 
ATOM      2  C   UNL     1       8.831  16.974  20.775  0.00  0.00    +0.000 C 
ATOM      3  C   UNL     1       9.617  18.200  20.464  0.00  0.00    +0.000 C 
ATOM      4  C   UNL     1      10.047  18.121  18.998  0.00  0.00    +0.000 C 
ATOM      5  N   UNL     1      10.909  16.934  18.664  0.00  0.00    +0.000 NA
ATOM      6  C   UNL     1      11.009  16.793  17.208  0.00  0.00    +0.000 C 
ATOM      7  C   UNL     1      11.222  15.323  16.917  0.00  0.00    +0.000 C 
ATOM      8  C   UNL     1      10.298  14.548  17.889  0.00  0.00    +0.000 C 
ATOM      9  C   UNL     1       8.741  14.512  17.531  0.00  0.00    +0.000 C 
ATOM     10  N   UNL     1       8.262  13.088  17.399  0.00  0.00    +0.000 NA
ATOM     11  C   UNL     1       9.314  12.183  17.792  0.00  0.00    +0.000 C 
ATOM     12  C   UNL     1       9.134  11.482  19.177  0.00  0.00    +0.000 C 
ATOM     13  C   UNL     1      10.452  11.159  19.936  0.00  0.00    +0.000 C 
ATOM     14  C   UNL     1      11.709  11.965  19.518  0.00  0.00    +0.000 C 
ATOM     15  C   UNL     1      11.798  12.173  18.026  0.00  0.00    +0.000 C 
ATOM     16  C   UNL     1      10.588  12.996  17.584  0.00  0.00    +0.000 C 
ATOM     17  C   UNL     1       7.988  15.198  18.651  0.00  0.00    +0.000 C 
ATOM     18  C   UNL     1       8.473  14.769  20.126  0.00  0.00    +0.000 C 
ATOM     19  C   UNL     1      10.614  15.573  19.193  0.00  0.00    +0.000 C 
ATOM     20  H   UNL     1       7.320  12.892  17.819  0.00  0.00    +0.000 HD
ENDROOT
BRANCH   1  22
ATOM     21  C   UNL     1       9.874  15.666  23.226  0.00  0.00    +0.000 C 
ATOM     22  C   UNL     1      10.475  15.469  21.827  0.00  0.00    +0.000 C 
ENDBRANCH   1  22
BRANCH  17  23
ATOM     23  C   UNL     1       6.583  15.717  18.429  0.00  0.00    +0.000 C 
ATOM     24  O   UNL     1       6.275  16.875  18.657  0.00  0.00    +0.000 OA
BRANCH  23  25
ATOM     25  O   UNL     1       5.703  14.828  17.860  0.00  0.00    +0.000 OA
ATOM     26  C   UNL     1       4.405  14.538  18.198  0.00  0.00    +0.000 C 
ENDBRANCH  23  25
ENDBRANCH  17  23
TORSDOF 3
ENDMDL
MODEL 3
REMARK VINA RESULT:      -5.9      0.561      1.068
REMARK  Name = 
REMARK  5 active torsions:
REMARK  status: ('A' for Active; 'I' for Inactive)
REMARK    1  A    between atoms: C_1  and  C_2
REMARK    2  A    between atoms: C_2  and  C_3
REMARK    3  A    between atoms: C_19  and  C_20
REMARK    4  A    between atoms: C_20  and  O_22
REMARK    5  A    between atoms: O_22  and  C_23
REMARK                            x       y       z     vdW  Elec       q    Type
REMARK                         _______ _______ _______ _____ _____    ______ ____
ROOT
ATOM      1  C   UNL     1       8.737  14.542  21.596  0.00  0.00    +0.000 C 
ATOM      2  C   UNL     1       7.952  15.813  22.113  0.00  0.00    +0.000 C 
ATOM      3  C   UNL     1       8.810  16.699  22.948  0.00  0.00    +0.000 C 
ATOM      4  C   UNL     1      10.028  17.094  22.110  0.00  0.00    +0.000 C 
ATOM      5  N   UNL     1      10.877  15.937  21.659  0.00  0.00    +0.000 NA
ATOM      6  C   UNL     1      11.823  16.392  20.635  0.00  0.00    +0.000 C 
ATOM      7  C   UNL     1      12.116  15.204  19.743  0.00  0.00    +0.000 C 
ATOM      8  C   UNL     1      10.769  14.469  19.538  0.00  0.00    +0.000 C 
ATOM      9  C   UNL     1       9.734  15.129  18.514  0.00  0.00    +0.000 C 
ATOM     10  N   UNL     1       9.381  14.154  17.419  0.00  0.00    +0.000 NA
ATOM     11  C   UNL     1       9.957  12.865  17.711  0.00  0.00    +0.000 C 
ATOM     12  C   UNL     1       8.960  11.761  18.191  0.00  0.00    +0.000 C 
ATOM     13  C   UNL     1       9.551  10.715  19.179  0.00  0.00    +0.000 C 
ATOM     14  C   UNL     1      10.836  11.130  19.942  0.00  0.00    +0.000 C 
ATOM     15  C   UNL     1      11.806  11.896  19.077  0.00  0.00    +0.000 C 
ATOM     16  C   UNL     1      11.130  13.192  18.630  0.00  0.00    +0.000 C 
ATOM     17  C   UNL     1       8.485  15.500  19.286  0.00  0.00    +0.000 C 
ATOM     18  C   UNL     1       7.977  14.356  20.300  0.00  0.00    +0.000 C 
ATOM     19  C   UNL     1      10.277  14.677  21.141  0.00  0.00    +0.000 C 
ATOM     20  H   UNL     1       8.368  14.142  17.141  0.00  0.00    +0.000 HD
ENDROOT
BRANCH   1  22
ATOM     21  C   UNL     1       8.276  12.044  22.659  0.00  0.00    +0.000 C 
ATOM     22  C   UNL     1       8.589  13.539  22.820  0.00  0.00    +0.000 C 
ENDBRANCH   1  22
BRANCH  17  23
ATOM     23  C   UNL     1       7.511  16.517  18.730  0.00  0.00    +0.000 C 
ATOM     24  O   UNL     1       6.465  16.189  18.196  0.00  0.00    +0.000 OA
BRANCH  23  25
ATOM     25  O   UNL     1       7.832  17.834  18.956  0.00  0.00    +0.000 OA
ATOM     26  C   UNL     1       9.017  18.496  18.755  0.00  0.00    +0.000 C 
ENDBRANCH  23  25
ENDBRANCH  17  23
TORSDOF 3
ENDMDL
MODEL 4
REMARK VINA RESULT:      -5.9      0.965      1.025
REMARK  Name = 
REMARK  5 active torsions:
REMARK  status: ('A' for Active; 'I' for Inactive)
REMARK    1  A    between atoms: C_1  and  C_2
REMARK    2  A    between atoms: C_2  and  C_3
REMARK    3  A    between atoms: C_19  and  C_20
REMARK    4  A    between atoms: C_20  and  O_22
REMARK    5  A    between atoms: O_22  and  C_23
REMARK                            x       y       z     vdW  Elec       q    Type
REMARK                         _______ _______ _______ _____ _____    ______ ____
ROOT
ATOM      1  C   UNL     1       8.838  13.997  21.868  0.00  0.00    +0.000 C 
ATOM      2  C   UNL     1       7.852  14.917  22.693  0.00  0.00    +0.000 C 
ATOM      3  C   UNL     1       8.571  15.745  23.701  0.00  0.00    +0.000 C 
ATOM      4  C   UNL     1       9.623  16.573  22.961  0.00  0.00    +0.000 C 
ATOM      5  N   UNL     1      10.653  15.760  22.227  0.00  0.00    +0.000 NA
ATOM      6  C   UNL     1      11.415  16.630  21.325  0.00  0.00    +0.000 C 
ATOM      7  C   UNL     1      11.879  15.772  20.166  0.00  0.00    +0.000 C 
ATOM      8  C   UNL     1      10.695  14.837  19.816  0.00  0.00    +0.000 C 
ATOM      9  C   UNL     1       9.481  15.483  19.002  0.00  0.00    +0.000 C 
ATOM     10  N   UNL     1       9.255  14.738  17.710  0.00  0.00    +0.000 NA
ATOM     11  C   UNL     1      10.097  13.568  17.670  0.00  0.00    +0.000 C 
ATOM     12  C   UNL     1       9.378  12.198  17.888  0.00  0.00    +0.000 C 
ATOM     13  C   UNL     1      10.234  11.100  18.581  0.00  0.00    +0.000 C 
ATOM     14  C   UNL     1      11.460  11.588  19.397  0.00  0.00    +0.000 C 
ATOM     15  C   UNL     1      12.193  12.722  18.724  0.00  0.00    +0.000 C 
ATOM     16  C   UNL     1      11.241  13.913  18.618  0.00  0.00    +0.000 C 
ATOM     17  C   UNL     1       8.239  15.391  19.864  0.00  0.00    +0.000 C 
ATOM     18  C   UNL     1       8.043  13.962  20.580  0.00  0.00    +0.000 C 
ATOM     19  C   UNL     1      10.285  14.557  21.429  0.00  0.00    +0.000 C 
ATOM     20  H   UNL     1       8.249  14.577  17.457  0.00  0.00    +0.000 HD
ENDROOT
BRANCH   1  22
ATOM     21  C   UNL     1       7.835  11.742  23.089  0.00  0.00    +0.000 C 
ATOM     22  C   UNL     1       8.980  12.729  22.815  0.00  0.00    +0.000 C 
ENDBRANCH   1  22
BRANCH  17  23
ATOM     23  C   UNL     1       7.044  16.279  19.590  0.00  0.00    +0.000 C 
ATOM     24  O   UNL     1       6.736  17.199  20.329  0.00  0.00    +0.000 OA
BRANCH  23  25
ATOM     25  O   UNL     1       6.390  16.047  18.405  0.00  0.00    +0.000 OA
ATOM     26  C   UNL     1       5.612  14.982  18.024  0.00  0.00    +0.000 C 
ENDBRANCH  23  25
ENDBRANCH  17  23
TORSDOF 3
ENDMDL
MODEL 5
REMARK VINA RESULT:      -5.8      2.085      3.524
REMARK  Name = 
REMARK  5 active torsions:
REMARK  status: ('A' for Active; 'I' for Inactive)
REMARK    1  A    between atoms: C_1  and  C_2
REMARK    2  A    between atoms: C_2  and  C_3
REMARK    3  A    between atoms: C_19  and  C_20
REMARK    4  A    between atoms: C_20  and  O_22
REMARK    5  A    between atoms: O_22  and  C_23
REMARK                            x       y       z     vdW  Elec       q    Type
REMARK                         _______ _______ _______ _____ _____    ______ ____
ROOT
ATOM      1  C   UNL     1       8.444  15.324  18.538  0.00  0.00    +0.000 C 
ATOM      2  C   UNL     1       8.245  16.883  18.360  0.00  0.00    +0.000 C 
ATOM      3  C   UNL     1       7.364  17.457  19.414  0.00  0.00    +0.000 C 
ATOM      4  C   UNL     1       7.980  17.121  20.774  0.00  0.00    +0.000 C 
ATOM      5  N   UNL     1       8.115  15.649  21.051  0.00  0.00    +0.000 NA
ATOM      6  C   UNL     1       8.974  15.446  22.221  0.00  0.00    +0.000 C 
ATOM      7  C   UNL     1       9.645  14.100  22.052  0.00  0.00    +0.000 C 
ATOM      8  C   UNL     1      10.030  13.990  20.555  0.00  0.00    +0.000 C 
ATOM      9  C   UNL     1      11.310  14.818  20.076  0.00  0.00    +0.000 C 
ATOM     10  N   UNL     1      12.333  13.898  19.459  0.00  0.00    +0.000 NA
ATOM     11  C   UNL     1      11.785  12.569  19.341  0.00  0.00    +0.000 C 
ATOM     12  C   UNL     1      11.389  12.117  17.898  0.00  0.00    +0.000 C 
ATOM     13  C   UNL     1      10.189  11.131  17.816  0.00  0.00    +0.000 C 
ATOM     14  C   UNL     1       9.237  11.093  19.040  0.00  0.00    +0.000 C 
ATOM     15  C   UNL     1       9.973  11.186  20.353  0.00  0.00    +0.000 C 
ATOM     16  C   UNL     1      10.693  12.533  20.406  0.00  0.00    +0.000 C 
ATOM     17  C   UNL     1      10.852  15.831  19.047  0.00  0.00    +0.000 C 
ATOM     18  C   UNL     1       9.836  15.236  17.948  0.00  0.00    +0.000 C 
ATOM     19  C   UNL     1       8.594  14.694  20.014  0.00  0.00    +0.000 C 
ATOM     20  H   UNL     1      12.805  14.268  18.597  0.00  0.00    +0.000 HD
ENDROOT
BRANCH   1  22
ATOM     21  C   UNL     1       6.976  13.249  17.479  0.00  0.00    +0.000 C 
ATOM     22  C   UNL     1       7.167  14.740  17.793  0.00  0.00    +0.000 C 
ENDBRANCH   1  22
BRANCH  17  23
ATOM     23  C   UNL     1      11.706  17.038  18.723  0.00  0.00    +0.000 C 
ATOM     24  O   UNL     1      11.976  17.354  17.577  0.00  0.00    +0.000 OA
BRANCH  23  25
ATOM     25  O   UNL     1      12.073  17.813  19.798  0.00  0.00    +0.000 OA
ATOM     26  C   UNL     1      11.310  18.631  20.593  0.00  0.00    +0.000 C 
ENDBRANCH  23  25
ENDBRANCH  17  23
TORSDOF 3
ENDMDL
MODEL 6
REMARK VINA RESULT:      -5.8      2.141      3.990
REMARK  Name = 
REMARK  5 active torsions:
REMARK  status: ('A' for Active; 'I' for Inactive)
REMARK    1  A    between atoms: C_1  and  C_2
REMARK    2  A    between atoms: C_2  and  C_3
REMARK    3  A    between atoms: C_19  and  C_20
REMARK    4  A    between atoms: C_20  and  O_22
REMARK    5  A    between atoms: O_22  and  C_23
REMARK                            x       y       z     vdW  Elec       q    Type
REMARK                         _______ _______ _______ _____ _____    ______ ____
ROOT
ATOM      1  C   UNL     1       9.888  15.906  19.381  0.00  0.00    +0.000 C 
ATOM      2  C   UNL     1       9.183  17.187  19.983  0.00  0.00    +0.000 C 
ATOM      3  C   UNL     1       8.328  17.879  18.979  0.00  0.00    +0.000 C 
ATOM      4  C   UNL     1       7.304  16.867  18.461  0.00  0.00    +0.000 C 
ATOM      5  N   UNL     1       7.903  15.661  17.790  0.00  0.00    +0.000 NA
ATOM      6  C   UNL     1       6.869  14.637  17.606  0.00  0.00    +0.000 C 
ATOM      7  C   UNL     1       7.567  13.294  17.624  0.00  0.00    +0.000 C 
ATOM      8  C   UNL     1       8.642  13.376  18.736  0.00  0.00    +0.000 C 
ATOM      9  C   UNL     1       8.130  13.260  20.246  0.00  0.00    +0.000 C 
ATOM     10  N   UNL     1       8.810  12.112  20.948  0.00  0.00    +0.000 NA
ATOM     11  C   UNL     1       9.836  11.561  20.096  0.00  0.00    +0.000 C 
ATOM     12  C   UNL     1      11.310  11.893  20.497  0.00  0.00    +0.000 C 
ATOM     13  C   UNL     1      12.313  11.999  19.312  0.00  0.00    +0.000 C 
ATOM     14  C   UNL     1      11.705  12.257  17.909  0.00  0.00    +0.000 C 
ATOM     15  C   UNL     1      10.431  11.483  17.676  0.00  0.00    +0.000 C 
ATOM     16  C   UNL     1       9.391  11.953  18.691  0.00  0.00    +0.000 C 
ATOM     17  C   UNL     1       8.465  14.557  20.953  0.00  0.00    +0.000 C 
ATOM     18  C   UNL     1       9.953  15.098  20.660  0.00  0.00    +0.000 C 
ATOM     19  C   UNL     1       9.090  14.958  18.350  0.00  0.00    +0.000 C 
ATOM     20  H   UNL     1       9.102  12.302  21.938  0.00  0.00    +0.000 HD
ENDROOT
BRANCH   1  22
ATOM     21  C   UNL     1      11.566  16.292  17.233  0.00  0.00    +0.000 C 
ATOM     22  C   UNL     1      11.182  16.527  18.701  0.00  0.00    +0.000 C 
ENDBRANCH   1  22
BRANCH  17  23
ATOM     23  C   UNL     1       7.748  14.944  22.229  0.00  0.00    +0.000 C 
ATOM     24  O   UNL     1       8.343  15.373  23.203  0.00  0.00    +0.000 OA
BRANCH  23  25
ATOM     25  O   UNL     1       6.376  14.876  22.185  0.00  0.00    +0.000 OA
ATOM     26  C   UNL     1       5.470  15.754  21.644  0.00  0.00    +0.000 C 
ENDBRANCH  23  25
ENDBRANCH  17  23
TORSDOF 3
ENDMDL
MODEL 7
REMARK VINA RESULT:      -5.7      2.136      4.289
REMARK  Name = 
REMARK  5 active torsions:
REMARK  status: ('A' for Active; 'I' for Inactive)
REMARK    1  A    between atoms: C_1  and  C_2
REMARK    2  A    between atoms: C_2  and  C_3
REMARK    3  A    between atoms: C_19  and  C_20
REMARK    4  A    between atoms: C_20  and  O_22
REMARK    5  A    between atoms: O_22  and  C_23
REMARK                            x       y       z     vdW  Elec       q    Type
REMARK                         _______ _______ _______ _____ _____    ______ ____
ROOT
ATOM      1  C   UNL     1      10.784  15.985  18.647  0.00  0.00    +0.000 C 
ATOM      2  C   UNL     1      10.742  17.517  19.037  0.00  0.00    +0.000 C 
ATOM      3  C   UNL     1       9.816  18.291  18.165  0.00  0.00    +0.000 C 
ATOM      4  C   UNL     1       8.431  17.649  18.267  0.00  0.00    +0.000 C 
ATOM      5  N   UNL     1       8.376  16.213  17.823  0.00  0.00    +0.000 NA
ATOM      6  C   UNL     1       7.101  15.619  18.238  0.00  0.00    +0.000 C 
ATOM      7  C   UNL     1       7.344  14.138  18.436  0.00  0.00    +0.000 C 
ATOM      8  C   UNL     1       8.725  14.012  19.126  0.00  0.00    +0.000 C 
ATOM      9  C   UNL     1       8.785  14.348  20.687  0.00  0.00    +0.000 C 
ATOM     10  N   UNL     1       9.317  13.168  21.461  0.00  0.00    +0.000 NA
ATOM     11  C   UNL     1       9.761  12.146  20.546  0.00  0.00    +0.000 C 
ATOM     12  C   UNL     1      11.309  11.982  20.400  0.00  0.00    +0.000 C 
ATOM     13  C   UNL     1      11.799  11.514  19.000  0.00  0.00    +0.000 C 
ATOM     14  C   UNL     1      10.823  11.733  17.814  0.00  0.00    +0.000 C 
ATOM     15  C   UNL     1       9.388  11.447  18.181  0.00  0.00    +0.000 C 
ATOM     16  C   UNL     1       8.967  12.429  19.274  0.00  0.00    +0.000 C 
ATOM     17  C   UNL     1       9.708  15.534  20.874  0.00  0.00    +0.000 C 
ATOM     18  C   UNL     1      11.076  15.439  20.029  0.00  0.00    +0.000 C 
ATOM     19  C   UNL     1       9.432  15.232  18.198  0.00  0.00    +0.000 C 
ATOM     20  H   UNL     1       9.989  13.405  22.232  0.00  0.00    +0.000 HD
ENDROOT
BRANCH   1  22
ATOM     21  C   UNL     1      12.333  14.687  16.778  0.00  0.00    +0.000 C 
ATOM     22  C   UNL     1      11.863  15.969  17.481  0.00  0.00    +0.000 C 
ENDBRANCH   1  22
BRANCH  17  23
ATOM     23  C   UNL     1       9.646  16.366  22.137  0.00  0.00    +0.000 C 
ATOM     24  O   UNL     1       9.332  17.544  22.123  0.00  0.00    +0.000 OA
BRANCH  23  25
ATOM     25  O   UNL     1       9.867  15.685  23.310  0.00  0.00    +0.000 OA
ATOM     26  C   UNL     1       9.061  15.548  24.412  0.00  0.00    +0.000 C 
ENDBRANCH  23  25
ENDBRANCH  17  23
TORSDOF 3
ENDMDL
MODEL 8
REMARK VINA RESULT:      -5.7      1.931      3.560
REMARK  Name = 
REMARK  5 active torsions:
REMARK  status: ('A' for Active; 'I' for Inactive)
REMARK    1  A    between atoms: C_1  and  C_2
REMARK    2  A    between atoms: C_2  and  C_3
REMARK    3  A    between atoms: C_19  and  C_20
REMARK    4  A    between atoms: C_20  and  O_22
REMARK    5  A    between atoms: O_22  and  C_23
REMARK                            x       y       z     vdW  Elec       q    Type
REMARK                         _______ _______ _______ _____ _____    ______ ____
ROOT
ATOM      1  C   UNL     1       8.286  15.335  18.704  0.00  0.00    +0.000 C 
ATOM      2  C   UNL     1       7.883  16.863  18.684  0.00  0.00    +0.000 C 
ATOM      3  C   UNL     1       6.836  17.180  19.694  0.00  0.00    +0.000 C 
ATOM      4  C   UNL     1       7.367  16.758  21.066  0.00  0.00    +0.000 C 
ATOM      5  N   UNL     1       7.685  15.293  21.188  0.00  0.00    +0.000 NA
ATOM      6  C   UNL     1       8.454  15.058  22.414  0.00  0.00    +0.000 C 
ATOM      7  C   UNL     1       9.324  13.844  22.167  0.00  0.00    +0.000 C 
ATOM      8  C   UNL     1       9.855  13.976  20.719  0.00  0.00    +0.000 C 
ATOM      9  C   UNL     1      11.042  15.019  20.477  0.00  0.00    +0.000 C 
ATOM     10  N   UNL     1      12.239  14.326  19.875  0.00  0.00    +0.000 NA
ATOM     11  C   UNL     1      11.899  12.963  19.549  0.00  0.00    +0.000 C 
ATOM     12  C   UNL     1      11.707  12.648  18.030  0.00  0.00    +0.000 C 
ATOM     13  C   UNL     1      10.672  11.532  17.708  0.00  0.00    +0.000 C 
ATOM     14  C   UNL     1       9.627  11.215  18.810  0.00  0.00    +0.000 C 
ATOM     15  C   UNL     1      10.220  11.237  20.197  0.00  0.00    +0.000 C 
ATOM     16  C   UNL     1      10.731  12.649  20.479  0.00  0.00    +0.000 C 
ATOM     17  C   UNL     1      10.540  16.085  19.525  0.00  0.00    +0.000 C 
ATOM     18  C   UNL     1       9.724  15.505  18.263  0.00  0.00    +0.000 C 
ATOM     19  C   UNL     1       8.389  14.548  20.108  0.00  0.00    +0.000 C 
ATOM     20  H   UNL     1      12.730  14.861  19.116  0.00  0.00    +0.000 HD
ENDROOT
BRANCH   1  22
ATOM     21  C   UNL     1       7.228  13.233  17.275  0.00  0.00    +0.000 C 
ATOM     22  C   UNL     1       7.179  14.687  17.766  0.00  0.00    +0.000 C 
ENDBRANCH   1  22
BRANCH  17  23
ATOM     23  C   UNL     1      11.238  17.425  19.434  0.00  0.00    +0.000 C 
ATOM     24  O   UNL     1      12.185  17.713  20.146  0.00  0.00    +0.000 OA
BRANCH  23  25
ATOM     25  O   UNL     1      10.801  18.256  18.431  0.00  0.00    +0.000 OA
ATOM     26  C   UNL     1      11.421  18.628  17.264  0.00  0.00    +0.000 C 
ENDBRANCH  23  25
ENDBRANCH  17  23
TORSDOF 3
ENDMDL
MODEL 9
REMARK VINA RESULT:      -5.7      1.798      3.410
REMARK  Name = 
REMARK  5 active torsions:
REMARK  status: ('A' for Active; 'I' for Inactive)
REMARK    1  A    between atoms: C_1  and  C_2
REMARK    2  A    between atoms: C_2  and  C_3
REMARK    3  A    between atoms: C_19  and  C_20
REMARK    4  A    between atoms: C_20  and  O_22
REMARK    5  A    between atoms: O_22  and  C_23
REMARK                            x       y       z     vdW  Elec       q    Type
REMARK                         _______ _______ _______ _____ _____    ______ ____
ROOT
ATOM      1  C   UNL     1       8.015  14.908  18.746  0.00  0.00    +0.000 C 
ATOM      2  C   UNL     1       7.010  16.081  19.082  0.00  0.00    +0.000 C 
ATOM      3  C   UNL     1       5.971  15.663  20.064  0.00  0.00    +0.000 C 
ATOM      4  C   UNL     1       6.688  15.162  21.320  0.00  0.00    +0.000 C 
ATOM      5  N   UNL     1       7.595  13.984  21.091  0.00  0.00    +0.000 NA
ATOM      6  C   UNL     1       8.444  13.782  22.270  0.00  0.00    +0.000 C 
ATOM      7  C   UNL     1       9.730  13.146  21.787  0.00  0.00    +0.000 C 
ATOM      8  C   UNL     1      10.094  13.854  20.459  0.00  0.00    +0.000 C 
ATOM      9  C   UNL     1      10.725  15.319  20.570  0.00  0.00    +0.000 C 
ATOM     10  N   UNL     1      12.074  15.365  19.898  0.00  0.00    +0.000 NA
ATOM     11  C   UNL     1      12.322  14.118  19.217  0.00  0.00    +0.000 C 
ATOM     12  C   UNL     1      12.213  14.154  17.659  0.00  0.00    +0.000 C 
ATOM     13  C   UNL     1      11.727  12.835  16.995  0.00  0.00    +0.000 C 
ATOM     14  C   UNL     1      10.959  11.841  17.906  0.00  0.00    +0.000 C 
ATOM     15  C   UNL     1      11.548  11.748  19.292  0.00  0.00    +0.000 C 
ATOM     16  C   UNL     1      11.434  13.120  19.955  0.00  0.00    +0.000 C 
ATOM     17  C   UNL     1       9.783  16.286  19.884  0.00  0.00    +0.000 C 
ATOM     18  C   UNL     1       9.230  15.766  18.463  0.00  0.00    +0.000 C 
ATOM     19  C   UNL     1       8.498  13.903  19.910  0.00  0.00    +0.000 C 
ATOM     20  H   UNL     1      12.263  16.231  19.335  0.00  0.00    +0.000 HD
ENDROOT
BRANCH   1  22
ATOM     21  C   UNL     1       7.589  12.694  17.165  0.00  0.00    +0.000 C 
ATOM     22  C   UNL     1       7.241  14.125  17.600  0.00  0.00    +0.000 C 
ENDBRANCH   1  22
BRANCH  17  23
ATOM     23  C   UNL     1       9.851  17.769  20.182  0.00  0.00    +0.000 C 
ATOM     24  O   UNL     1      10.688  18.495  19.672  0.00  0.00    +0.000 OA
BRANCH  23  25
ATOM     25  O   UNL     1       8.850  18.262  20.984  0.00  0.00    +0.000 OA
ATOM     26  C   UNL     1       8.648  18.107  22.332  0.00  0.00    +0.000 C 
ENDBRANCH  23  25
ENDBRANCH  17  23
TORSDOF 3
ENDMDL
