MODEL 1
REMARK VINA RESULT:      -6.3      0.000      0.000
REMARK  Name = 
REMARK  10 active torsions:
REMARK  status: ('A' for Active; 'I' for Inactive)
REMARK    1  A    between atoms: C_1  and  C_2
REMARK    2  A    between atoms: C_2  and  O_3
REMARK    3  A    between atoms: O_3  and  C_4
REMARK    4  A    between atoms: C_4  and  C_5
REMARK    5  A    between atoms: C_5  and  C_6
REMARK    6  A    between atoms: C_6  and  N_7
REMARK    7  A    between atoms: N_7  and  C_8
REMARK    8  A    between atoms: C_8  and  C_9
REMARK    9  A    between atoms: N_11  and  C_12
REMARK   10  A    between atoms: C_12  and  C_13
REMARK                            x       y       z     vdW  Elec       q    Type
REMARK                         _______ _______ _______ _____ _____    ______ ____
ROOT
ATOM      1  C   UNL     1       6.537   4.764  18.849  0.00  0.00    +0.000 C 
ATOM      2  O   UNL     1       6.508   5.705  19.645  0.00  0.00    +0.000 OA
ATOM      3  N   UNL     1       5.514   3.858  18.712  0.00  0.00    +0.000 N 
ATOM      4  H   UNL     1       5.572   3.245  17.903  0.00  0.00    +0.000 HD
ENDROOT
BRANCH   1   5
ATOM      5  C   UNL     1       7.749   4.518  17.948  0.00  0.00    +0.000 C 
BRANCH   5   6
ATOM      6  N   UNL     1       7.381   4.361  16.520  0.00  0.00    +0.000 NA
ATOM      7  H   UNL     1       8.214   4.084  15.999  0.00  0.00    +0.000 HD
BRANCH   6   8
ATOM      8  C   UNL     1       6.854   5.624  15.977  0.00  0.00    +0.000 C 
BRANCH   8   9
ATOM      9  C   UNL     1       5.609   5.501  15.085  0.00  0.00    +0.000 C 
BRANCH   9  10
ATOM     10  C   UNL     1       5.509   4.114  14.435  0.00  0.00    +0.000 C 
BRANCH  10  11
ATOM     11  O   UNL     1       6.717   3.864  13.710  0.00  0.00    +0.000 OA
BRANCH  11  13
ATOM     12  C   UNL     1       5.114   3.224  12.042  0.00  0.00    +0.000 C 
ATOM     13  C   UNL     1       6.539   3.704  12.298  0.00  0.00    +0.000 C 
ENDBRANCH  11  13
ENDBRANCH  10  11
ENDBRANCH   9  10
ENDBRANCH   8   9
ENDBRANCH   6   8
ENDBRANCH   5   6
ENDBRANCH   1   5
BRANCH   3  14
ATOM     14  C   UNL     1       4.280   3.962  19.466  0.00  0.00    +0.000 C 
BRANCH  14  15
ATOM     15  C   UNL     1       3.727   2.585  19.889  0.00  0.00    +0.000 C 
ATOM     16  C   UNL     1       2.699   2.716  21.026  0.00  0.00    +0.000 C 
ATOM     17  C   UNL     1       1.392   3.368  20.568  0.00  0.00    +0.000 C 
ATOM     18  C   UNL     1       0.795   2.681  19.341  0.00  0.00    +0.000 C 
ATOM     19  C   UNL     1       1.812   2.517  18.214  0.00  0.00    +0.000 C 
ATOM     20  C   UNL     1       3.075   1.823  18.719  0.00  0.00    +0.000 C 
ENDBRANCH  14  15
ENDBRANCH   3  14
TORSDOF 9
ENDMDL
MODEL 2
REMARK VINA RESULT:      -6.2      1.117      1.469
REMARK  Name = 
REMARK  10 active torsions:
REMARK  status: ('A' for Active; 'I' for Inactive)
REMARK    1  A    between atoms: C_1  and  C_2
REMARK    2  A    between atoms: C_2  and  O_3
REMARK    3  A    between atoms: O_3  and  C_4
REMARK    4  A    between atoms: C_4  and  C_5
REMARK    5  A    between atoms: C_5  and  C_6
REMARK    6  A    between atoms: C_6  and  N_7
REMARK    7  A    between atoms: N_7  and  C_8
REMARK    8  A    between atoms: C_8  and  C_9
REMARK    9  A    between atoms: N_11  and  C_12
REMARK   10  A    between atoms: C_12  and  C_13
REMARK                            x       y       z     vdW  Elec       q    Type
REMARK                         _______ _______ _______ _____ _____    ______ ____
ROOT
ATOM      1  C   UNL     1       6.168   4.798  18.888  0.00  0.00    +0.000 C 
ATOM      2  O   UNL     1       5.711   5.653  19.649  0.00  0.00    +0.000 OA
ATOM      3  N   UNL     1       5.653   3.529  18.781  0.00  0.00    +0.000 N 
ATOM      4  H   UNL     1       5.992   2.980  17.994  0.00  0.00    +0.000 HD
ENDROOT
BRANCH   1   5
ATOM      5  C   UNL     1       7.381   5.085  18.001  0.00  0.00    +0.000 C 
BRANCH   5   6
ATOM      6  N   UNL     1       7.403   4.255  16.772  0.00  0.00    +0.000 NA
ATOM      7  H   UNL     1       8.336   4.310  16.361  0.00  0.00    +0.000 HD
BRANCH   6   8
ATOM      8  C   UNL     1       6.405   4.735  15.802  0.00  0.00    +0.000 C 
BRANCH   8   9
ATOM      9  C   UNL     1       6.844   4.724  14.329  0.00  0.00    +0.000 C 
BRANCH   9  10
ATOM     10  C   UNL     1       5.800   4.049  13.429  0.00  0.00    +0.000 C 
BRANCH  10  11
ATOM     11  O   UNL     1       6.483   3.217  12.486  0.00  0.00    +0.000 OA
BRANCH  11  13
ATOM     12  C   UNL     1       4.323   3.223  11.437  0.00  0.00    +0.000 C 
ATOM     13  C   UNL     1       5.620   2.446  11.643  0.00  0.00    +0.000 C 
ENDBRANCH  11  13
ENDBRANCH  10  11
ENDBRANCH   9  10
ENDBRANCH   8   9
ENDBRANCH   6   8
ENDBRANCH   5   6
ENDBRANCH   1   5
BRANCH   3  14
ATOM     14  C   UNL     1       4.486   3.100  19.526  0.00  0.00    +0.000 C 
BRANCH  14  15
ATOM     15  C   UNL     1       3.206   3.086  18.664  0.00  0.00    +0.000 C 
ATOM     16  C   UNL     1       2.141   2.143  19.252  0.00  0.00    +0.000 C 
ATOM     17  C   UNL     1       1.543   2.670  20.559  0.00  0.00    +0.000 C 
ATOM     18  C   UNL     1       1.024   4.100  20.430  0.00  0.00    +0.000 C 
ATOM     19  C   UNL     1       2.058   5.042  19.819  0.00  0.00    +0.000 C 
ATOM     20  C   UNL     1       2.586   4.487  18.499  0.00  0.00    +0.000 C 
ENDBRANCH  14  15
ENDBRANCH   3  14
TORSDOF 9
ENDMDL
MODEL 3
REMARK VINA RESULT:      -6.0      1.417      1.985
REMARK  Name = 
REMARK  10 active torsions:
REMARK  status: ('A' for Active; 'I' for Inactive)
REMARK    1  A    between atoms: C_1  and  C_2
REMARK    2  A    between atoms: C_2  and  O_3
REMARK    3  A    between atoms: O_3  and  C_4
REMARK    4  A    between atoms: C_4  and  C_5
REMARK    5  A    between atoms: C_5  and  C_6
REMARK    6  A    between atoms: C_6  and  N_7
REMARK    7  A    between atoms: N_7  and  C_8
REMARK    8  A    between atoms: C_8  and  C_9
REMARK    9  A    between atoms: N_11  and  C_12
REMARK   10  A    between atoms: C_12  and  C_13
REMARK                            x       y       z     vdW  Elec       q    Type
REMARK                         _______ _______ _______ _____ _____    ______ ____
ROOT
ATOM      1  C   UNL     1       5.511   4.123  18.264  0.00  0.00    +0.000 C 
ATOM      2  O   UNL     1       5.619   3.991  19.485  0.00  0.00    +0.000 OA
ATOM      3  N   UNL     1       4.540   3.501  17.519  0.00  0.00    +0.000 N 
ATOM      4  H   UNL     1       4.438   3.831  16.562  0.00  0.00    +0.000 HD
ENDROOT
BRANCH   1   5
ATOM      5  C   UNL     1       6.483   4.996  17.468  0.00  0.00    +0.000 C 
BRANCH   5   6
ATOM      6  N   UNL     1       5.835   5.680  16.322  0.00  0.00    +0.000 NA
ATOM      7  H   UNL     1       4.866   5.364  16.262  0.00  0.00    +0.000 HD
BRANCH   6   8
ATOM      8  C   UNL     1       6.536   5.368  15.066  0.00  0.00    +0.000 C 
BRANCH   8   9
ATOM      9  C   UNL     1       6.423   3.914  14.581  0.00  0.00    +0.000 C 
BRANCH   9  10
ATOM     10  C   UNL     1       5.429   3.777  13.419  0.00  0.00    +0.000 C 
BRANCH  10  11
ATOM     11  O   UNL     1       6.110   3.191  12.305  0.00  0.00    +0.000 OA
BRANCH  11  13
ATOM     12  C   UNL     1       4.008   3.210  11.145  0.00  0.00    +0.000 C 
ATOM     13  C   UNL     1       5.273   2.412  11.443  0.00  0.00    +0.000 C 
ENDBRANCH  11  13
ENDBRANCH  10  11
ENDBRANCH   9  10
ENDBRANCH   8   9
ENDBRANCH   6   8
ENDBRANCH   5   6
ENDBRANCH   1   5
BRANCH   3  14
ATOM     14  C   UNL     1       3.520   2.664  18.118  0.00  0.00    +0.000 C 
BRANCH  14  15
ATOM     15  C   UNL     1       2.093   3.184  17.846  0.00  0.00    +0.000 C 
ATOM     16  C   UNL     1       1.051   2.447  18.706  0.00  0.00    +0.000 C 
ATOM     17  C   UNL     1       1.155   2.800  20.192  0.00  0.00    +0.000 C 
ATOM     18  C   UNL     1       1.128   4.307  20.438  0.00  0.00    +0.000 C 
ATOM     19  C   UNL     1       2.136   5.056  19.570  0.00  0.00    +0.000 C 
ATOM     20  C   UNL     1       1.956   4.698  18.096  0.00  0.00    +0.000 C 
ENDBRANCH  14  15
ENDBRANCH   3  14
TORSDOF 9
ENDMDL
MODEL 4
REMARK VINA RESULT:      -6.0      1.201      1.424
REMARK  Name = 
REMARK  10 active torsions:
REMARK  status: ('A' for Active; 'I' for Inactive)
REMARK    1  A    between atoms: C_1  and  C_2
REMARK    2  A    between atoms: C_2  and  O_3
REMARK    3  A    between atoms: O_3  and  C_4
REMARK    4  A    between atoms: C_4  and  C_5
REMARK    5  A    between atoms: C_5  and  C_6
REMARK    6  A    between atoms: C_6  and  N_7
REMARK    7  A    between atoms: N_7  and  C_8
REMARK    8  A    between atoms: C_8  and  C_9
REMARK    9  A    between atoms: N_11  and  C_12
REMARK   10  A    between atoms: C_12  and  C_13
REMARK                            x       y       z     vdW  Elec       q    Type
REMARK                         _______ _______ _______ _____ _____    ______ ____
ROOT
ATOM      1  C   UNL     1       5.883   4.815  19.078  0.00  0.00    +0.000 C 
ATOM      2  O   UNL     1       5.174   5.595  19.718  0.00  0.00    +0.000 OA
ATOM      3  N   UNL     1       5.609   3.476  18.950  0.00  0.00    +0.000 N 
ATOM      4  H   UNL     1       6.156   2.977  18.253  0.00  0.00    +0.000 HD
ENDROOT
BRANCH   1   5
ATOM      5  C   UNL     1       7.158   5.288  18.378  0.00  0.00    +0.000 C 
BRANCH   5   6
ATOM      6  N   UNL     1       6.913   6.398  17.425  0.00  0.00    +0.000 NA
ATOM      7  H   UNL     1       6.251   7.048  17.849  0.00  0.00    +0.000 HD
BRANCH   6   8
ATOM      8  C   UNL     1       6.362   5.884  16.160  0.00  0.00    +0.000 C 
BRANCH   8   9
ATOM      9  C   UNL     1       7.080   4.663  15.564  0.00  0.00    +0.000 C 
BRANCH   9  10
ATOM     10  C   UNL     1       6.099   3.711  14.865  0.00  0.00    +0.000 C 
BRANCH  10  11
ATOM     11  O   UNL     1       5.767   4.260  13.586  0.00  0.00    +0.000 OA
BRANCH  11  13
ATOM     12  C   UNL     1       4.640   3.232  11.733  0.00  0.00    +0.000 C 
ATOM     13  C   UNL     1       5.959   3.362  12.488  0.00  0.00    +0.000 C 
ENDBRANCH  11  13
ENDBRANCH  10  11
ENDBRANCH   9  10
ENDBRANCH   8   9
ENDBRANCH   6   8
ENDBRANCH   5   6
ENDBRANCH   1   5
BRANCH   3  14
ATOM     14  C   UNL     1       4.424   2.868  19.524  0.00  0.00    +0.000 C 
BRANCH  14  15
ATOM     15  C   UNL     1       3.508   2.236  18.456  0.00  0.00    +0.000 C 
ATOM     16  C   UNL     1       2.135   1.862  19.042  0.00  0.00    +0.000 C 
ATOM     17  C   UNL     1       1.286   3.088  19.389  0.00  0.00    +0.000 C 
ATOM     18  C   UNL     1       1.157   4.059  18.217  0.00  0.00    +0.000 C 
ATOM     19  C   UNL     1       2.508   4.417  17.605  0.00  0.00    +0.000 C 
ATOM     20  C   UNL     1       3.290   3.157  17.240  0.00  0.00    +0.000 C 
ENDBRANCH  14  15
ENDBRANCH   3  14
TORSDOF 9
ENDMDL
MODEL 5
REMARK VINA RESULT:      -5.9      2.713      6.066
REMARK  Name = 
REMARK  10 active torsions:
REMARK  status: ('A' for Active; 'I' for Inactive)
REMARK    1  A    between atoms: C_1  and  C_2
REMARK    2  A    between atoms: C_2  and  O_3
REMARK    3  A    between atoms: O_3  and  C_4
REMARK    4  A    between atoms: C_4  and  C_5
REMARK    5  A    between atoms: C_5  and  C_6
REMARK    6  A    between atoms: C_6  and  N_7
REMARK    7  A    between atoms: N_7  and  C_8
REMARK    8  A    between atoms: C_8  and  C_9
REMARK    9  A    between atoms: N_11  and  C_12
REMARK   10  A    between atoms: C_12  and  C_13
REMARK                            x       y       z     vdW  Elec       q    Type
REMARK                         _______ _______ _______ _____ _____    ______ ____
ROOT
ATOM      1  C   UNL     1       4.418   2.370  19.267  0.00  0.00    +0.000 C 
ATOM      2  O   UNL     1       4.971   2.168  20.350  0.00  0.00    +0.000 OA
ATOM      3  N   UNL     1       4.684   3.459  18.474  0.00  0.00    +0.000 N 
ATOM      4  H   UNL     1       4.308   3.420  17.529  0.00  0.00    +0.000 HD
ENDROOT
BRANCH   1   5
ATOM      5  C   UNL     1       3.357   1.412  18.722  0.00  0.00    +0.000 C 
BRANCH   5   6
ATOM      6  N   UNL     1       1.983   1.959  18.822  0.00  0.00    +0.000 NA
ATOM      7  H   UNL     1       1.918   2.783  18.222  0.00  0.00    +0.000 HD
BRANCH   6   8
ATOM      8  C   UNL     1       1.672   2.333  20.212  0.00  0.00    +0.000 C 
BRANCH   8   9
ATOM      9  C   UNL     1       0.882   3.639  20.392  0.00  0.00    +0.000 C 
BRANCH   9  10
ATOM     10  C   UNL     1       1.812   4.842  20.605  0.00  0.00    +0.000 C 
BRANCH  10  11
ATOM     11  O   UNL     1       2.311   5.261  19.330  0.00  0.00    +0.000 OA
BRANCH  11  13
ATOM     12  C   UNL     1       2.433   7.306  18.079  0.00  0.00    +0.000 C 
ATOM     13  C   UNL     1       2.903   6.564  19.326  0.00  0.00    +0.000 C 
ENDBRANCH  11  13
ENDBRANCH  10  11
ENDBRANCH   9  10
ENDBRANCH   8   9
ENDBRANCH   6   8
ENDBRANCH   5   6
ENDBRANCH   1   5
BRANCH   3  14
ATOM     14  C   UNL     1       5.684   4.448  18.824  0.00  0.00    +0.000 C 
BRANCH  14  15
ATOM     15  C   UNL     1       6.710   4.679  17.695  0.00  0.00    +0.000 C 
ATOM     16  C   UNL     1       6.171   4.194  16.338  0.00  0.00    +0.000 C 
ATOM     17  C   UNL     1       5.032   5.068  15.808  0.00  0.00    +0.000 C 
ATOM     18  C   UNL     1       5.399   6.550  15.775  0.00  0.00    +0.000 C 
ATOM     19  C   UNL     1       5.963   7.040  17.106  0.00  0.00    +0.000 C 
ATOM     20  C   UNL     1       7.122   6.158  17.562  0.00  0.00    +0.000 C 
ENDBRANCH  14  15
ENDBRANCH   3  14
TORSDOF 9
ENDMDL
MODEL 6
REMARK VINA RESULT:      -5.9      1.467      2.093
REMARK  Name = 
REMARK  10 active torsions:
REMARK  status: ('A' for Active; 'I' for Inactive)
REMARK    1  A    between atoms: C_1  and  C_2
REMARK    2  A    between atoms: C_2  and  O_3
REMARK    3  A    between atoms: O_3  and  C_4
REMARK    4  A    between atoms: C_4  and  C_5
REMARK    5  A    between atoms: C_5  and  C_6
REMARK    6  A    between atoms: C_6  and  N_7
REMARK    7  A    between atoms: N_7  and  C_8
REMARK    8  A    between atoms: C_8  and  C_9
REMARK    9  A    between atoms: N_11  and  C_12
REMARK   10  A    between atoms: C_12  and  C_13
REMARK                            x       y       z     vdW  Elec       q    Type
REMARK                         _______ _______ _______ _____ _____    ______ ____
ROOT
ATOM      1  C   UNL     1       6.490   5.637  18.781  0.00  0.00    +0.000 C 
ATOM      2  O   UNL     1       6.962   4.889  19.640  0.00  0.00    +0.000 OA
ATOM      3  N   UNL     1       5.149   5.709  18.497  0.00  0.00    +0.000 N 
ATOM      4  H   UNL     1       4.863   6.487  17.907  0.00  0.00    +0.000 HD
ENDROOT
BRANCH   1   5
ATOM      5  C   UNL     1       7.384   6.546  17.936  0.00  0.00    +0.000 C 
BRANCH   5   6
ATOM      6  N   UNL     1       7.247   6.295  16.481  0.00  0.00    +0.000 NA
ATOM      7  H   UNL     1       6.386   6.736  16.156  0.00  0.00    +0.000 HD
BRANCH   6   8
ATOM      8  C   UNL     1       7.196   4.849  16.206  0.00  0.00    +0.000 C 
BRANCH   8   9
ATOM      9  C   UNL     1       6.888   4.456  14.752  0.00  0.00    +0.000 C 
BRANCH   9  10
ATOM     10  C   UNL     1       5.389   4.566  14.439  0.00  0.00    +0.000 C 
BRANCH  10  11
ATOM     11  O   UNL     1       5.106   3.765  13.287  0.00  0.00    +0.000 OA
BRANCH  11  13
ATOM     12  C   UNL     1       5.931   2.263  11.606  0.00  0.00    +0.000 C 
ATOM     13  C   UNL     1       6.245   3.482  12.467  0.00  0.00    +0.000 C 
ENDBRANCH  11  13
ENDBRANCH  10  11
ENDBRANCH   9  10
ENDBRANCH   8   9
ENDBRANCH   6   8
ENDBRANCH   5   6
ENDBRANCH   1   5
BRANCH   3  14
ATOM     14  C   UNL     1       4.159   4.939  19.225  0.00  0.00    +0.000 C 
BRANCH  14  15
ATOM     15  C   UNL     1       2.730   5.493  19.045  0.00  0.00    +0.000 C 
ATOM     16  C   UNL     1       1.940   4.687  18.000  0.00  0.00    +0.000 C 
ATOM     17  C   UNL     1       1.591   3.276  18.482  0.00  0.00    +0.000 C 
ATOM     18  C   UNL     1       0.893   3.279  19.840  0.00  0.00    +0.000 C 
ATOM     19  C   UNL     1       1.649   4.100  20.881  0.00  0.00    +0.000 C 
ATOM     20  C   UNL     1       1.930   5.508  20.363  0.00  0.00    +0.000 C 
ENDBRANCH  14  15
ENDBRANCH   3  14
TORSDOF 9
ENDMDL
MODEL 7
REMARK VINA RESULT:      -5.9      3.278      5.165
REMARK  Name = 
REMARK  10 active torsions:
REMARK  status: ('A' for Active; 'I' for Inactive)
REMARK    1  A    between atoms: C_1  and  C_2
REMARK    2  A    between atoms: C_2  and  O_3
REMARK    3  A    between atoms: O_3  and  C_4
REMARK    4  A    between atoms: C_4  and  C_5
REMARK    5  A    between atoms: C_5  and  C_6
REMARK    6  A    between atoms: C_6  and  N_7
REMARK    7  A    between atoms: N_7  and  C_8
REMARK    8  A    between atoms: C_8  and  C_9
REMARK    9  A    between atoms: N_11  and  C_12
REMARK   10  A    between atoms: C_12  and  C_13
REMARK                            x       y       z     vdW  Elec       q    Type
REMARK                         _______ _______ _______ _____ _____    ______ ____
ROOT
ATOM      1  C   UNL     1       6.293   4.801  18.781  0.00  0.00    +0.000 C 
ATOM      2  O   UNL     1       5.903   5.526  19.699  0.00  0.00    +0.000 OA
ATOM      3  N   UNL     1       5.626   3.672  18.375  0.00  0.00    +0.000 N 
ATOM      4  H   UNL     1       5.940   3.264  17.498  0.00  0.00    +0.000 HD
ENDROOT
BRANCH   1   5
ATOM      5  C   UNL     1       7.587   5.100  18.023  0.00  0.00    +0.000 C 
BRANCH   5   6
ATOM      6  N   UNL     1       7.377   5.994  16.859  0.00  0.00    +0.000 NA
ATOM      7  H   UNL     1       8.189   5.922  16.244  0.00  0.00    +0.000 HD
BRANCH   6   8
ATOM      8  C   UNL     1       7.213   7.390  17.299  0.00  0.00    +0.000 C 
BRANCH   8   9
ATOM      9  C   UNL     1       8.260   7.903  18.299  0.00  0.00    +0.000 C 
BRANCH   9  10
ATOM     10  C   UNL     1       8.439   9.425  18.206  0.00  0.00    +0.000 C 
BRANCH  10  11
ATOM     11  O   UNL     1       9.323   9.844  19.250  0.00  0.00    +0.000 OA
BRANCH  11  13
ATOM     12  C   UNL     1      10.470  11.596  20.424  0.00  0.00    +0.000 C 
ATOM     13  C   UNL     1       9.278  11.246  19.538  0.00  0.00    +0.000 C 
ENDBRANCH  11  13
ENDBRANCH  10  11
ENDBRANCH   9  10
ENDBRANCH   8   9
ENDBRANCH   6   8
ENDBRANCH   5   6
ENDBRANCH   1   5
BRANCH   3  14
ATOM     14  C   UNL     1       4.367   3.260  18.965  0.00  0.00    +0.000 C 
BRANCH  14  15
ATOM     15  C   UNL     1       3.146   3.784  18.181  0.00  0.00    +0.000 C 
ATOM     16  C   UNL     1       2.038   2.721  18.086  0.00  0.00    +0.000 C 
ATOM     17  C   UNL     1       1.360   2.451  19.432  0.00  0.00    +0.000 C 
ATOM     18  C   UNL     1       0.861   3.730  20.101  0.00  0.00    +0.000 C 
ATOM     19  C   UNL     1       1.940   4.807  20.176  0.00  0.00    +0.000 C 
ATOM     20  C   UNL     1       2.549   5.063  18.800  0.00  0.00    +0.000 C 
ENDBRANCH  14  15
ENDBRANCH   3  14
TORSDOF 9
ENDMDL
MODEL 8
REMARK VINA RESULT:      -5.9      1.634      2.297
REMARK  Name = 
REMARK  10 active torsions:
REMARK  status: ('A' for Active; 'I' for Inactive)
REMARK    1  A    between atoms: C_1  and  C_2
REMARK    2  A    between atoms: C_2  and  O_3
REMARK    3  A    between atoms: O_3  and  C_4
REMARK    4  A    between atoms: C_4  and  C_5
REMARK    5  A    between atoms: C_5  and  C_6
REMARK    6  A    between atoms: C_6  and  N_7
REMARK    7  A    between atoms: N_7  and  C_8
REMARK    8  A    between atoms: C_8  and  C_9
REMARK    9  A    between atoms: N_11  and  C_12
REMARK   10  A    between atoms: C_12  and  C_13
REMARK                            x       y       z     vdW  Elec       q    Type
REMARK                         _______ _______ _______ _____ _____    ______ ____
ROOT
ATOM      1  C   UNL     1       6.291   4.890  17.372  0.00  0.00    +0.000 C 
ATOM      2  O   UNL     1       6.954   4.304  18.231  0.00  0.00    +0.000 OA
ATOM      3  N   UNL     1       4.943   4.698  17.196  0.00  0.00    +0.000 N 
ATOM      4  H   UNL     1       4.477   5.366  16.588  0.00  0.00    +0.000 HD
ENDROOT
BRANCH   1   5
ATOM      5  C   UNL     1       6.939   5.881  16.403  0.00  0.00    +0.000 C 
BRANCH   5   6
ATOM      6  N   UNL     1       6.314   5.861  15.058  0.00  0.00    +0.000 NA
ATOM      7  H   UNL     1       5.305   5.756  15.171  0.00  0.00    +0.000 HD
BRANCH   6   8
ATOM      8  C   UNL     1       6.842   4.745  14.256  0.00  0.00    +0.000 C 
BRANCH   8   9
ATOM      9  C   UNL     1       5.797   3.928  13.479  0.00  0.00    +0.000 C 
BRANCH   9  10
ATOM     10  C   UNL     1       6.445   3.080  12.374  0.00  0.00    +0.000 C 
BRANCH  10  11
ATOM     11  O   UNL     1       5.450   2.780  11.390  0.00  0.00    +0.000 OA
BRANCH  11  13
ATOM     12  C   UNL     1       3.407   3.492  10.349  0.00  0.00    +0.000 C 
ATOM     13  C   UNL     1       4.158   3.329  11.668  0.00  0.00    +0.000 C 
ENDBRANCH  11  13
ENDBRANCH  10  11
ENDBRANCH   9  10
ENDBRANCH   8   9
ENDBRANCH   6   8
ENDBRANCH   5   6
ENDBRANCH   1   5
BRANCH   3  14
ATOM     14  C   UNL     1       4.168   3.817  18.048  0.00  0.00    +0.000 C 
BRANCH  14  15
ATOM     15  C   UNL     1       2.772   3.510  17.467  0.00  0.00    +0.000 C 
ATOM     16  C   UNL     1       2.293   2.103  17.866  0.00  0.00    +0.000 C 
ATOM     17  C   UNL     1       1.961   1.993  19.356  0.00  0.00    +0.000 C 
ATOM     18  C   UNL     1       0.988   3.074  19.819  0.00  0.00    +0.000 C 
ATOM     19  C   UNL     1       1.433   4.474  19.405  0.00  0.00    +0.000 C 
ATOM     20  C   UNL     1       1.708   4.535  17.904  0.00  0.00    +0.000 C 
ENDBRANCH  14  15
ENDBRANCH   3  14
TORSDOF 9
ENDMDL
MODEL 9
REMARK VINA RESULT:      -5.8      2.792      6.648
REMARK  Name = 
REMARK  10 active torsions:
REMARK  status: ('A' for Active; 'I' for Inactive)
REMARK    1  A    between atoms: C_1  and  C_2
REMARK    2  A    between atoms: C_2  and  O_3
REMARK    3  A    between atoms: O_3  and  C_4
REMARK    4  A    between atoms: C_4  and  C_5
REMARK    5  A    between atoms: C_5  and  C_6
REMARK    6  A    between atoms: C_6  and  N_7
REMARK    7  A    between atoms: N_7  and  C_8
REMARK    8  A    between atoms: C_8  and  C_9
REMARK    9  A    between atoms: N_11  and  C_12
REMARK   10  A    between atoms: C_12  and  C_13
REMARK                            x       y       z     vdW  Elec       q    Type
REMARK                         _______ _______ _______ _____ _____    ______ ____
ROOT
ATOM      1  C   UNL     1       4.298   3.036  18.437  0.00  0.00    +0.000 C 
ATOM      2  O   UNL     1       4.789   3.203  19.556  0.00  0.00    +0.000 OA
ATOM      3  N   UNL     1       4.400   3.954  17.422  0.00  0.00    +0.000 N 
ATOM      4  H   UNL     1       4.119   3.627  16.501  0.00  0.00    +0.000 HD
ENDROOT
BRANCH   1   5
ATOM      5  C   UNL     1       3.504   1.773  18.096  0.00  0.00    +0.000 C 
BRANCH   5   6
ATOM      6  N   UNL     1       2.047   2.024  17.981  0.00  0.00    +0.000 NA
ATOM      7  H   UNL     1       1.909   2.976  17.639  0.00  0.00    +0.000 HD
BRANCH   6   8
ATOM      8  C   UNL     1       1.388   1.867  19.288  0.00  0.00    +0.000 C 
BRANCH   8   9
ATOM      9  C   UNL     1       1.009   3.171  20.007  0.00  0.00    +0.000 C 
BRANCH   9  10
ATOM     10  C   UNL     1       1.765   3.330  21.334  0.00  0.00    +0.000 C 
BRANCH  10  11
ATOM     11  O   UNL     1       2.302   4.655  21.395  0.00  0.00    +0.000 OA
BRANCH  11  13
ATOM     12  C   UNL     1       2.674   6.388  19.776  0.00  0.00    +0.000 C 
ATOM     13  C   UNL     1       1.628   5.606  20.565  0.00  0.00    +0.000 C 
ENDBRANCH  11  13
ENDBRANCH  10  11
ENDBRANCH   9  10
ENDBRANCH   8   9
ENDBRANCH   6   8
ENDBRANCH   5   6
ENDBRANCH   1   5
BRANCH   3  14
ATOM     14  C   UNL     1       5.144   5.190  17.566  0.00  0.00    +0.000 C 
BRANCH  14  15
ATOM     15  C   UNL     1       6.587   5.077  17.031  0.00  0.00    +0.000 C 
ATOM     16  C   UNL     1       7.050   6.392  16.379  0.00  0.00    +0.000 C 
ATOM     17  C   UNL     1       7.259   7.516  17.397  0.00  0.00    +0.000 C 
ATOM     18  C   UNL     1       8.175   7.101  18.545  0.00  0.00    +0.000 C 
ATOM     19  C   UNL     1       7.747   5.783  19.185  0.00  0.00    +0.000 C 
ATOM     20  C   UNL     1       7.597   4.690  18.129  0.00  0.00    +0.000 C 
ENDBRANCH  14  15
ENDBRANCH   3  14
TORSDOF 9
ENDMDL
