MODEL 1
REMARK VINA RESULT:      -7.6      0.000      0.000
REMARK  Name = 
REMARK  8 active torsions:
REMARK  status: ('A' for Active; 'I' for Inactive)
REMARK    1  A    between atoms: C_1  and  O_2
REMARK    2  A    between atoms: O_2  and  C_3
REMARK    3  A    between atoms: C_5  and  O_6
REMARK    4  A    between atoms: O_6  and  C_7
REMARK    5  A    between atoms: C_9  and  C_10
REMARK    6  A    between atoms: C_10  and  C_12
REMARK    7  A    between atoms: C_13  and  C_14
REMARK    8  A    between atoms: C_18  and  N_19
REMARK                            x       y       z     vdW  Elec       q    Type
REMARK                         _______ _______ _______ _____ _____    ______ ____
ROOT
ATOM      1  C   UNL     1       6.641   5.007  18.357  0.00  0.00    +0.000 C 
ATOM      2  O   UNL     1       7.532   5.031  19.199  0.00  0.00    +0.000 OA
ENDROOT
BRANCH   1   7
ATOM      3  C   UNL     1       3.069   6.123  19.027  0.00  0.00    +0.000 A 
ATOM      4  C   UNL     1       2.568   4.968  19.632  0.00  0.00    +0.000 A 
ATOM      5  C   UNL     1       3.374   3.839  19.810  0.00  0.00    +0.000 A 
ATOM      6  C   UNL     1       4.692   3.867  19.361  0.00  0.00    +0.000 A 
ATOM      7  C   UNL     1       5.213   5.026  18.775  0.00  0.00    +0.000 A 
ATOM      8  C   UNL     1       4.395   6.151  18.597  0.00  0.00    +0.000 A 
BRANCH   3  10
ATOM      9  C   UNL     1       2.507   8.191  17.993  0.00  0.00    +0.000 C 
ATOM     10  O   UNL     1       2.178   7.157  18.915  0.00  0.00    +0.000 OA
ENDBRANCH   3  10
BRANCH   5  11
ATOM     11  O   UNL     1       2.769   2.785  20.440  0.00  0.00    +0.000 OA
ATOM     12  C   UNL     1       1.946   3.094  21.561  0.00  0.00    +0.000 C 
ENDBRANCH   5  11
ENDBRANCH   1   7
BRANCH   1  13
ATOM     13  C   UNL     1       6.938   5.030  16.899  0.00  0.00    +0.000 C 
ATOM     14  C   UNL     1       6.201   4.303  16.043  0.00  0.00    +0.000 C 
BRANCH  14  15
ATOM     15  C   UNL     1       6.476   4.249  14.599  0.00  0.00    +0.000 A 
ATOM     16  C   UNL     1       7.469   5.078  14.057  0.00  0.00    +0.000 A 
ATOM     17  C   UNL     1       7.748   5.056  12.685  0.00  0.00    +0.000 A 
ATOM     18  C   UNL     1       7.034   4.213  11.834  0.00  0.00    +0.000 A 
ATOM     19  C   UNL     1       6.028   3.401  12.367  0.00  0.00    +0.000 A 
ATOM     20  C   UNL     1       5.739   3.424  13.738  0.00  0.00    +0.000 A 
BRANCH  19  21
ATOM     21  N   UNL     1       5.267   2.502  11.490  0.00  0.00    +0.000 N 
ATOM     22  O   UNL     1       5.810   1.444  11.142  0.00  0.00    +0.000 OA
ATOM     23  O   UNL     1       4.127   2.851  11.158  0.00  0.00    +0.000 OA
ENDBRANCH  19  21
ENDBRANCH  14  15
ENDBRANCH   1  13
TORSDOF 6
ENDMDL
MODEL 2
REMARK VINA RESULT:      -7.6      1.200      1.221
REMARK  Name = 
REMARK  8 active torsions:
REMARK  status: ('A' for Active; 'I' for Inactive)
REMARK    1  A    between atoms: C_1  and  O_2
REMARK    2  A    between atoms: O_2  and  C_3
REMARK    3  A    between atoms: C_5  and  O_6
REMARK    4  A    between atoms: O_6  and  C_7
REMARK    5  A    between atoms: C_9  and  C_10
REMARK    6  A    between atoms: C_10  and  C_12
REMARK    7  A    between atoms: C_13  and  C_14
REMARK    8  A    between atoms: C_18  and  N_19
REMARK                            x       y       z     vdW  Elec       q    Type
REMARK                         _______ _______ _______ _____ _____    ______ ____
ROOT
ATOM      1  C   UNL     1       6.182   4.659  18.322  0.00  0.00    +0.000 C 
ATOM      2  O   UNL     1       6.995   5.073  19.142  0.00  0.00    +0.000 OA
ENDROOT
BRANCH   1   7
ATOM      3  C   UNL     1       2.733   5.390  19.746  0.00  0.00    +0.000 A 
ATOM      4  C   UNL     1       2.057   4.238  19.336  0.00  0.00    +0.000 A 
ATOM      5  C   UNL     1       2.707   3.243  18.599  0.00  0.00    +0.000 A 
ATOM      6  C   UNL     1       4.046   3.417  18.257  0.00  0.00    +0.000 A 
ATOM      7  C   UNL     1       4.741   4.555  18.682  0.00  0.00    +0.000 A 
ATOM      8  C   UNL     1       4.079   5.548  19.416  0.00  0.00    +0.000 A 
BRANCH   3  10
ATOM      9  C   UNL     1       1.975   7.632  20.000  0.00  0.00    +0.000 C 
ATOM     10  O   UNL     1       1.982   6.285  20.461  0.00  0.00    +0.000 OA
ENDBRANCH   3  10
BRANCH   5  11
ATOM     11  O   UNL     1       1.939   2.156  18.285  0.00  0.00    +0.000 OA
ATOM     12  C   UNL     1       0.613   2.135  18.804  0.00  0.00    +0.000 C 
ENDBRANCH   5  11
ENDBRANCH   1   7
BRANCH   1  13
ATOM     13  C   UNL     1       6.576   4.314  16.931  0.00  0.00    +0.000 C 
ATOM     14  C   UNL     1       6.159   5.066  15.898  0.00  0.00    +0.000 C 
BRANCH  14  15
ATOM     15  C   UNL     1       6.478   4.748  14.498  0.00  0.00    +0.000 A 
ATOM     16  C   UNL     1       7.558   5.391  13.875  0.00  0.00    +0.000 A 
ATOM     17  C   UNL     1       7.882   5.116  12.542  0.00  0.00    +0.000 A 
ATOM     18  C   UNL     1       7.127   4.202  11.808  0.00  0.00    +0.000 A 
ATOM     19  C   UNL     1       6.036   3.574  12.417  0.00  0.00    +0.000 A 
ATOM     20  C   UNL     1       5.703   3.852  13.750  0.00  0.00    +0.000 A 
BRANCH  19  21
ATOM     21  N   UNL     1       5.231   2.604  11.665  0.00  0.00    +0.000 N 
ATOM     22  O   UNL     1       5.745   1.507  11.407  0.00  0.00    +0.000 OA
ATOM     23  O   UNL     1       4.083   2.937  11.340  0.00  0.00    +0.000 OA
ENDBRANCH  19  21
ENDBRANCH  14  15
ENDBRANCH   1  13
TORSDOF 6
ENDMDL
MODEL 3
REMARK VINA RESULT:      -7.5      5.593      7.791
REMARK  Name = 
REMARK  8 active torsions:
REMARK  status: ('A' for Active; 'I' for Inactive)
REMARK    1  A    between atoms: C_1  and  O_2
REMARK    2  A    between atoms: O_2  and  C_3
REMARK    3  A    between atoms: C_5  and  O_6
REMARK    4  A    between atoms: O_6  and  C_7
REMARK    5  A    between atoms: C_9  and  C_10
REMARK    6  A    between atoms: C_10  and  C_12
REMARK    7  A    between atoms: C_13  and  C_14
REMARK    8  A    between atoms: C_18  and  N_19
REMARK                            x       y       z     vdW  Elec       q    Type
REMARK                         _______ _______ _______ _____ _____    ______ ____
ROOT
ATOM      1  C   UNL     1       7.333   6.762  17.219  0.00  0.00    +0.000 C 
ATOM      2  O   UNL     1       7.765   6.406  16.128  0.00  0.00    +0.000 OA
ENDROOT
BRANCH   1   7
ATOM      3  C   UNL     1       5.044   4.280  18.968  0.00  0.00    +0.000 A 
ATOM      4  C   UNL     1       3.821   4.938  18.819  0.00  0.00    +0.000 A 
ATOM      5  C   UNL     1       3.741   6.174  18.170  0.00  0.00    +0.000 A 
ATOM      6  C   UNL     1       4.905   6.762  17.680  0.00  0.00    +0.000 A 
ATOM      7  C   UNL     1       6.133   6.102  17.803  0.00  0.00    +0.000 A 
ATOM      8  C   UNL     1       6.203   4.866  18.458  0.00  0.00    +0.000 A 
BRANCH   3  10
ATOM      9  C   UNL     1       3.724   2.703  20.164  0.00  0.00    +0.000 C 
ATOM     10  O   UNL     1       4.986   3.078  19.620  0.00  0.00    +0.000 OA
ENDBRANCH   3  10
BRANCH   5  11
ATOM     11  O   UNL     1       2.481   6.697  18.067  0.00  0.00    +0.000 OA
ATOM     12  C   UNL     1       2.225   7.901  18.784  0.00  0.00    +0.000 C 
ENDBRANCH   5  11
ENDBRANCH   1   7
BRANCH   1  13
ATOM     13  C   UNL     1       8.015   7.804  18.032  0.00  0.00    +0.000 C 
ATOM     14  C   UNL     1       8.039   9.083  17.620  0.00  0.00    +0.000 C 
BRANCH  14  15
ATOM     15  C   UNL     1       8.737  10.147  18.357  0.00  0.00    +0.000 A 
ATOM     16  C   UNL     1       9.106   9.930  19.693  0.00  0.00    +0.000 A 
ATOM     17  C   UNL     1       9.764  10.926  20.424  0.00  0.00    +0.000 A 
ATOM     18  C   UNL     1      10.054  12.156  19.835  0.00  0.00    +0.000 A 
ATOM     19  C   UNL     1       9.669  12.385  18.510  0.00  0.00    +0.000 A 
ATOM     20  C   UNL     1       9.003  11.394  17.776  0.00  0.00    +0.000 A 
BRANCH  19  21
ATOM     21  N   UNL     1       9.969  13.672  17.869  0.00  0.00    +0.000 N 
ATOM     22  O   UNL     1       9.341  14.667  18.256  0.00  0.00    +0.000 OA
ATOM     23  O   UNL     1      10.837  13.687  16.987  0.00  0.00    +0.000 OA
ENDBRANCH  19  21
ENDBRANCH  14  15
ENDBRANCH   1  13
TORSDOF 6
ENDMDL
MODEL 4
REMARK VINA RESULT:      -7.5      3.511      8.039
REMARK  Name = 
REMARK  8 active torsions:
REMARK  status: ('A' for Active; 'I' for Inactive)
REMARK    1  A    between atoms: C_1  and  O_2
REMARK    2  A    between atoms: O_2  and  C_3
REMARK    3  A    between atoms: C_5  and  O_6
REMARK    4  A    between atoms: O_6  and  C_7
REMARK    5  A    between atoms: C_9  and  C_10
REMARK    6  A    between atoms: C_10  and  C_12
REMARK    7  A    between atoms: C_13  and  C_14
REMARK    8  A    between atoms: C_18  and  N_19
REMARK                            x       y       z     vdW  Elec       q    Type
REMARK                         _______ _______ _______ _____ _____    ______ ____
ROOT
ATOM      1  C   UNL     1       2.988   4.126  17.902  0.00  0.00    +0.000 C 
ATOM      2  O   UNL     1       2.375   3.084  17.705  0.00  0.00    +0.000 OA
ENDROOT
BRANCH   1   7
ATOM      3  C   UNL     1       6.745   4.702  18.033  0.00  0.00    +0.000 A 
ATOM      4  C   UNL     1       7.071   4.450  16.698  0.00  0.00    +0.000 A 
ATOM      5  C   UNL     1       6.089   4.087  15.771  0.00  0.00    +0.000 A 
ATOM      6  C   UNL     1       4.768   3.962  16.194  0.00  0.00    +0.000 A 
ATOM      7  C   UNL     1       4.424   4.235  17.523  0.00  0.00    +0.000 A 
ATOM      8  C   UNL     1       5.417   4.593  18.445  0.00  0.00    +0.000 A 
BRANCH   3  10
ATOM      9  C   UNL     1       8.086   6.439  18.953  0.00  0.00    +0.000 C 
ATOM     10  O   UNL     1       7.798   5.049  18.836  0.00  0.00    +0.000 OA
ENDBRANCH   3  10
BRANCH   5  11
ATOM     11  O   UNL     1       6.538   3.895  14.493  0.00  0.00    +0.000 OA
ATOM     12  C   UNL     1       7.214   4.988  13.879  0.00  0.00    +0.000 C 
ENDBRANCH   5  11
ENDBRANCH   1   7
BRANCH   1  13
ATOM     13  C   UNL     1       2.323   5.337  18.453  0.00  0.00    +0.000 C 
ATOM     14  C   UNL     1       2.730   6.564  18.087  0.00  0.00    +0.000 C 
BRANCH  14  15
ATOM     15  C   UNL     1       2.141   7.797  18.633  0.00  0.00    +0.000 A 
ATOM     16  C   UNL     1       2.043   8.932  17.815  0.00  0.00    +0.000 A 
ATOM     17  C   UNL     1       1.495  10.123  18.308  0.00  0.00    +0.000 A 
ATOM     18  C   UNL     1       1.046  10.199  19.626  0.00  0.00    +0.000 A 
ATOM     19  C   UNL     1       1.162   9.076  20.451  0.00  0.00    +0.000 A 
ATOM     20  C   UNL     1       1.717   7.884  19.965  0.00  0.00    +0.000 A 
BRANCH  19  21
ATOM     21  N   UNL     1       0.691   9.132  21.841  0.00  0.00    +0.000 N 
ATOM     22  O   UNL     1       1.462   9.601  22.690  0.00  0.00    +0.000 OA
ATOM     23  O   UNL     1      -0.451   8.717  22.079  0.00  0.00    +0.000 OA
ENDBRANCH  19  21
ENDBRANCH  14  15
ENDBRANCH   1  13
TORSDOF 6
ENDMDL
MODEL 5
REMARK VINA RESULT:      -7.4      1.041      2.755
REMARK  Name = 
REMARK  8 active torsions:
REMARK  status: ('A' for Active; 'I' for Inactive)
REMARK    1  A    between atoms: C_1  and  O_2
REMARK    2  A    between atoms: O_2  and  C_3
REMARK    3  A    between atoms: C_5  and  O_6
REMARK    4  A    between atoms: O_6  and  C_7
REMARK    5  A    between atoms: C_9  and  C_10
REMARK    6  A    between atoms: C_10  and  C_12
REMARK    7  A    between atoms: C_13  and  C_14
REMARK    8  A    between atoms: C_18  and  N_19
REMARK                            x       y       z     vdW  Elec       q    Type
REMARK                         _______ _______ _______ _____ _____    ______ ____
ROOT
ATOM      1  C   UNL     1       5.674   4.627  17.988  0.00  0.00    +0.000 C 
ATOM      2  O   UNL     1       6.579   4.349  18.767  0.00  0.00    +0.000 OA
ENDROOT
BRANCH   1   7
ATOM      3  C   UNL     1       2.542   5.584  19.920  0.00  0.00    +0.000 A 
ATOM      4  C   UNL     1       2.207   6.769  19.260  0.00  0.00    +0.000 A 
ATOM      5  C   UNL     1       2.992   7.257  18.211  0.00  0.00    +0.000 A 
ATOM      6  C   UNL     1       4.134   6.554  17.832  0.00  0.00    +0.000 A 
ATOM      7  C   UNL     1       4.467   5.353  18.470  0.00  0.00    +0.000 A 
ATOM      8  C   UNL     1       3.675   4.875  19.523  0.00  0.00    +0.000 A 
BRANCH   3  10
ATOM      9  C   UNL     1       1.626   3.828  21.240  0.00  0.00    +0.000 C 
ATOM     10  O   UNL     1       1.690   5.216  20.928  0.00  0.00    +0.000 OA
ENDBRANCH   3  10
BRANCH   5  11
ATOM     11  O   UNL     1       2.539   8.411  17.633  0.00  0.00    +0.000 OA
ATOM     12  C   UNL     1       1.570   9.157  18.363  0.00  0.00    +0.000 C 
ENDBRANCH   5  11
ENDBRANCH   1   7
BRANCH   1  13
ATOM     13  C   UNL     1       5.766   4.321  16.536  0.00  0.00    +0.000 C 
ATOM     14  C   UNL     1       6.734   4.871  15.784  0.00  0.00    +0.000 C 
BRANCH  14  15
ATOM     15  C   UNL     1       6.847   4.643  14.335  0.00  0.00    +0.000 A 
ATOM     16  C   UNL     1       7.784   5.378  13.594  0.00  0.00    +0.000 A 
ATOM     17  C   UNL     1       7.910   5.190  12.213  0.00  0.00    +0.000 A 
ATOM     18  C   UNL     1       7.096   4.271  11.551  0.00  0.00    +0.000 A 
ATOM     19  C   UNL     1       6.146   3.550  12.281  0.00  0.00    +0.000 A 
ATOM     20  C   UNL     1       6.011   3.741  13.663  0.00  0.00    +0.000 A 
BRANCH  19  21
ATOM     21  N   UNL     1       5.283   2.574  11.605  0.00  0.00    +0.000 N 
ATOM     22  O   UNL     1       4.143   2.940  11.285  0.00  0.00    +0.000 OA
ATOM     23  O   UNL     1       5.749   1.448  11.386  0.00  0.00    +0.000 OA
ENDBRANCH  19  21
ENDBRANCH  14  15
ENDBRANCH   1  13
TORSDOF 6
ENDMDL
MODEL 6
REMARK VINA RESULT:      -7.4      5.599      7.446
REMARK  Name = 
REMARK  8 active torsions:
REMARK  status: ('A' for Active; 'I' for Inactive)
REMARK    1  A    between atoms: C_1  and  O_2
REMARK    2  A    between atoms: O_2  and  C_3
REMARK    3  A    between atoms: C_5  and  O_6
REMARK    4  A    between atoms: O_6  and  C_7
REMARK    5  A    between atoms: C_9  and  C_10
REMARK    6  A    between atoms: C_10  and  C_12
REMARK    7  A    between atoms: C_13  and  C_14
REMARK    8  A    between atoms: C_18  and  N_19
REMARK                            x       y       z     vdW  Elec       q    Type
REMARK                         _______ _______ _______ _____ _____    ______ ____
ROOT
ATOM      1  C   UNL     1       7.286   6.805  17.227  0.00  0.00    +0.000 C 
ATOM      2  O   UNL     1       7.702   6.415  16.142  0.00  0.00    +0.000 OA
ENDROOT
BRANCH   1   7
ATOM      3  C   UNL     1       3.673   6.281  18.290  0.00  0.00    +0.000 A 
ATOM      4  C   UNL     1       3.798   5.067  18.969  0.00  0.00    +0.000 A 
ATOM      5  C   UNL     1       5.034   4.421  19.072  0.00  0.00    +0.000 A 
ATOM      6  C   UNL     1       6.153   4.995  18.471  0.00  0.00    +0.000 A 
ATOM      7  C   UNL     1       6.045   6.223  17.808  0.00  0.00    +0.000 A 
ATOM      8  C   UNL     1       4.801   6.860  17.708  0.00  0.00    +0.000 A 
BRANCH   3  10
ATOM      9  C   UNL     1       2.086   7.749  19.284  0.00  0.00    +0.000 C 
ATOM     10  O   UNL     1       2.410   6.809  18.264  0.00  0.00    +0.000 OA
ENDBRANCH   3  10
BRANCH   5  11
ATOM     11  O   UNL     1       5.024   3.254  19.785  0.00  0.00    +0.000 OA
ATOM     12  C   UNL     1       4.210   2.200  19.280  0.00  0.00    +0.000 C 
ENDBRANCH   5  11
ENDBRANCH   1   7
BRANCH   1  13
ATOM     13  C   UNL     1       8.026   7.810  18.036  0.00  0.00    +0.000 C 
ATOM     14  C   UNL     1       8.061   9.099  17.656  0.00  0.00    +0.000 C 
BRANCH  14  15
ATOM     15  C   UNL     1       8.813  10.128  18.390  0.00  0.00    +0.000 A 
ATOM     16  C   UNL     1       9.060   9.954  19.759  0.00  0.00    +0.000 A 
ATOM     17  C   UNL     1       9.766  10.919  20.487  0.00  0.00    +0.000 A 
ATOM     18  C   UNL     1      10.227  12.076  19.860  0.00  0.00    +0.000 A 
ATOM     19  C   UNL     1       9.964  12.264  18.499  0.00  0.00    +0.000 A 
ATOM     20  C   UNL     1       9.252  11.304  17.768  0.00  0.00    +0.000 A 
BRANCH  19  21
ATOM     21  N   UNL     1      10.445  13.472  17.818  0.00  0.00    +0.000 N 
ATOM     22  O   UNL     1      10.953  13.336  16.696  0.00  0.00    +0.000 OA
ATOM     23  O   UNL     1      10.307  14.556  18.401  0.00  0.00    +0.000 OA
ENDBRANCH  19  21
ENDBRANCH  14  15
ENDBRANCH   1  13
TORSDOF 6
ENDMDL
MODEL 7
REMARK VINA RESULT:      -7.4      4.105      8.639
REMARK  Name = 
REMARK  8 active torsions:
REMARK  status: ('A' for Active; 'I' for Inactive)
REMARK    1  A    between atoms: C_1  and  O_2
REMARK    2  A    between atoms: O_2  and  C_3
REMARK    3  A    between atoms: C_5  and  O_6
REMARK    4  A    between atoms: O_6  and  C_7
REMARK    5  A    between atoms: C_9  and  C_10
REMARK    6  A    between atoms: C_10  and  C_12
REMARK    7  A    between atoms: C_13  and  C_14
REMARK    8  A    between atoms: C_18  and  N_19
REMARK                            x       y       z     vdW  Elec       q    Type
REMARK                         _______ _______ _______ _____ _____    ______ ____
ROOT
ATOM      1  C   UNL     1       3.306   5.141  17.882  0.00  0.00    +0.000 C 
ATOM      2  O   UNL     1       2.806   4.066  18.192  0.00  0.00    +0.000 OA
ENDROOT
BRANCH   1   7
ATOM      3  C   UNL     1       6.722   6.177  16.572  0.00  0.00    +0.000 A 
ATOM      4  C   UNL     1       6.916   5.188  15.604  0.00  0.00    +0.000 A 
ATOM      5  C   UNL     1       5.958   4.194  15.386  0.00  0.00    +0.000 A 
ATOM      6  C   UNL     1       4.800   4.184  16.161  0.00  0.00    +0.000 A 
ATOM      7  C   UNL     1       4.583   5.182  17.118  0.00  0.00    +0.000 A 
ATOM      8  C   UNL     1       5.552   6.172  17.331  0.00  0.00    +0.000 A 
BRANCH   3  10
ATOM      9  C   UNL     1       7.714   7.937  17.829  0.00  0.00    +0.000 C 
ATOM     10  O   UNL     1       7.735   7.092  16.683  0.00  0.00    +0.000 OA
ENDBRANCH   3  10
BRANCH   5  11
ATOM     11  O   UNL     1       6.258   3.303  14.392  0.00  0.00    +0.000 OA
ATOM     12  C   UNL     1       6.040   3.739  13.053  0.00  0.00    +0.000 C 
ENDBRANCH   5  11
ENDBRANCH   1   7
BRANCH   1  13
ATOM     13  C   UNL     1       2.638   6.435  18.185  0.00  0.00    +0.000 C 
ATOM     14  C   UNL     1       2.461   6.829  19.458  0.00  0.00    +0.000 C 
BRANCH  14  15
ATOM     15  C   UNL     1       1.768   8.074  19.819  0.00  0.00    +0.000 A 
ATOM     16  C   UNL     1       1.584   9.067  18.846  0.00  0.00    +0.000 A 
ATOM     17  C   UNL     1       0.934  10.266  19.161  0.00  0.00    +0.000 A 
ATOM     18  C   UNL     1       0.468  10.495  20.455  0.00  0.00    +0.000 A 
ATOM     19  C   UNL     1       0.668   9.518  21.435  0.00  0.00    +0.000 A 
ATOM     20  C   UNL     1       1.324   8.319  21.126  0.00  0.00    +0.000 A 
BRANCH  19  21
ATOM     21  N   UNL     1       0.180   9.737  22.802  0.00  0.00    +0.000 N 
ATOM     22  O   UNL     1       0.984   9.578  23.731  0.00  0.00    +0.000 OA
ATOM     23  O   UNL     1      -1.003  10.074  22.944  0.00  0.00    +0.000 OA
ENDBRANCH  19  21
ENDBRANCH  14  15
ENDBRANCH   1  13
TORSDOF 6
ENDMDL
MODEL 8
REMARK VINA RESULT:      -7.3      3.591      8.071
REMARK  Name = 
REMARK  8 active torsions:
REMARK  status: ('A' for Active; 'I' for Inactive)
REMARK    1  A    between atoms: C_1  and  O_2
REMARK    2  A    between atoms: O_2  and  C_3
REMARK    3  A    between atoms: C_5  and  O_6
REMARK    4  A    between atoms: O_6  and  C_7
REMARK    5  A    between atoms: C_9  and  C_10
REMARK    6  A    between atoms: C_10  and  C_12
REMARK    7  A    between atoms: C_13  and  C_14
REMARK    8  A    between atoms: C_18  and  N_19
REMARK                            x       y       z     vdW  Elec       q    Type
REMARK                         _______ _______ _______ _____ _____    ______ ____
ROOT
ATOM      1  C   UNL     1       3.825   4.398  18.449  0.00  0.00    +0.000 C 
ATOM      2  O   UNL     1       3.581   3.241  18.770  0.00  0.00    +0.000 OA
ENDROOT
BRANCH   1   7
ATOM      3  C   UNL     1       6.790   5.941  16.637  0.00  0.00    +0.000 A 
ATOM      4  C   UNL     1       6.775   5.181  15.465  0.00  0.00    +0.000 A 
ATOM      5  C   UNL     1       5.824   4.175  15.270  0.00  0.00    +0.000 A 
ATOM      6  C   UNL     1       4.889   3.920  16.270  0.00  0.00    +0.000 A 
ATOM      7  C   UNL     1       4.878   4.691  17.439  0.00  0.00    +0.000 A 
ATOM      8  C   UNL     1       5.838   5.694  17.626  0.00  0.00    +0.000 A 
BRANCH   3  10
ATOM      9  C   UNL     1       7.562   7.970  17.614  0.00  0.00    +0.000 C 
ATOM     10  O   UNL     1       7.771   6.895  16.703  0.00  0.00    +0.000 OA
ENDBRANCH   3  10
BRANCH   5  11
ATOM     11  O   UNL     1       5.903   3.525  14.069  0.00  0.00    +0.000 OA
ATOM     12  C   UNL     1       6.724   4.121  13.069  0.00  0.00    +0.000 C 
ENDBRANCH   5  11
ENDBRANCH   1   7
BRANCH   1  13
ATOM     13  C   UNL     1       3.046   5.544  18.991  0.00  0.00    +0.000 C 
ATOM     14  C   UNL     1       2.886   6.663  18.265  0.00  0.00    +0.000 C 
BRANCH  14  15
ATOM     15  C   UNL     1       2.167   7.844  18.765  0.00  0.00    +0.000 A 
ATOM     16  C   UNL     1       1.896   8.907  17.891  0.00  0.00    +0.000 A 
ATOM     17  C   UNL     1       1.220  10.048  18.338  0.00  0.00    +0.000 A 
ATOM     18  C   UNL     1       0.813  10.148  19.669  0.00  0.00    +0.000 A 
ATOM     19  C   UNL     1       1.100   9.101  20.550  0.00  0.00    +0.000 A 
ATOM     20  C   UNL     1       1.783   7.960  20.108  0.00  0.00    +0.000 A 
BRANCH  19  21
ATOM     21  N   UNL     1       0.676   9.184  21.953  0.00  0.00    +0.000 N 
ATOM     22  O   UNL     1      -0.503   8.905  22.215  0.00  0.00    +0.000 OA
ATOM     23  O   UNL     1       1.523   9.519  22.792  0.00  0.00    +0.000 OA
ENDBRANCH  19  21
ENDBRANCH  14  15
ENDBRANCH   1  13
TORSDOF 6
ENDMDL
MODEL 9
REMARK VINA RESULT:      -7.2      1.432      2.963
REMARK  Name = 
REMARK  8 active torsions:
REMARK  status: ('A' for Active; 'I' for Inactive)
REMARK    1  A    between atoms: C_1  and  O_2
REMARK    2  A    between atoms: O_2  and  C_3
REMARK    3  A    between atoms: C_5  and  O_6
REMARK    4  A    between atoms: O_6  and  C_7
REMARK    5  A    between atoms: C_9  and  C_10
REMARK    6  A    between atoms: C_10  and  C_12
REMARK    7  A    between atoms: C_13  and  C_14
REMARK    8  A    between atoms: C_18  and  N_19
REMARK                            x       y       z     vdW  Elec       q    Type
REMARK                         _______ _______ _______ _____ _____    ______ ____
ROOT
ATOM      1  C   UNL     1       4.670   4.461  18.101  0.00  0.00    +0.000 C 
ATOM      2  O   UNL     1       5.204   3.756  18.949  0.00  0.00    +0.000 OA
ENDROOT
BRANCH   1   7
ATOM      3  C   UNL     1       2.204   6.630  20.018  0.00  0.00    +0.000 A 
ATOM      4  C   UNL     1       2.134   7.729  19.157  0.00  0.00    +0.000 A 
ATOM      5  C   UNL     1       2.884   7.771  17.978  0.00  0.00    +0.000 A 
ATOM      6  C   UNL     1       3.725   6.704  17.669  0.00  0.00    +0.000 A 
ATOM      7  C   UNL     1       3.786   5.587  18.511  0.00  0.00    +0.000 A 
ATOM      8  C   UNL     1       3.033   5.557  19.692  0.00  0.00    +0.000 A 
BRANCH   3  10
ATOM      9  C   UNL     1       0.890   7.996  21.457  0.00  0.00    +0.000 C 
ATOM     10  O   UNL     1       1.419   6.713  21.137  0.00  0.00    +0.000 OA
ENDBRANCH   3  10
BRANCH   5  11
ATOM     11  O   UNL     1       2.704   8.890  17.213  0.00  0.00    +0.000 OA
ATOM     12  C   UNL     1       1.941   9.946  17.790  0.00  0.00    +0.000 C 
ENDBRANCH   5  11
ENDBRANCH   1   7
BRANCH   1  13
ATOM     13  C   UNL     1       4.928   4.275  16.649  0.00  0.00    +0.000 C 
ATOM     14  C   UNL     1       6.139   4.545  16.132  0.00  0.00    +0.000 C 
BRANCH  14  15
ATOM     15  C   UNL     1       6.440   4.425  14.697  0.00  0.00    +0.000 A 
ATOM     16  C   UNL     1       7.476   5.192  14.145  0.00  0.00    +0.000 A 
ATOM     17  C   UNL     1       7.782   5.107  12.782  0.00  0.00    +0.000 A 
ATOM     18  C   UNL     1       7.052   4.260  11.949  0.00  0.00    +0.000 A 
ATOM     19  C   UNL     1       6.004   3.508  12.490  0.00  0.00    +0.000 A 
ATOM     20  C   UNL     1       5.689   3.597  13.853  0.00  0.00    +0.000 A 
BRANCH  19  21
ATOM     21  N   UNL     1       5.226   2.607  11.632  0.00  0.00    +0.000 N 
ATOM     22  O   UNL     1       4.114   2.996  11.248  0.00  0.00    +0.000 OA
ATOM     23  O   UNL     1       5.730   1.515  11.336  0.00  0.00    +0.000 OA
ENDBRANCH  19  21
ENDBRANCH  14  15
ENDBRANCH   1  13
TORSDOF 6
ENDMDL
