MODEL 1
REMARK VINA RESULT:      -6.8      0.000      0.000
REMARK  Name = 
REMARK  5 active torsions:
REMARK  status: ('A' for Active; 'I' for Inactive)
REMARK    1  A    between atoms: C_1  and  N_2
REMARK    2  A    between atoms: N_2  and  C_3
REMARK    3  A    between atoms: N_2  and  S_9
REMARK    4  A    between atoms: C_3  and  C_4
REMARK    5  A    between atoms: S_9  and  C_12
REMARK                            x       y       z     vdW  Elec       q    Type
REMARK                         _______ _______ _______ _____ _____    ______ ____
ROOT
ATOM      1  S   UNL     1       4.403   5.245  18.784  0.00  0.00    +0.000 S 
ATOM      2  O   UNL     1       5.570   5.400  19.622  0.00  0.00    +0.000 OA
ATOM      3  O   UNL     1       3.763   6.383  18.161  0.00  0.00    +0.000 OA
ENDROOT
BRANCH   1   4
ATOM      4  C   UNL     1       3.183   4.371  19.742  0.00  0.00    +0.000 A 
ATOM      5  C   UNL     1       3.568   3.233  20.456  0.00  0.00    +0.000 A 
ATOM      6  C   UNL     1       2.614   2.531  21.193  0.00  0.00    +0.000 A 
ATOM      7  C   UNL     1       1.289   2.973  21.224  0.00  0.00    +0.000 A 
ATOM      8  C   UNL     1       0.915   4.122  20.524  0.00  0.00    +0.000 A 
ATOM      9  C   UNL     1       1.862   4.828  19.781  0.00  0.00    +0.000 A 
ENDBRANCH   1   4
BRANCH   1  11
ATOM     10  C   UNL     1       3.585   3.623  16.805  0.00  0.00    +0.000 C 
ATOM     11  N   UNL     1       4.786   4.124  17.533  0.00  0.00    +0.000 NA
BRANCH  11  12
ATOM     12  C   UNL     1       5.946   4.430  16.568  0.00  0.00    +0.000 C 
ATOM     13  C   UNL     1       5.923   3.698  15.178  0.00  0.00    +0.000 C 
ATOM     14  C   UNL     1       6.416   5.009  14.533  0.00  0.00    +0.000 C 
ATOM     15  C   UNL     1       5.765   5.745  15.721  0.00  0.00    +0.000 C 
BRANCH  12  16
ATOM     16  C   UNL     1       7.247   4.339  17.242  0.00  0.00    +0.000 C 
ATOM     17  N   UNL     1       8.289   4.309  17.754  0.00  0.00    +0.000 NA
ENDBRANCH  12  16
ENDBRANCH  11  12
ENDBRANCH   1  11
TORSDOF 4
ENDMDL
MODEL 2
REMARK VINA RESULT:      -6.7      2.901      5.037
REMARK  Name = 
REMARK  5 active torsions:
REMARK  status: ('A' for Active; 'I' for Inactive)
REMARK    1  A    between atoms: C_1  and  N_2
REMARK    2  A    between atoms: N_2  and  C_3
REMARK    3  A    between atoms: N_2  and  S_9
REMARK    4  A    between atoms: C_3  and  C_4
REMARK    5  A    between atoms: S_9  and  C_12
REMARK                            x       y       z     vdW  Elec       q    Type
REMARK                         _______ _______ _______ _____ _____    ______ ____
ROOT
ATOM      1  S   UNL     1       3.659   5.687  18.525  0.00  0.00    +0.000 S 
ATOM      2  O   UNL     1       4.562   5.591  19.651  0.00  0.00    +0.000 OA
ATOM      3  O   UNL     1       4.145   5.672  17.163  0.00  0.00    +0.000 OA
ENDROOT
BRANCH   1   4
ATOM      4  C   UNL     1       2.689   7.161  18.758  0.00  0.00    +0.000 A 
ATOM      5  C   UNL     1       2.543   8.053  17.692  0.00  0.00    +0.000 A 
ATOM      6  C   UNL     1       1.801   9.221  17.872  0.00  0.00    +0.000 A 
ATOM      7  C   UNL     1       1.201   9.486  19.106  0.00  0.00    +0.000 A 
ATOM      8  C   UNL     1       1.336   8.581  20.161  0.00  0.00    +0.000 A 
ATOM      9  C   UNL     1       2.079   7.412  19.991  0.00  0.00    +0.000 A 
ENDBRANCH   1   4
BRANCH   1  11
ATOM     10  C   UNL     1       2.278   3.680  17.395  0.00  0.00    +0.000 C 
ATOM     11  N   UNL     1       2.491   4.429  18.666  0.00  0.00    +0.000 NA
BRANCH  11  12
ATOM     12  C   UNL     1       2.534   3.484  19.880  0.00  0.00    +0.000 C 
ATOM     13  C   UNL     1       2.110   4.089  21.266  0.00  0.00    +0.000 C 
ATOM     14  C   UNL     1       1.387   2.762  21.571  0.00  0.00    +0.000 C 
ATOM     15  C   UNL     1       1.262   2.572  20.047  0.00  0.00    +0.000 C 
BRANCH  12  16
ATOM     16  C   UNL     1       3.800   2.743  19.942  0.00  0.00    +0.000 C 
ATOM     17  N   UNL     1       4.801   2.162  20.040  0.00  0.00    +0.000 NA
ENDBRANCH  12  16
ENDBRANCH  11  12
ENDBRANCH   1  11
TORSDOF 4
ENDMDL
MODEL 3
REMARK VINA RESULT:      -6.7      2.891      4.971
REMARK  Name = 
REMARK  5 active torsions:
REMARK  status: ('A' for Active; 'I' for Inactive)
REMARK    1  A    between atoms: C_1  and  N_2
REMARK    2  A    between atoms: N_2  and  C_3
REMARK    3  A    between atoms: N_2  and  S_9
REMARK    4  A    between atoms: C_3  and  C_4
REMARK    5  A    between atoms: S_9  and  C_12
REMARK                            x       y       z     vdW  Elec       q    Type
REMARK                         _______ _______ _______ _____ _____    ______ ____
ROOT
ATOM      1  S   UNL     1       3.715   5.628  18.510  0.00  0.00    +0.000 S 
ATOM      2  O   UNL     1       4.625   5.540  19.631  0.00  0.00    +0.000 OA
ATOM      3  O   UNL     1       4.193   5.598  17.145  0.00  0.00    +0.000 OA
ENDROOT
BRANCH   1   4
ATOM      4  C   UNL     1       2.752   7.108  18.735  0.00  0.00    +0.000 A 
ATOM      5  C   UNL     1       2.130   7.333  19.965  0.00  0.00    +0.000 A 
ATOM      6  C   UNL     1       1.357   8.482  20.143  0.00  0.00    +0.000 A 
ATOM      7  C   UNL     1       1.218   9.400  19.099  0.00  0.00    +0.000 A 
ATOM      8  C   UNL     1       1.858   9.179  17.879  0.00  0.00    +0.000 A 
ATOM      9  C   UNL     1       2.631   8.032  17.691  0.00  0.00    +0.000 A 
ENDBRANCH   1   4
BRANCH   1  11
ATOM     10  C   UNL     1       2.332   3.606  17.412  0.00  0.00    +0.000 C 
ATOM     11  N   UNL     1       2.543   4.377  18.671  0.00  0.00    +0.000 NA
BRANCH  11  12
ATOM     12  C   UNL     1       2.582   3.453  19.901  0.00  0.00    +0.000 C 
ATOM     13  C   UNL     1       2.149   4.082  21.274  0.00  0.00    +0.000 C 
ATOM     14  C   UNL     1       1.426   2.759  21.599  0.00  0.00    +0.000 C 
ATOM     15  C   UNL     1       1.309   2.542  20.078  0.00  0.00    +0.000 C 
BRANCH  12  16
ATOM     16  C   UNL     1       3.848   2.715  19.983  0.00  0.00    +0.000 C 
ATOM     17  N   UNL     1       4.826   2.094  20.068  0.00  0.00    +0.000 NA
ENDBRANCH  12  16
ENDBRANCH  11  12
ENDBRANCH   1  11
TORSDOF 4
ENDMDL
MODEL 4
REMARK VINA RESULT:      -6.7      2.410      5.413
REMARK  Name = 
REMARK  5 active torsions:
REMARK  status: ('A' for Active; 'I' for Inactive)
REMARK    1  A    between atoms: C_1  and  N_2
REMARK    2  A    between atoms: N_2  and  C_3
REMARK    3  A    between atoms: N_2  and  S_9
REMARK    4  A    between atoms: C_3  and  C_4
REMARK    5  A    between atoms: S_9  and  C_12
REMARK                            x       y       z     vdW  Elec       q    Type
REMARK                         _______ _______ _______ _____ _____    ______ ____
ROOT
ATOM      1  S   UNL     1       3.862   5.087  18.073  0.00  0.00    +0.000 S 
ATOM      2  O   UNL     1       3.996   3.744  17.555  0.00  0.00    +0.000 OA
ATOM      3  O   UNL     1       3.009   6.063  17.431  0.00  0.00    +0.000 OA
ENDROOT
BRANCH   1   4
ATOM      4  C   UNL     1       5.502   5.768  18.193  0.00  0.00    +0.000 A 
ATOM      5  C   UNL     1       6.355   5.312  19.201  0.00  0.00    +0.000 A 
ATOM      6  C   UNL     1       7.636   5.855  19.314  0.00  0.00    +0.000 A 
ATOM      7  C   UNL     1       8.060   6.839  18.417  0.00  0.00    +0.000 A 
ATOM      8  C   UNL     1       7.210   7.276  17.400  0.00  0.00    +0.000 A 
ATOM      9  C   UNL     1       5.926   6.741  17.282  0.00  0.00    +0.000 A 
ENDBRANCH   1   4
BRANCH   1  11
ATOM     10  C   UNL     1       2.442   6.075  20.127  0.00  0.00    +0.000 C 
ATOM     11  N   UNL     1       3.367   4.980  19.720  0.00  0.00    +0.000 NA
BRANCH  11  12
ATOM     12  C   UNL     1       2.925   3.622  20.293  0.00  0.00    +0.000 C 
ATOM     13  C   UNL     1       2.160   3.647  21.665  0.00  0.00    +0.000 C 
ATOM     14  C   UNL     1       1.235   2.542  21.115  0.00  0.00    +0.000 C 
ATOM     15  C   UNL     1       1.571   3.072  19.708  0.00  0.00    +0.000 C 
BRANCH  12  16
ATOM     16  C   UNL     1       4.018   2.642  20.265  0.00  0.00    +0.000 C 
ATOM     17  N   UNL     1       4.892   1.878  20.290  0.00  0.00    +0.000 NA
ENDBRANCH  12  16
ENDBRANCH  11  12
ENDBRANCH   1  11
TORSDOF 4
ENDMDL
MODEL 5
REMARK VINA RESULT:      -6.7      1.562      5.597
REMARK  Name = 
REMARK  5 active torsions:
REMARK  status: ('A' for Active; 'I' for Inactive)
REMARK    1  A    between atoms: C_1  and  N_2
REMARK    2  A    between atoms: N_2  and  C_3
REMARK    3  A    between atoms: N_2  and  S_9
REMARK    4  A    between atoms: C_3  and  C_4
REMARK    5  A    between atoms: S_9  and  C_12
REMARK                            x       y       z     vdW  Elec       q    Type
REMARK                         _______ _______ _______ _____ _____    ______ ____
ROOT
ATOM      1  S   UNL     1       4.970   4.824  18.898  0.00  0.00    +0.000 S 
ATOM      2  O   UNL     1       4.070   5.956  18.898  0.00  0.00    +0.000 OA
ATOM      3  O   UNL     1       6.072   4.735  19.832  0.00  0.00    +0.000 OA
ENDROOT
BRANCH   1   4
ATOM      4  C   UNL     1       5.621   4.673  17.248  0.00  0.00    +0.000 A 
ATOM      5  C   UNL     1       6.990   4.858  17.039  0.00  0.00    +0.000 A 
ATOM      6  C   UNL     1       7.505   4.762  15.745  0.00  0.00    +0.000 A 
ATOM      7  C   UNL     1       6.656   4.472  14.674  0.00  0.00    +0.000 A 
ATOM      8  C   UNL     1       5.292   4.269  14.893  0.00  0.00    +0.000 A 
ATOM      9  C   UNL     1       4.768   4.367  16.183  0.00  0.00    +0.000 A 
ENDBRANCH   1   4
BRANCH   1  11
ATOM     10  C   UNL     1       4.698   2.351  19.909  0.00  0.00    +0.000 C 
ATOM     11  N   UNL     1       4.031   3.392  19.075  0.00  0.00    +0.000 NA
BRANCH  11  12
ATOM     12  C   UNL     1       2.531   3.502  19.402  0.00  0.00    +0.000 C 
ATOM     13  C   UNL     1       1.880   2.291  20.162  0.00  0.00    +0.000 C 
ATOM     14  C   UNL     1       1.073   3.309  20.994  0.00  0.00    +0.000 C 
ATOM     15  C   UNL     1       2.202   4.317  20.708  0.00  0.00    +0.000 C 
BRANCH  12  16
ATOM     16  C   UNL     1       1.754   3.929  18.232  0.00  0.00    +0.000 C 
ATOM     17  N   UNL     1       1.157   4.228  17.281  0.00  0.00    +0.000 NA
ENDBRANCH  12  16
ENDBRANCH  11  12
ENDBRANCH   1  11
TORSDOF 4
ENDMDL
MODEL 6
REMARK VINA RESULT:      -6.7      1.964      5.382
REMARK  Name = 
REMARK  5 active torsions:
REMARK  status: ('A' for Active; 'I' for Inactive)
REMARK    1  A    between atoms: C_1  and  N_2
REMARK    2  A    between atoms: N_2  and  C_3
REMARK    3  A    between atoms: N_2  and  S_9
REMARK    4  A    between atoms: C_3  and  C_4
REMARK    5  A    between atoms: S_9  and  C_12
REMARK                            x       y       z     vdW  Elec       q    Type
REMARK                         _______ _______ _______ _____ _____    ______ ____
ROOT
ATOM      1  S   UNL     1       4.742   4.731  19.250  0.00  0.00    +0.000 S 
ATOM      2  O   UNL     1       3.765   5.704  19.685  0.00  0.00    +0.000 OA
ATOM      3  O   UNL     1       6.028   4.608  19.900  0.00  0.00    +0.000 OA
ENDROOT
BRANCH   1   4
ATOM      4  C   UNL     1       5.017   5.008  17.513  0.00  0.00    +0.000 A 
ATOM      5  C   UNL     1       5.284   3.914  16.685  0.00  0.00    +0.000 A 
ATOM      6  C   UNL     1       5.520   4.125  15.325  0.00  0.00    +0.000 A 
ATOM      7  C   UNL     1       5.479   5.420  14.800  0.00  0.00    +0.000 A 
ATOM      8  C   UNL     1       5.193   6.506  15.630  0.00  0.00    +0.000 A 
ATOM      9  C   UNL     1       4.958   6.304  16.991  0.00  0.00    +0.000 A 
ENDBRANCH   1   4
BRANCH   1  11
ATOM     10  C   UNL     1       4.807   2.156  20.012  0.00  0.00    +0.000 C 
ATOM     11  N   UNL     1       4.001   3.176  19.280  0.00  0.00    +0.000 NA
BRANCH  11  12
ATOM     12  C   UNL     1       2.502   3.055  19.607  0.00  0.00    +0.000 C 
ATOM     13  C   UNL     1       1.518   3.937  18.758  0.00  0.00    +0.000 C 
ATOM     14  C   UNL     1       0.545   2.740  18.730  0.00  0.00    +0.000 C 
ATOM     15  C   UNL     1       1.778   1.836  18.922  0.00  0.00    +0.000 C 
BRANCH  12  16
ATOM     16  C   UNL     1       2.255   3.149  21.051  0.00  0.00    +0.000 C 
ATOM     17  N   UNL     1       2.052   3.175  22.194  0.00  0.00    +0.000 NA
ENDBRANCH  12  16
ENDBRANCH  11  12
ENDBRANCH   1  11
TORSDOF 4
ENDMDL
MODEL 7
REMARK VINA RESULT:      -6.6      1.558      5.662
REMARK  Name = 
REMARK  5 active torsions:
REMARK  status: ('A' for Active; 'I' for Inactive)
REMARK    1  A    between atoms: C_1  and  N_2
REMARK    2  A    between atoms: N_2  and  C_3
REMARK    3  A    between atoms: N_2  and  S_9
REMARK    4  A    between atoms: C_3  and  C_4
REMARK    5  A    between atoms: S_9  and  C_12
REMARK                            x       y       z     vdW  Elec       q    Type
REMARK                         _______ _______ _______ _____ _____    ______ ____
ROOT
ATOM      1  S   UNL     1       4.965   4.858  18.883  0.00  0.00    +0.000 S 
ATOM      2  O   UNL     1       4.067   5.991  18.865  0.00  0.00    +0.000 OA
ATOM      3  O   UNL     1       6.055   4.772  19.830  0.00  0.00    +0.000 OA
ENDROOT
BRANCH   1   4
ATOM      4  C   UNL     1       5.635   4.697  17.241  0.00  0.00    +0.000 A 
ATOM      5  C   UNL     1       4.814   4.221  16.216  0.00  0.00    +0.000 A 
ATOM      6  C   UNL     1       5.337   4.073  14.931  0.00  0.00    +0.000 A 
ATOM      7  C   UNL     1       6.669   4.410  14.674  0.00  0.00    +0.000 A 
ATOM      8  C   UNL     1       7.478   4.903  15.699  0.00  0.00    +0.000 A 
ATOM      9  C   UNL     1       6.964   5.051  16.988  0.00  0.00    +0.000 A 
ENDBRANCH   1   4
BRANCH   1  11
ATOM     10  C   UNL     1       4.689   2.381  19.883  0.00  0.00    +0.000 C 
ATOM     11  N   UNL     1       4.022   3.427  19.056  0.00  0.00    +0.000 NA
BRANCH  11  12
ATOM     12  C   UNL     1       2.523   3.541  19.388  0.00  0.00    +0.000 C 
ATOM     13  C   UNL     1       1.876   2.340  20.166  0.00  0.00    +0.000 C 
ATOM     14  C   UNL     1       1.073   3.367  20.990  0.00  0.00    +0.000 C 
ATOM     15  C   UNL     1       2.200   4.372  20.686  0.00  0.00    +0.000 C 
BRANCH  12  16
ATOM     16  C   UNL     1       1.740   3.953  18.217  0.00  0.00    +0.000 C 
ATOM     17  N   UNL     1       1.141   4.242  17.265  0.00  0.00    +0.000 NA
ENDBRANCH  12  16
ENDBRANCH  11  12
ENDBRANCH   1  11
TORSDOF 4
ENDMDL
MODEL 8
REMARK VINA RESULT:      -6.6      1.960      5.465
REMARK  Name = 
REMARK  5 active torsions:
REMARK  status: ('A' for Active; 'I' for Inactive)
REMARK    1  A    between atoms: C_1  and  N_2
REMARK    2  A    between atoms: N_2  and  C_3
REMARK    3  A    between atoms: N_2  and  S_9
REMARK    4  A    between atoms: C_3  and  C_4
REMARK    5  A    between atoms: S_9  and  C_12
REMARK                            x       y       z     vdW  Elec       q    Type
REMARK                         _______ _______ _______ _____ _____    ______ ____
ROOT
ATOM      1  S   UNL     1       4.776   4.705  19.266  0.00  0.00    +0.000 S 
ATOM      2  O   UNL     1       3.802   5.682  19.701  0.00  0.00    +0.000 OA
ATOM      3  O   UNL     1       6.059   4.575  19.920  0.00  0.00    +0.000 OA
ENDROOT
BRANCH   1   4
ATOM      4  C   UNL     1       5.058   4.984  17.531  0.00  0.00    +0.000 A 
ATOM      5  C   UNL     1       5.011   6.291  17.037  0.00  0.00    +0.000 A 
ATOM      6  C   UNL     1       5.211   6.516  15.674  0.00  0.00    +0.000 A 
ATOM      7  C   UNL     1       5.466   5.442  14.817  0.00  0.00    +0.000 A 
ATOM      8  C   UNL     1       5.529   4.141  15.320  0.00  0.00    +0.000 A 
ATOM      9  C   UNL     1       5.328   3.907  16.682  0.00  0.00    +0.000 A 
ENDBRANCH   1   4
BRANCH   1  11
ATOM     10  C   UNL     1       4.825   2.130  20.025  0.00  0.00    +0.000 C 
ATOM     11  N   UNL     1       4.028   3.154  19.291  0.00  0.00    +0.000 NA
BRANCH  11  12
ATOM     12  C   UNL     1       2.526   3.040  19.612  0.00  0.00    +0.000 C 
ATOM     13  C   UNL     1       1.552   3.942  18.773  0.00  0.00    +0.000 C 
ATOM     14  C   UNL     1       0.570   2.754  18.724  0.00  0.00    +0.000 C 
ATOM     15  C   UNL     1       1.795   1.838  18.906  0.00  0.00    +0.000 C 
BRANCH  12  16
ATOM     16  C   UNL     1       2.275   3.114  21.056  0.00  0.00    +0.000 C 
ATOM     17  N   UNL     1       2.098   3.216  22.199  0.00  0.00    +0.000 NA
ENDBRANCH  12  16
ENDBRANCH  11  12
ENDBRANCH   1  11
TORSDOF 4
ENDMDL
MODEL 9
REMARK VINA RESULT:      -6.6      2.220      5.693
REMARK  Name = 
REMARK  5 active torsions:
REMARK  status: ('A' for Active; 'I' for Inactive)
REMARK    1  A    between atoms: C_1  and  N_2
REMARK    2  A    between atoms: N_2  and  C_3
REMARK    3  A    between atoms: N_2  and  S_9
REMARK    4  A    between atoms: C_3  and  C_4
REMARK    5  A    between atoms: S_9  and  C_12
REMARK                            x       y       z     vdW  Elec       q    Type
REMARK                         _______ _______ _______ _____ _____    ______ ____
ROOT
ATOM      1  S   UNL     1       3.439   3.235  17.484  0.00  0.00    +0.000 S 
ATOM      2  O   UNL     1       3.719   1.835  17.717  0.00  0.00    +0.000 OA
ATOM      3  O   UNL     1       2.313   3.656  16.680  0.00  0.00    +0.000 OA
ENDROOT
BRANCH   1   4
ATOM      4  C   UNL     1       4.916   3.957  16.801  0.00  0.00    +0.000 A 
ATOM      5  C   UNL     1       5.019   4.110  15.416  0.00  0.00    +0.000 A 
ATOM      6  C   UNL     1       6.182   4.657  14.872  0.00  0.00    +0.000 A 
ATOM      7  C   UNL     1       7.227   5.056  15.710  0.00  0.00    +0.000 A 
ATOM      8  C   UNL     1       7.109   4.917  17.094  0.00  0.00    +0.000 A 
ATOM      9  C   UNL     1       5.951   4.368  17.647  0.00  0.00    +0.000 A 
ENDBRANCH   1   4
BRANCH   1  11
ATOM     10  C   UNL     1       2.501   5.275  18.957  0.00  0.00    +0.000 C 
ATOM     11  N   UNL     1       3.298   4.015  19.012  0.00  0.00    +0.000 NA
BRANCH  11  12
ATOM     12  C   UNL     1       2.956   3.184  20.262  0.00  0.00    +0.000 C 
ATOM     13  C   UNL     1       2.247   3.938  21.443  0.00  0.00    +0.000 C 
ATOM     14  C   UNL     1       1.364   2.690  21.647  0.00  0.00    +0.000 C 
ATOM     15  C   UNL     1       1.612   2.370  20.161  0.00  0.00    +0.000 C 
BRANCH  12  16
ATOM     16  C   UNL     1       4.100   2.377  20.702  0.00  0.00    +0.000 C 
ATOM     17  N   UNL     1       5.024   1.741  21.006  0.00  0.00    +0.000 NA
ENDBRANCH  12  16
ENDBRANCH  11  12
ENDBRANCH   1  11
TORSDOF 4
ENDMDL
