MODEL 1
REMARK VINA RESULT:      -8.0      0.000      0.000
REMARK  Name = 
REMARK  6 active torsions:
REMARK  status: ('A' for Active; 'I' for Inactive)
REMARK    1  A    between atoms: N_6  and  C_7
REMARK    2  A    between atoms: C_7  and  C_8
REMARK    3  A    between atoms: N_10  and  C_11
REMARK    4  A    between atoms: N_10  and  C_18
REMARK    5  A    between atoms: C_11  and  C_12
REMARK    6  A    between atoms: C_18  and  C_19
REMARK                            x       y       z     vdW  Elec       q    Type
REMARK                         _______ _______ _______ _____ _____    ______ ____
ROOT
ATOM      1  C   UNL     1       3.581   4.572  17.181  0.00  0.00    +0.000 C 
ATOM      2  O   UNL     1       2.943   5.481  17.700  0.00  0.00    +0.000 OA
ATOM      3  N   UNL     1       4.706   4.871  16.435  0.00  0.00    +0.000 N 
ENDROOT
BRANCH   1   4
ATOM      4  C   UNL     1       3.136   3.156  17.529  0.00  0.00    +0.000 C 
BRANCH   4  10
ATOM      5  N   UNL     1       4.740   2.565  19.825  0.00  0.00    +0.000 NA
ATOM      6  C   UNL     1       3.471   2.698  19.950  0.00  0.00    +0.000 A 
ATOM      7  S   UNL     1       2.656   2.569  21.413  0.00  0.00    +0.000 S 
ATOM      8  C   UNL     1       1.162   2.880  20.711  0.00  0.00    +0.000 A 
ATOM      9  C   UNL     1       1.342   3.077  19.343  0.00  0.00    +0.000 A 
ATOM     10  N   UNL     1       2.638   2.975  18.912  0.00  0.00    +0.000 N 
ATOM     11  H   UNL     1       5.338   2.364  20.641  0.00  0.00    +0.000 HD
ENDBRANCH   4  10
ENDBRANCH   1   4
BRANCH   3  12
ATOM     12  C   UNL     1       5.630   3.858  15.890  0.00  0.00    +0.000 C 
BRANCH  12  13
ATOM     13  C   UNL     1       6.242   4.074  14.506  0.00  0.00    +0.000 A 
ATOM     14  C   UNL     1       7.333   4.913  14.194  0.00  0.00    +0.000 A 
ATOM     15  C   UNL     1       7.762   5.041  12.854  0.00  0.00    +0.000 A 
ATOM     16  C   UNL     1       7.127   4.326  11.834  0.00  0.00    +0.000 A 
ATOM     17  C   UNL     1       6.068   3.477  12.137  0.00  0.00    +0.000 A 
ATOM     18  C   UNL     1       5.629   3.358  13.456  0.00  0.00    +0.000 A 
ENDBRANCH  12  13
ENDBRANCH   3  12
BRANCH   3  19
ATOM     19  C   UNL     1       5.148   6.278  16.339  0.00  0.00    +0.000 C 
BRANCH  19  20
ATOM     20  C   UNL     1       6.330   6.611  17.258  0.00  0.00    +0.000 A 
ATOM     21  C   UNL     1       6.802   5.740  18.266  0.00  0.00    +0.000 A 
ATOM     22  C   UNL     1       7.879   6.108  19.088  0.00  0.00    +0.000 A 
ATOM     23  C   UNL     1       8.498   7.348  18.924  0.00  0.00    +0.000 A 
ATOM     24  C   UNL     1       8.046   8.224  17.937  0.00  0.00    +0.000 A 
ATOM     25  C   UNL     1       6.975   7.860  17.109  0.00  0.00    +0.000 A 
ENDBRANCH  19  20
ENDBRANCH   3  19
TORSDOF 6
ENDMDL
MODEL 2
REMARK VINA RESULT:      -7.9      0.117      1.397
REMARK  Name = 
REMARK  6 active torsions:
REMARK  status: ('A' for Active; 'I' for Inactive)
REMARK    1  A    between atoms: N_6  and  C_7
REMARK    2  A    between atoms: C_7  and  C_8
REMARK    3  A    between atoms: N_10  and  C_11
REMARK    4  A    between atoms: N_10  and  C_18
REMARK    5  A    between atoms: C_11  and  C_12
REMARK    6  A    between atoms: C_18  and  C_19
REMARK                            x       y       z     vdW  Elec       q    Type
REMARK                         _______ _______ _______ _____ _____    ______ ____
ROOT
ATOM      1  C   UNL     1       3.595   4.551  17.181  0.00  0.00    +0.000 C 
ATOM      2  O   UNL     1       2.952   5.451  17.709  0.00  0.00    +0.000 OA
ATOM      3  N   UNL     1       4.701   4.867  16.413  0.00  0.00    +0.000 N 
ENDROOT
BRANCH   1   4
ATOM      4  C   UNL     1       3.179   3.128  17.539  0.00  0.00    +0.000 C 
BRANCH   4  10
ATOM      5  N   UNL     1       4.775   2.510  19.833  0.00  0.00    +0.000 NA
ATOM      6  C   UNL     1       3.508   2.659  19.958  0.00  0.00    +0.000 A 
ATOM      7  S   UNL     1       2.691   2.534  21.421  0.00  0.00    +0.000 S 
ATOM      8  C   UNL     1       1.201   2.867  20.720  0.00  0.00    +0.000 A 
ATOM      9  C   UNL     1       1.384   3.066  19.353  0.00  0.00    +0.000 A 
ATOM     10  N   UNL     1       2.679   2.949  18.921  0.00  0.00    +0.000 N 
ATOM     11  H   UNL     1       5.371   2.299  20.648  0.00  0.00    +0.000 HD
ENDBRANCH   4  10
ENDBRANCH   1   4
BRANCH   3  12
ATOM     12  C   UNL     1       5.631   3.867  15.853  0.00  0.00    +0.000 C 
BRANCH  12  13
ATOM     13  C   UNL     1       6.120   4.027  14.414  0.00  0.00    +0.000 A 
ATOM     14  C   UNL     1       5.558   3.428  13.266  0.00  0.00    +0.000 A 
ATOM     15  C   UNL     1       6.149   3.640  12.001  0.00  0.00    +0.000 A 
ATOM     16  C   UNL     1       7.276   4.457  11.871  0.00  0.00    +0.000 A 
ATOM     17  C   UNL     1       7.820   5.071  12.994  0.00  0.00    +0.000 A 
ATOM     18  C   UNL     1       7.251   4.854  14.249  0.00  0.00    +0.000 A 
ENDBRANCH  12  13
ENDBRANCH   3  12
BRANCH   3  19
ATOM     19  C   UNL     1       5.119   6.280  16.307  0.00  0.00    +0.000 C 
BRANCH  19  20
ATOM     20  C   UNL     1       6.284   6.644  17.235  0.00  0.00    +0.000 A 
ATOM     21  C   UNL     1       7.011   7.852  17.136  0.00  0.00    +0.000 A 
ATOM     22  C   UNL     1       8.079   8.121  18.006  0.00  0.00    +0.000 A 
ATOM     23  C   UNL     1       8.444   7.193  18.981  0.00  0.00    +0.000 A 
ATOM     24  C   UNL     1       7.742   5.993  19.094  0.00  0.00    +0.000 A 
ATOM     25  C   UNL     1       6.670   5.721  18.232  0.00  0.00    +0.000 A 
ENDBRANCH  19  20
ENDBRANCH   3  19
TORSDOF 6
ENDMDL
MODEL 3
REMARK VINA RESULT:      -7.6      0.612      1.559
REMARK  Name = 
REMARK  6 active torsions:
REMARK  status: ('A' for Active; 'I' for Inactive)
REMARK    1  A    between atoms: N_6  and  C_7
REMARK    2  A    between atoms: C_7  and  C_8
REMARK    3  A    between atoms: N_10  and  C_11
REMARK    4  A    between atoms: N_10  and  C_18
REMARK    5  A    between atoms: C_11  and  C_12
REMARK    6  A    between atoms: C_18  and  C_19
REMARK                            x       y       z     vdW  Elec       q    Type
REMARK                         _______ _______ _______ _____ _____    ______ ____
ROOT
ATOM      1  C   UNL     1       3.681   4.513  17.192  0.00  0.00    +0.000 C 
ATOM      2  O   UNL     1       3.053   5.416  17.732  0.00  0.00    +0.000 OA
ATOM      3  N   UNL     1       4.759   4.824  16.383  0.00  0.00    +0.000 N 
ENDROOT
BRANCH   1   4
ATOM      4  C   UNL     1       3.282   3.093  17.580  0.00  0.00    +0.000 C 
BRANCH   4  10
ATOM      5  N   UNL     1       0.591   2.713  18.477  0.00  0.00    +0.000 NA
ATOM      6  C   UNL     1       1.549   2.743  19.328  0.00  0.00    +0.000 A 
ATOM      7  S   UNL     1       1.338   2.549  20.984  0.00  0.00    +0.000 S 
ATOM      8  C   UNL     1       2.980   2.695  21.302  0.00  0.00    +0.000 A 
ATOM      9  C   UNL     1       3.654   2.894  20.098  0.00  0.00    +0.000 A 
ATOM     10  N   UNL     1       2.853   2.923  18.987  0.00  0.00    +0.000 N 
ATOM     11  H   UNL     1      -0.385   2.566  18.778  0.00  0.00    +0.000 HD
ENDBRANCH   4  10
ENDBRANCH   1   4
BRANCH   3  12
ATOM     12  C   UNL     1       5.673   3.821  15.804  0.00  0.00    +0.000 C 
BRANCH  12  13
ATOM     13  C   UNL     1       6.306   4.090  14.439  0.00  0.00    +0.000 A 
ATOM     14  C   UNL     1       7.370   4.979  14.169  0.00  0.00    +0.000 A 
ATOM     15  C   UNL     1       7.822   5.151  12.842  0.00  0.00    +0.000 A 
ATOM     16  C   UNL     1       7.240   4.432  11.793  0.00  0.00    +0.000 A 
ATOM     17  C   UNL     1       6.210   3.536  12.056  0.00  0.00    +0.000 A 
ATOM     18  C   UNL     1       5.747   3.372  13.361  0.00  0.00    +0.000 A 
ENDBRANCH  12  13
ENDBRANCH   3  12
BRANCH   3  19
ATOM     19  C   UNL     1       5.167   6.238  16.247  0.00  0.00    +0.000 C 
BRANCH  19  20
ATOM     20  C   UNL     1       6.314   6.636  17.185  0.00  0.00    +0.000 A 
ATOM     21  C   UNL     1       7.012   7.860  17.085  0.00  0.00    +0.000 A 
ATOM     22  C   UNL     1       8.065   8.160  17.964  0.00  0.00    +0.000 A 
ATOM     23  C   UNL     1       8.442   7.247  18.949  0.00  0.00    +0.000 A 
ATOM     24  C   UNL     1       7.768   6.031  19.063  0.00  0.00    +0.000 A 
ATOM     25  C   UNL     1       6.712   5.727  18.192  0.00  0.00    +0.000 A 
ENDBRANCH  19  20
ENDBRANCH   3  19
TORSDOF 6
ENDMDL
MODEL 4
REMARK VINA RESULT:      -7.5      0.552      1.213
REMARK  Name = 
REMARK  6 active torsions:
REMARK  status: ('A' for Active; 'I' for Inactive)
REMARK    1  A    between atoms: N_6  and  C_7
REMARK    2  A    between atoms: C_7  and  C_8
REMARK    3  A    between atoms: N_10  and  C_11
REMARK    4  A    between atoms: N_10  and  C_18
REMARK    5  A    between atoms: C_11  and  C_12
REMARK    6  A    between atoms: C_18  and  C_19
REMARK                            x       y       z     vdW  Elec       q    Type
REMARK                         _______ _______ _______ _____ _____    ______ ____
ROOT
ATOM      1  C   UNL     1       3.468   4.630  17.235  0.00  0.00    +0.000 C 
ATOM      2  O   UNL     1       2.847   5.554  17.748  0.00  0.00    +0.000 OA
ATOM      3  N   UNL     1       4.594   4.905  16.480  0.00  0.00    +0.000 N 
ENDROOT
BRANCH   1   4
ATOM      4  C   UNL     1       3.001   3.224  17.597  0.00  0.00    +0.000 C 
BRANCH   4  10
ATOM      5  N   UNL     1       0.813   3.581  19.408  0.00  0.00    +0.000 NA
ATOM      6  C   UNL     1       1.925   3.108  19.836  0.00  0.00    +0.000 A 
ATOM      7  S   UNL     1       2.196   2.647  21.429  0.00  0.00    +0.000 S 
ATOM      8  C   UNL     1       3.775   2.165  21.116  0.00  0.00    +0.000 A 
ATOM      9  C   UNL     1       4.049   2.380  19.766  0.00  0.00    +0.000 A 
ATOM     10  N   UNL     1       3.013   2.911  19.044  0.00  0.00    +0.000 N 
ATOM     11  H   UNL     1       0.008   3.706  20.041  0.00  0.00    +0.000 HD
ENDBRANCH   4  10
ENDBRANCH   1   4
BRANCH   3  12
ATOM     12  C   UNL     1       5.499   3.871  15.940  0.00  0.00    +0.000 C 
BRANCH  12  13
ATOM     13  C   UNL     1       6.142   4.086  14.571  0.00  0.00    +0.000 A 
ATOM     14  C   UNL     1       7.269   4.888  14.290  0.00  0.00    +0.000 A 
ATOM     15  C   UNL     1       7.725   5.020  12.960  0.00  0.00    +0.000 A 
ATOM     16  C   UNL     1       7.082   4.345  11.918  0.00  0.00    +0.000 A 
ATOM     17  C   UNL     1       5.987   3.533  12.190  0.00  0.00    +0.000 A 
ATOM     18  C   UNL     1       5.521   3.410  13.499  0.00  0.00    +0.000 A 
ENDBRANCH  12  13
ENDBRANCH   3  12
BRANCH   3  19
ATOM     19  C   UNL     1       5.058   6.304  16.370  0.00  0.00    +0.000 C 
BRANCH  19  20
ATOM     20  C   UNL     1       6.259   6.621  17.269  0.00  0.00    +0.000 A 
ATOM     21  C   UNL     1       6.723   5.755  18.285  0.00  0.00    +0.000 A 
ATOM     22  C   UNL     1       7.818   6.110  19.087  0.00  0.00    +0.000 A 
ATOM     23  C   UNL     1       8.465   7.331  18.896  0.00  0.00    +0.000 A 
ATOM     24  C   UNL     1       8.022   8.203  17.901  0.00  0.00    +0.000 A 
ATOM     25  C   UNL     1       6.931   7.852  17.092  0.00  0.00    +0.000 A 
ENDBRANCH  19  20
ENDBRANCH   3  19
TORSDOF 6
ENDMDL
MODEL 5
REMARK VINA RESULT:      -7.5      4.534      6.494
REMARK  Name = 
REMARK  6 active torsions:
REMARK  status: ('A' for Active; 'I' for Inactive)
REMARK    1  A    between atoms: N_6  and  C_7
REMARK    2  A    between atoms: C_7  and  C_8
REMARK    3  A    between atoms: N_10  and  C_11
REMARK    4  A    between atoms: N_10  and  C_18
REMARK    5  A    between atoms: C_11  and  C_12
REMARK    6  A    between atoms: C_18  and  C_19
REMARK                            x       y       z     vdW  Elec       q    Type
REMARK                         _______ _______ _______ _____ _____    ______ ____
ROOT
ATOM      1  C   UNL     1       2.250   8.403  18.263  0.00  0.00    +0.000 C 
ATOM      2  O   UNL     1       2.167   9.289  17.419  0.00  0.00    +0.000 OA
ATOM      3  N   UNL     1       3.122   7.350  18.059  0.00  0.00    +0.000 N 
ENDROOT
BRANCH   1   4
ATOM      4  C   UNL     1       1.460   8.626  19.549  0.00  0.00    +0.000 C 
BRANCH   4  10
ATOM      5  N   UNL     1       1.215  10.616  21.591  0.00  0.00    +0.000 NA
ATOM      6  C   UNL     1       0.485  10.686  20.540  0.00  0.00    +0.000 A 
ATOM      7  S   UNL     1      -0.628  11.912  20.254  0.00  0.00    +0.000 S 
ATOM      8  C   UNL     1      -1.079  11.278  18.765  0.00  0.00    +0.000 A 
ATOM      9  C   UNL     1      -0.343  10.118  18.531  0.00  0.00    +0.000 A 
ATOM     10  N   UNL     1       0.535   9.781  19.527  0.00  0.00    +0.000 N 
ATOM     11  H   UNL     1       1.152  11.329  22.334  0.00  0.00    +0.000 HD
ENDBRANCH   4  10
ENDBRANCH   1   4
BRANCH   3  12
ATOM     12  C   UNL     1       3.412   6.310  19.066  0.00  0.00    +0.000 C 
BRANCH  12  13
ATOM     13  C   UNL     1       2.502   5.086  19.157  0.00  0.00    +0.000 A 
ATOM     14  C   UNL     1       2.110   4.251  18.088  0.00  0.00    +0.000 A 
ATOM     15  C   UNL     1       1.227   3.174  18.324  0.00  0.00    +0.000 A 
ATOM     16  C   UNL     1       0.752   2.913  19.613  0.00  0.00    +0.000 A 
ATOM     17  C   UNL     1       1.154   3.715  20.675  0.00  0.00    +0.000 A 
ATOM     18  C   UNL     1       2.013   4.790  20.448  0.00  0.00    +0.000 A 
ENDBRANCH  12  13
ENDBRANCH   3  12
BRANCH   3  19
ATOM     19  C   UNL     1       3.982   7.354  16.858  0.00  0.00    +0.000 C 
BRANCH  19  20
ATOM     20  C   UNL     1       5.177   6.398  16.958  0.00  0.00    +0.000 A 
ATOM     21  C   UNL     1       6.360   6.700  17.670  0.00  0.00    +0.000 A 
ATOM     22  C   UNL     1       7.426   5.789  17.711  0.00  0.00    +0.000 A 
ATOM     23  C   UNL     1       7.336   4.568  17.043  0.00  0.00    +0.000 A 
ATOM     24  C   UNL     1       6.178   4.250  16.332  0.00  0.00    +0.000 A 
ATOM     25  C   UNL     1       5.107   5.154  16.291  0.00  0.00    +0.000 A 
ENDBRANCH  19  20
ENDBRANCH   3  19
TORSDOF 6
ENDMDL
MODEL 6
REMARK VINA RESULT:      -7.5      4.487      6.499
REMARK  Name = 
REMARK  6 active torsions:
REMARK  status: ('A' for Active; 'I' for Inactive)
REMARK    1  A    between atoms: N_6  and  C_7
REMARK    2  A    between atoms: C_7  and  C_8
REMARK    3  A    between atoms: N_10  and  C_11
REMARK    4  A    between atoms: N_10  and  C_18
REMARK    5  A    between atoms: C_11  and  C_12
REMARK    6  A    between atoms: C_18  and  C_19
REMARK                            x       y       z     vdW  Elec       q    Type
REMARK                         _______ _______ _______ _____ _____    ______ ____
ROOT
ATOM      1  C   UNL     1       2.115   8.132  18.845  0.00  0.00    +0.000 C 
ATOM      2  O   UNL     1       1.545   8.067  19.928  0.00  0.00    +0.000 OA
ATOM      3  N   UNL     1       3.115   7.225  18.547  0.00  0.00    +0.000 N 
ENDROOT
BRANCH   1   4
ATOM      4  C   UNL     1       1.560   9.151  17.855  0.00  0.00    +0.000 C 
BRANCH   4  10
ATOM      5  N   UNL     1      -1.183   9.809  17.369  0.00  0.00    +0.000 NA
ATOM      6  C   UNL     1      -0.490  10.520  18.180  0.00  0.00    +0.000 A 
ATOM      7  S   UNL     1      -1.098  11.840  19.023  0.00  0.00    +0.000 S 
ATOM      8  C   UNL     1       0.363  12.133  19.798  0.00  0.00    +0.000 A 
ATOM      9  C   UNL     1       1.293  11.186  19.373  0.00  0.00    +0.000 A 
ATOM     10  N   UNL     1       0.818  10.279  18.463  0.00  0.00    +0.000 N 
ATOM     11  H   UNL     1      -2.176  10.021  17.189  0.00  0.00    +0.000 HD
ENDBRANCH   4  10
ENDBRANCH   1   4
BRANCH   3  12
ATOM     12  C   UNL     1       3.765   7.115  17.226  0.00  0.00    +0.000 C 
BRANCH  12  13
ATOM     13  C   UNL     1       5.038   6.281  17.089  0.00  0.00    +0.000 A 
ATOM     14  C   UNL     1       6.281   6.541  17.704  0.00  0.00    +0.000 A 
ATOM     15  C   UNL     1       7.384   5.697  17.448  0.00  0.00    +0.000 A 
ATOM     16  C   UNL     1       7.250   4.590  16.604  0.00  0.00    +0.000 A 
ATOM     17  C   UNL     1       6.022   4.312  16.015  0.00  0.00    +0.000 A 
ATOM     18  C   UNL     1       4.933   5.150  16.251  0.00  0.00    +0.000 A 
ENDBRANCH  12  13
ENDBRANCH   3  12
BRANCH   3  19
ATOM     19  C   UNL     1       3.423   6.154  19.518  0.00  0.00    +0.000 C 
BRANCH  19  20
ATOM     20  C   UNL     1       2.465   4.959  19.435  0.00  0.00    +0.000 A 
ATOM     21  C   UNL     1       2.103   4.334  18.220  0.00  0.00    +0.000 A 
ATOM     22  C   UNL     1       1.208   3.254  18.207  0.00  0.00    +0.000 A 
ATOM     23  C   UNL     1       0.656   2.782  19.399  0.00  0.00    +0.000 A 
ATOM     24  C   UNL     1       0.997   3.387  20.609  0.00  0.00    +0.000 A 
ATOM     25  C   UNL     1       1.895   4.463  20.629  0.00  0.00    +0.000 A 
ENDBRANCH  19  20
ENDBRANCH   3  19
TORSDOF 6
ENDMDL
MODEL 7
REMARK VINA RESULT:      -7.5      4.363      6.503
REMARK  Name = 
REMARK  6 active torsions:
REMARK  status: ('A' for Active; 'I' for Inactive)
REMARK    1  A    between atoms: N_6  and  C_7
REMARK    2  A    between atoms: C_7  and  C_8
REMARK    3  A    between atoms: N_10  and  C_11
REMARK    4  A    between atoms: N_10  and  C_18
REMARK    5  A    between atoms: C_11  and  C_12
REMARK    6  A    between atoms: C_18  and  C_19
REMARK                            x       y       z     vdW  Elec       q    Type
REMARK                         _______ _______ _______ _____ _____    ______ ____
ROOT
ATOM      1  C   UNL     1       2.131   8.123  18.853  0.00  0.00    +0.000 C 
ATOM      2  O   UNL     1       1.633   8.103  19.973  0.00  0.00    +0.000 OA
ATOM      3  N   UNL     1       3.108   7.201  18.527  0.00  0.00    +0.000 N 
ENDROOT
BRANCH   1   4
ATOM      4  C   UNL     1       1.513   9.103  17.862  0.00  0.00    +0.000 C 
BRANCH   4  10
ATOM      5  N   UNL     1      -0.669  10.215  19.343  0.00  0.00    +0.000 NA
ATOM      6  C   UNL     1       0.338  10.949  19.042  0.00  0.00    +0.000 A 
ATOM      7  S   UNL     1       0.487  12.563  19.487  0.00  0.00    +0.000 S 
ATOM      8  C   UNL     1       1.992  12.718  18.758  0.00  0.00    +0.000 A 
ATOM      9  C   UNL     1       2.340  11.497  18.183  0.00  0.00    +0.000 A 
ATOM     10  N   UNL     1       1.412  10.501  18.339  0.00  0.00    +0.000 N 
ATOM     11  H   UNL     1      -1.461  10.593  19.886  0.00  0.00    +0.000 HD
ENDBRANCH   4  10
ENDBRANCH   1   4
BRANCH   3  12
ATOM     12  C   UNL     1       3.670   7.036  17.172  0.00  0.00    +0.000 C 
BRANCH  12  13
ATOM     13  C   UNL     1       4.988   6.282  16.999  0.00  0.00    +0.000 A 
ATOM     14  C   UNL     1       6.258   6.697  17.454  0.00  0.00    +0.000 A 
ATOM     15  C   UNL     1       7.396   5.907  17.181  0.00  0.00    +0.000 A 
ATOM     16  C   UNL     1       7.274   4.703  16.480  0.00  0.00    +0.000 A 
ATOM     17  C   UNL     1       6.023   4.275  16.051  0.00  0.00    +0.000 A 
ATOM     18  C   UNL     1       4.896   5.057  16.303  0.00  0.00    +0.000 A 
ENDBRANCH  12  13
ENDBRANCH   3  12
BRANCH   3  19
ATOM     19  C   UNL     1       3.479   6.169  19.519  0.00  0.00    +0.000 C 
BRANCH  19  20
ATOM     20  C   UNL     1       2.497   4.992  19.571  0.00  0.00    +0.000 A 
ATOM     21  C   UNL     1       1.988   4.454  20.775  0.00  0.00    +0.000 A 
ATOM     22  C   UNL     1       1.105   3.364  20.758  0.00  0.00    +0.000 A 
ATOM     23  C   UNL     1       0.719   2.789  19.547  0.00  0.00    +0.000 A 
ATOM     24  C   UNL     1       1.212   3.301  18.347  0.00  0.00    +0.000 A 
ATOM     25  C   UNL     1       2.090   4.394  18.357  0.00  0.00    +0.000 A 
ENDBRANCH  19  20
ENDBRANCH   3  19
TORSDOF 6
ENDMDL
MODEL 8
REMARK VINA RESULT:      -7.5      4.555      6.645
REMARK  Name = 
REMARK  6 active torsions:
REMARK  status: ('A' for Active; 'I' for Inactive)
REMARK    1  A    between atoms: N_6  and  C_7
REMARK    2  A    between atoms: C_7  and  C_8
REMARK    3  A    between atoms: N_10  and  C_11
REMARK    4  A    between atoms: N_10  and  C_18
REMARK    5  A    between atoms: C_11  and  C_12
REMARK    6  A    between atoms: C_18  and  C_19
REMARK                            x       y       z     vdW  Elec       q    Type
REMARK                         _______ _______ _______ _____ _____    ______ ____
ROOT
ATOM      1  C   UNL     1       2.241   8.516  18.109  0.00  0.00    +0.000 C 
ATOM      2  O   UNL     1       2.213   9.359  17.220  0.00  0.00    +0.000 OA
ATOM      3  N   UNL     1       3.105   7.442  18.001  0.00  0.00    +0.000 N 
ENDROOT
BRANCH   1   4
ATOM      4  C   UNL     1       1.393   8.812  19.342  0.00  0.00    +0.000 C 
BRANCH   4  10
ATOM      5  N   UNL     1      -0.668   9.916  17.691  0.00  0.00    +0.000 NA
ATOM      6  C   UNL     1      -0.124  10.637  18.600  0.00  0.00    +0.000 A 
ATOM      7  S   UNL     1      -0.560  12.228  18.920  0.00  0.00    +0.000 S 
ATOM      8  C   UNL     1       0.551  12.376  20.170  0.00  0.00    +0.000 A 
ATOM      9  C   UNL     1       1.238  11.171  20.305  0.00  0.00    +0.000 A 
ATOM     10  N   UNL     1       0.863  10.192  19.423  0.00  0.00    +0.000 N 
ATOM     11  H   UNL     1      -1.421  10.290  17.093  0.00  0.00    +0.000 HD
ENDBRANCH   4  10
ENDBRANCH   1   4
BRANCH   3  12
ATOM     12  C   UNL     1       3.329   6.450  19.071  0.00  0.00    +0.000 C 
BRANCH  12  13
ATOM     13  C   UNL     1       2.447   5.204  19.129  0.00  0.00    +0.000 A 
ATOM     14  C   UNL     1       2.067   4.393  18.037  0.00  0.00    +0.000 A 
ATOM     15  C   UNL     1       1.209   3.290  18.244  0.00  0.00    +0.000 A 
ATOM     16  C   UNL     1       0.748   2.980  19.526  0.00  0.00    +0.000 A 
ATOM     17  C   UNL     1       1.139   3.758  20.610  0.00  0.00    +0.000 A 
ATOM     18  C   UNL     1       1.973   4.857  20.412  0.00  0.00    +0.000 A 
ENDBRANCH  12  13
ENDBRANCH   3  12
BRANCH   3  19
ATOM     19  C   UNL     1       4.023   7.375  16.844  0.00  0.00    +0.000 C 
BRANCH  19  20
ATOM     20  C   UNL     1       5.225   6.451  17.072  0.00  0.00    +0.000 A 
ATOM     21  C   UNL     1       6.363   6.823  17.823  0.00  0.00    +0.000 A 
ATOM     22  C   UNL     1       7.440   5.937  17.982  0.00  0.00    +0.000 A 
ATOM     23  C   UNL     1       7.406   4.673  17.393  0.00  0.00    +0.000 A 
ATOM     24  C   UNL     1       6.294   4.287  16.644  0.00  0.00    +0.000 A 
ATOM     25  C   UNL     1       5.212   5.164  16.486  0.00  0.00    +0.000 A 
ENDBRANCH  19  20
ENDBRANCH   3  19
TORSDOF 6
ENDMDL
MODEL 9
REMARK VINA RESULT:      -7.5      4.442      6.474
REMARK  Name = 
REMARK  6 active torsions:
REMARK  status: ('A' for Active; 'I' for Inactive)
REMARK    1  A    between atoms: N_6  and  C_7
REMARK    2  A    between atoms: C_7  and  C_8
REMARK    3  A    between atoms: N_10  and  C_11
REMARK    4  A    between atoms: N_10  and  C_18
REMARK    5  A    between atoms: C_11  and  C_12
REMARK    6  A    between atoms: C_18  and  C_19
REMARK                            x       y       z     vdW  Elec       q    Type
REMARK                         _______ _______ _______ _____ _____    ______ ____
ROOT
ATOM      1  C   UNL     1       2.142   7.998  19.064  0.00  0.00    +0.000 C 
ATOM      2  O   UNL     1       1.618   7.849  20.161  0.00  0.00    +0.000 OA
ATOM      3  N   UNL     1       3.148   7.136  18.667  0.00  0.00    +0.000 N 
ENDROOT
BRANCH   1   4
ATOM      4  C   UNL     1       1.527   9.067  18.166  0.00  0.00    +0.000 C 
BRANCH   4  10
ATOM      5  N   UNL     1       2.615  11.592  17.368  0.00  0.00    +0.000 NA
ATOM      6  C   UNL     1       1.826  11.526  18.377  0.00  0.00    +0.000 A 
ATOM      7  S   UNL     1       1.351  12.860  19.282  0.00  0.00    +0.000 S 
ATOM      8  C   UNL     1       0.384  11.937  20.300  0.00  0.00    +0.000 A 
ATOM      9  C   UNL     1       0.460  10.603  19.902  0.00  0.00    +0.000 A 
ATOM     10  N   UNL     1       1.270  10.368  18.823  0.00  0.00    +0.000 N 
ATOM     11  H   UNL     1       3.008  12.493  17.056  0.00  0.00    +0.000 HD
ENDBRANCH   4  10
ENDBRANCH   1   4
BRANCH   3  12
ATOM     12  C   UNL     1       3.746   7.129  17.318  0.00  0.00    +0.000 C 
BRANCH  12  13
ATOM     13  C   UNL     1       5.016   6.315  17.070  0.00  0.00    +0.000 A 
ATOM     14  C   UNL     1       6.304   6.595  17.576  0.00  0.00    +0.000 A 
ATOM     15  C   UNL     1       7.393   5.767  17.224  0.00  0.00    +0.000 A 
ATOM     16  C   UNL     1       7.204   4.658  16.394  0.00  0.00    +0.000 A 
ATOM     17  C   UNL     1       5.934   4.361  15.913  0.00  0.00    +0.000 A 
ATOM     18  C   UNL     1       4.856   5.182  16.243  0.00  0.00    +0.000 A 
ENDBRANCH  12  13
ENDBRANCH   3  12
BRANCH   3  19
ATOM     19  C   UNL     1       3.518   6.012  19.553  0.00  0.00    +0.000 C 
BRANCH  19  20
ATOM     20  C   UNL     1       2.529   4.840  19.497  0.00  0.00    +0.000 A 
ATOM     21  C   UNL     1       2.071   4.264  18.291  0.00  0.00    +0.000 A 
ATOM     22  C   UNL     1       1.153   3.203  18.305  0.00  0.00    +0.000 A 
ATOM     23  C   UNL     1       0.672   2.703  19.516  0.00  0.00    +0.000 A 
ATOM     24  C   UNL     1       1.108   3.260  20.719  0.00  0.00    +0.000 A 
ATOM     25  C   UNL     1       2.030   4.316  20.712  0.00  0.00    +0.000 A 
ENDBRANCH  19  20
ENDBRANCH   3  19
TORSDOF 6
ENDMDL
