MODEL 1
REMARK VINA RESULT:      -7.9      0.000      0.000
REMARK  Name = 
REMARK  9 active torsions:
REMARK  status: ('A' for Active; 'I' for Inactive)
REMARK    1  A    between atoms: C_1  and  N_2
REMARK    2  A    between atoms: C_3  and  C_5
REMARK    3  A    between atoms: C_11  and  N_12
REMARK    4  A    between atoms: C_13  and  C_15
REMARK    5  A    between atoms: C_17  and  C_18
REMARK    6  A    between atoms: C_23  and  O_24
REMARK    7  A    between atoms: O_24  and  C_25
REMARK    8  A    between atoms: CA_28  and  C_29
REMARK    9  A    between atoms: C_29  and  OXT_31
REMARK                            x       y       z     vdW  Elec       q    Type
REMARK                         _______ _______ _______ _____ _____    ______ ____
ROOT
ATOM      1  C   UNL     1       4.485   5.366  17.834  0.00  0.00    +0.000 A 
ATOM      2  S   UNL     1       3.942   6.941  17.423  0.00  0.00    +0.000 S 
ATOM      3  C   UNL     1       2.806   6.956  18.725  0.00  0.00    +0.000 A 
ATOM      4  N   UNL     1       1.989   8.025  18.947  0.00  0.00    +0.000 N 
ATOM      5  C   UNL     1       1.486   8.859  17.859  0.00  0.00    +0.000 C 
ATOM      6  C   UNL     1       1.831  10.311  18.158  0.00  0.00    +0.000 C 
ATOM      7  C   UNL     1       1.226  10.758  19.492  0.00  0.00    +0.000 C 
ATOM      8  C   UNL     1       1.648   9.790  20.639  0.00  0.00    +0.000 C 
ATOM      9  C   UNL     1       1.402   8.302  20.257  0.00  0.00    +0.000 C 
ATOM     10  N   UNL     1       2.863   5.875  19.475  0.00  0.00    +0.000 NA
ATOM     11  CA  UNL     1       3.791   4.943  18.956  0.00  0.00    +0.000 A 
ENDROOT
BRANCH   1  14
ATOM     12  C   UNL     1       6.110   3.981  14.737  0.00  0.00    +0.000 C 
ATOM     13  N   UNL     1       5.177   4.580  15.657  0.00  0.00    +0.000 N 
ATOM     14  C   UNL     1       5.505   4.775  16.982  0.00  0.00    +0.000 C 
ATOM     15  O   UNL     1       6.631   4.489  17.388  0.00  0.00    +0.000 OA
ATOM     16  H   UNL     1       4.198   4.566  15.384  0.00  0.00    +0.000 HD
ENDBRANCH   1  14
BRANCH   7  17
ATOM     17  N   UNL     1      -0.231  10.898  19.418  0.00  0.00    +0.000 N 
ATOM     18  C   UNL     1      -0.884  11.984  18.891  0.00  0.00    +0.000 C 
ATOM     19  O   UNL     1      -0.289  12.951  18.420  0.00  0.00    +0.000 OA
ATOM     20  H   UNL     1      -0.780  10.236  19.956  0.00  0.00    +0.000 HD
BRANCH  18  21
ATOM     21  C   UNL     1      -2.329  11.906  18.896  0.00  0.00    +0.000 A 
ATOM     22  N   UNL     1      -3.092  12.698  19.737  0.00  0.00    +0.000 N 
ATOM     23  C   UNL     1      -4.433  12.499  19.506  0.00  0.00    +0.000 A 
ATOM     24  C   UNL     1      -5.498  13.247  20.222  0.00  0.00    +0.000 C 
ATOM     25  C   UNL     1      -4.537  11.533  18.526  0.00  0.00    +0.000 A 
ATOM     26 CL   UNL     1      -5.983  10.922  17.868  0.00  0.00    +0.000 Cl
ATOM     27  C   UNL     1      -3.224  11.156  18.149  0.00  0.00    +0.000 A 
ATOM     28 CL   UNL     1      -2.872   9.988  16.951  0.00  0.00    +0.000 Cl
ATOM     29  H   UNL     1      -2.691  13.353  20.401  0.00  0.00    +0.000 HD
ENDBRANCH  18  21
ENDBRANCH   7  17
BRANCH   8  30
ATOM     30  O   UNL     1       0.956  10.083  21.868  0.00  0.00    +0.000 OA
ATOM     31  C   UNL     1       0.112   9.022  22.308  0.00  0.00    +0.000 C 
ENDBRANCH   8  30
BRANCH  11  32
ATOM     32  C   UNL     1       3.935   3.658  19.644  0.00  0.00    +0.000 C 
ATOM     33  O   UNL     1       3.035   3.054  20.207  0.00  0.00    +0.000 OA
BRANCH  32  34
ATOM     34  OXT UNL     1       5.215   3.205  19.627  0.00  0.00    +0.000 OA
ATOM     35  HXT UNL     1       5.417   2.907  18.711  0.00  0.00    +0.000 HD
ENDBRANCH  32  34
ENDBRANCH  11  32
TORSDOF 6
ENDMDL
MODEL 2
REMARK VINA RESULT:      -7.8      1.081      1.208
REMARK  Name = 
REMARK  9 active torsions:
REMARK  status: ('A' for Active; 'I' for Inactive)
REMARK    1  A    between atoms: C_1  and  N_2
REMARK    2  A    between atoms: C_3  and  C_5
REMARK    3  A    between atoms: C_11  and  N_12
REMARK    4  A    between atoms: C_13  and  C_15
REMARK    5  A    between atoms: C_17  and  C_18
REMARK    6  A    between atoms: C_23  and  O_24
REMARK    7  A    between atoms: O_24  and  C_25
REMARK    8  A    between atoms: CA_28  and  C_29
REMARK    9  A    between atoms: C_29  and  OXT_31
REMARK                            x       y       z     vdW  Elec       q    Type
REMARK                         _______ _______ _______ _____ _____    ______ ____
ROOT
ATOM      1  C   UNL     1       4.048   5.874  18.245  0.00  0.00    +0.000 A 
ATOM      2  S   UNL     1       3.497   7.449  17.841  0.00  0.00    +0.000 S 
ATOM      3  C   UNL     1       2.333   7.436  19.120  0.00  0.00    +0.000 A 
ATOM      4  N   UNL     1       1.501   8.494  19.336  0.00  0.00    +0.000 N 
ATOM      5  C   UNL     1       1.012   9.336  18.248  0.00  0.00    +0.000 C 
ATOM      6  C   UNL     1       1.335  10.787  18.572  0.00  0.00    +0.000 C 
ATOM      7  C   UNL     1       0.698  11.212  19.898  0.00  0.00    +0.000 C 
ATOM      8  C   UNL     1       1.106  10.235  21.042  0.00  0.00    +0.000 C 
ATOM      9  C   UNL     1       0.884   8.749  20.637  0.00  0.00    +0.000 C 
ATOM     10  N   UNL     1       2.386   6.347  19.858  0.00  0.00    +0.000 NA
ATOM     11  CA  UNL     1       3.335   5.430  19.347  0.00  0.00    +0.000 A 
ENDROOT
BRANCH   1  14
ATOM     12  C   UNL     1       7.427   4.558  17.247  0.00  0.00    +0.000 C 
ATOM     13  N   UNL     1       6.322   5.097  17.997  0.00  0.00    +0.000 N 
ATOM     14  C   UNL     1       5.092   5.304  17.408  0.00  0.00    +0.000 C 
ATOM     15  O   UNL     1       4.905   4.975  16.238  0.00  0.00    +0.000 OA
ATOM     16  H   UNL     1       6.553   5.594  18.853  0.00  0.00    +0.000 HD
ENDBRANCH   1  14
BRANCH   7  17
ATOM     17  N   UNL     1      -0.759  11.338  19.795  0.00  0.00    +0.000 N 
ATOM     18  C   UNL     1      -1.407  12.285  19.043  0.00  0.00    +0.000 C 
ATOM     19  O   UNL     1      -0.809  13.123  18.372  0.00  0.00    +0.000 OA
ATOM     20  H   UNL     1      -1.310  10.812  20.465  0.00  0.00    +0.000 HD
BRANCH  18  21
ATOM     21  C   UNL     1      -2.853  12.216  19.065  0.00  0.00    +0.000 A 
ATOM     22  N   UNL     1      -3.603  13.032  19.895  0.00  0.00    +0.000 N 
ATOM     23  C   UNL     1      -4.947  12.835  19.682  0.00  0.00    +0.000 A 
ATOM     24  C   UNL     1      -6.001  13.605  20.392  0.00  0.00    +0.000 C 
ATOM     25  C   UNL     1      -5.067  11.847  18.726  0.00  0.00    +0.000 A 
ATOM     26 CL   UNL     1      -6.523  11.229  18.097  0.00  0.00    +0.000 Cl
ATOM     27  C   UNL     1      -3.760  11.453  18.344  0.00  0.00    +0.000 A 
ATOM     28 CL   UNL     1      -3.427  10.256  17.171  0.00  0.00    +0.000 Cl
ATOM     29  H   UNL     1      -3.192  13.699  20.539  0.00  0.00    +0.000 HD
ENDBRANCH  18  21
ENDBRANCH   7  17
BRANCH   8  30
ATOM     30  O   UNL     1       0.385  10.506  22.260  0.00  0.00    +0.000 OA
ATOM     31  C   UNL     1      -0.229   9.349  22.822  0.00  0.00    +0.000 C 
ENDBRANCH   8  30
BRANCH  11  32
ATOM     32  C   UNL     1       3.478   4.139  20.022  0.00  0.00    +0.000 C 
ATOM     33  O   UNL     1       4.313   3.290  19.753  0.00  0.00    +0.000 OA
BRANCH  32  34
ATOM     34  OXT UNL     1       2.537   3.953  20.984  0.00  0.00    +0.000 OA
ATOM     35  HXT UNL     1       2.612   3.024  21.303  0.00  0.00    +0.000 HD
ENDBRANCH  32  34
ENDBRANCH  11  32
TORSDOF 6
ENDMDL
MODEL 3
REMARK VINA RESULT:      -7.8      2.057      2.351
REMARK  Name = 
REMARK  9 active torsions:
REMARK  status: ('A' for Active; 'I' for Inactive)
REMARK    1  A    between atoms: C_1  and  N_2
REMARK    2  A    between atoms: C_3  and  C_5
REMARK    3  A    between atoms: C_11  and  N_12
REMARK    4  A    between atoms: C_13  and  C_15
REMARK    5  A    between atoms: C_17  and  C_18
REMARK    6  A    between atoms: C_23  and  O_24
REMARK    7  A    between atoms: O_24  and  C_25
REMARK    8  A    between atoms: CA_28  and  C_29
REMARK    9  A    between atoms: C_29  and  OXT_31
REMARK                            x       y       z     vdW  Elec       q    Type
REMARK                         _______ _______ _______ _____ _____    ______ ____
ROOT
ATOM      1  C   UNL     1       3.618   6.627  18.183  0.00  0.00    +0.000 A 
ATOM      2  S   UNL     1       2.941   8.162  17.819  0.00  0.00    +0.000 S 
ATOM      3  C   UNL     1       1.887   8.089  19.187  0.00  0.00    +0.000 A 
ATOM      4  N   UNL     1       1.011   9.096  19.467  0.00  0.00    +0.000 N 
ATOM      5  C   UNL     1       0.386   9.897  18.418  0.00  0.00    +0.000 C 
ATOM      6  C   UNL     1       0.644  11.369  18.709  0.00  0.00    +0.000 C 
ATOM      7  C   UNL     1       0.091  11.766  20.081  0.00  0.00    +0.000 C 
ATOM      8  C   UNL     1       0.650  10.825  21.192  0.00  0.00    +0.000 C 
ATOM      9  C   UNL     1       0.487   9.325  20.812  0.00  0.00    +0.000 C 
ATOM     10  N   UNL     1       2.066   7.012  19.923  0.00  0.00    +0.000 NA
ATOM     11  CA  UNL     1       3.025   6.151  19.341  0.00  0.00    +0.000 A 
ENDROOT
BRANCH   1  14
ATOM     12  C   UNL     1       5.335   4.270  15.807  0.00  0.00    +0.000 C 
ATOM     13  N   UNL     1       4.389   4.875  16.709  0.00  0.00    +0.000 N 
ATOM     14  C   UNL     1       4.624   6.114  17.266  0.00  0.00    +0.000 C 
ATOM     15  O   UNL     1       5.628   6.751  16.952  0.00  0.00    +0.000 OA
ATOM     16  H   UNL     1       3.719   4.250  17.151  0.00  0.00    +0.000 HD
ENDBRANCH   1  14
BRANCH   7  17
ATOM     17  N   UNL     1      -1.374  11.802  20.096  0.00  0.00    +0.000 N 
ATOM     18  C   UNL     1      -2.123  12.921  20.358  0.00  0.00    +0.000 C 
ATOM     19  O   UNL     1      -1.619  14.015  20.602  0.00  0.00    +0.000 OA
ATOM     20  H   UNL     1      -1.851  10.906  20.096  0.00  0.00    +0.000 HD
BRANCH  18  21
ATOM     21  C   UNL     1      -3.558  12.739  20.299  0.00  0.00    +0.000 A 
ATOM     22  N   UNL     1      -4.212  12.534  19.096  0.00  0.00    +0.000 N 
ATOM     23  C   UNL     1      -5.553  12.312  19.304  0.00  0.00    +0.000 A 
ATOM     24  C   UNL     1      -6.505  12.012  18.205  0.00  0.00    +0.000 C 
ATOM     25  C   UNL     1      -5.775  12.416  20.663  0.00  0.00    +0.000 A 
ATOM     26 CL   UNL     1      -7.270  12.222  21.453  0.00  0.00    +0.000 Cl
ATOM     27  C   UNL     1      -4.532  12.689  21.285  0.00  0.00    +0.000 A 
ATOM     28 CL   UNL     1      -4.330  12.887  22.972  0.00  0.00    +0.000 Cl
ATOM     29  H   UNL     1      -3.736  12.520  18.200  0.00  0.00    +0.000 HD
ENDBRANCH  18  21
ENDBRANCH   7  17
BRANCH   8  30
ATOM     30  O   UNL     1       0.014  11.064  22.463  0.00  0.00    +0.000 OA
ATOM     31  C   UNL     1      -0.405   9.868  23.117  0.00  0.00    +0.000 C 
ENDBRANCH   8  30
BRANCH  11  32
ATOM     32  C   UNL     1       3.301   4.877  20.007  0.00  0.00    +0.000 C 
ATOM     33  O   UNL     1       4.010   3.987  19.564  0.00  0.00    +0.000 OA
BRANCH  32  34
ATOM     34  OXT UNL     1       2.642   4.760  21.189  0.00  0.00    +0.000 OA
ATOM     35  HXT UNL     1       2.522   3.800  21.373  0.00  0.00    +0.000 HD
ENDBRANCH  32  34
ENDBRANCH  11  32
TORSDOF 6
ENDMDL
MODEL 4
REMARK VINA RESULT:      -7.7      1.327      1.527
REMARK  Name = 
REMARK  9 active torsions:
REMARK  status: ('A' for Active; 'I' for Inactive)
REMARK    1  A    between atoms: C_1  and  N_2
REMARK    2  A    between atoms: C_3  and  C_5
REMARK    3  A    between atoms: C_11  and  N_12
REMARK    4  A    between atoms: C_13  and  C_15
REMARK    5  A    between atoms: C_17  and  C_18
REMARK    6  A    between atoms: C_23  and  O_24
REMARK    7  A    between atoms: O_24  and  C_25
REMARK    8  A    between atoms: CA_28  and  C_29
REMARK    9  A    between atoms: C_29  and  OXT_31
REMARK                            x       y       z     vdW  Elec       q    Type
REMARK                         _______ _______ _______ _____ _____    ______ ____
ROOT
ATOM      1  C   UNL     1       3.949   6.527  17.873  0.00  0.00    +0.000 A 
ATOM      2  S   UNL     1       3.242   8.059  17.561  0.00  0.00    +0.000 S 
ATOM      3  C   UNL     1       2.208   7.931  18.940  0.00  0.00    +0.000 A 
ATOM      4  N   UNL     1       1.320   8.916  19.259  0.00  0.00    +0.000 N 
ATOM      5  C   UNL     1       0.667   9.734  18.242  0.00  0.00    +0.000 C 
ATOM      6  C   UNL     1       0.905  11.201  18.569  0.00  0.00    +0.000 C 
ATOM      7  C   UNL     1       0.364  11.552  19.959  0.00  0.00    +0.000 C 
ATOM      8  C   UNL     1       0.954  10.590  21.036  0.00  0.00    +0.000 C 
ATOM      9  C   UNL     1       0.810   9.099  20.617  0.00  0.00    +0.000 C 
ATOM     10  N   UNL     1       2.415   6.838  19.644  0.00  0.00    +0.000 NA
ATOM     11  CA  UNL     1       3.380   6.009  19.025  0.00  0.00    +0.000 A 
ENDROOT
BRANCH   1  14
ATOM     12  C   UNL     1       5.750   4.208  15.522  0.00  0.00    +0.000 C 
ATOM     13  N   UNL     1       4.799   4.774  16.444  0.00  0.00    +0.000 N 
ATOM     14  C   UNL     1       4.951   6.056  16.929  0.00  0.00    +0.000 C 
ATOM     15  O   UNL     1       5.878   6.760  16.533  0.00  0.00    +0.000 OA
ATOM     16  H   UNL     1       4.210   4.118  16.949  0.00  0.00    +0.000 HD
ENDBRANCH   1  14
BRANCH   7  17
ATOM     17  N   UNL     1      -1.101  11.562  19.994  0.00  0.00    +0.000 N 
ATOM     18  C   UNL     1      -1.872  12.698  19.983  0.00  0.00    +0.000 C 
ATOM     19  O   UNL     1      -1.389  13.827  19.936  0.00  0.00    +0.000 OA
ATOM     20  H   UNL     1      -1.557  10.687  20.228  0.00  0.00    +0.000 HD
BRANCH  18  21
ATOM     21  C   UNL     1      -3.303  12.479  20.001  0.00  0.00    +0.000 A 
ATOM     22  N   UNL     1      -4.064  12.771  21.120  0.00  0.00    +0.000 N 
ATOM     23  C   UNL     1      -5.398  12.551  20.869  0.00  0.00    +0.000 A 
ATOM     24  C   UNL     1      -6.466  12.823  21.865  0.00  0.00    +0.000 C 
ATOM     25  C   UNL     1      -5.495  12.072  19.578  0.00  0.00    +0.000 A 
ATOM     26 CL   UNL     1      -6.931  11.647  18.770  0.00  0.00    +0.000 Cl
ATOM     27  C   UNL     1      -4.187  12.020  19.036  0.00  0.00    +0.000 A 
ATOM     28 CL   UNL     1      -3.829  11.495  17.449  0.00  0.00    +0.000 Cl
ATOM     29  H   UNL     1      -3.670  13.128  21.984  0.00  0.00    +0.000 HD
ENDBRANCH  18  21
ENDBRANCH   7  17
BRANCH   8  30
ATOM     30  O   UNL     1       0.332  10.783  22.322  0.00  0.00    +0.000 OA
ATOM     31  C   UNL     1      -0.097   9.566  22.929  0.00  0.00    +0.000 C 
ENDBRANCH   8  30
BRANCH  11  32
ATOM     32  C   UNL     1       3.686   4.722  19.653  0.00  0.00    +0.000 C 
ATOM     33  O   UNL     1       4.637   4.009  19.374  0.00  0.00    +0.000 OA
BRANCH  32  34
ATOM     34  OXT UNL     1       2.759   4.367  20.580  0.00  0.00    +0.000 OA
ATOM     35  HXT UNL     1       1.871   4.589  20.218  0.00  0.00    +0.000 HD
ENDBRANCH  32  34
ENDBRANCH  11  32
TORSDOF 6
ENDMDL
MODEL 5
REMARK VINA RESULT:      -7.6      1.805      2.001
REMARK  Name = 
REMARK  9 active torsions:
REMARK  status: ('A' for Active; 'I' for Inactive)
REMARK    1  A    between atoms: C_1  and  N_2
REMARK    2  A    between atoms: C_3  and  C_5
REMARK    3  A    between atoms: C_11  and  N_12
REMARK    4  A    between atoms: C_13  and  C_15
REMARK    5  A    between atoms: C_17  and  C_18
REMARK    6  A    between atoms: C_23  and  O_24
REMARK    7  A    between atoms: O_24  and  C_25
REMARK    8  A    between atoms: CA_28  and  C_29
REMARK    9  A    between atoms: C_29  and  OXT_31
REMARK                            x       y       z     vdW  Elec       q    Type
REMARK                         _______ _______ _______ _____ _____    ______ ____
ROOT
ATOM      1  C   UNL     1       3.956   6.094  18.118  0.00  0.00    +0.000 A 
ATOM      2  S   UNL     1       3.402   7.685  17.792  0.00  0.00    +0.000 S 
ATOM      3  C   UNL     1       2.263   7.621  19.091  0.00  0.00    +0.000 A 
ATOM      4  N   UNL     1       1.438   8.670  19.368  0.00  0.00    +0.000 N 
ATOM      5  C   UNL     1       0.931   9.558  18.326  0.00  0.00    +0.000 C 
ATOM      6  C   UNL     1       1.264  10.994  18.705  0.00  0.00    +0.000 C 
ATOM      7  C   UNL     1       0.654  11.364  20.060  0.00  0.00    +0.000 C 
ATOM      8  C   UNL     1       1.081  10.338  21.154  0.00  0.00    +0.000 C 
ATOM      9  C   UNL     1       0.846   8.871  20.690  0.00  0.00    +0.000 C 
ATOM     10  N   UNL     1       2.327   6.501  19.781  0.00  0.00    +0.000 NA
ATOM     11  CA  UNL     1       3.263   5.605  19.214  0.00  0.00    +0.000 A 
ENDROOT
BRANCH   1  14
ATOM     12  C   UNL     1       7.282   4.720  17.023  0.00  0.00    +0.000 C 
ATOM     13  N   UNL     1       6.194   5.236  17.813  0.00  0.00    +0.000 N 
ATOM     14  C   UNL     1       4.982   5.558  17.238  0.00  0.00    +0.000 C 
ATOM     15  O   UNL     1       4.794   5.352  16.040  0.00  0.00    +0.000 OA
ATOM     16  H   UNL     1       6.438   5.637  18.716  0.00  0.00    +0.000 HD
ENDBRANCH   1  14
BRANCH   7  17
ATOM     17  N   UNL     1      -0.804  11.497  19.990  0.00  0.00    +0.000 N 
ATOM     18  C   UNL     1      -1.487  12.679  20.136  0.00  0.00    +0.000 C 
ATOM     19  O   UNL     1      -0.921  13.751  20.337  0.00  0.00    +0.000 OA
ATOM     20  H   UNL     1      -1.342  10.637  20.021  0.00  0.00    +0.000 HD
BRANCH  18  21
ATOM     21  C   UNL     1      -2.926  12.587  20.009  0.00  0.00    +0.000 A 
ATOM     22  N   UNL     1      -3.525  12.261  18.804  0.00  0.00    +0.000 N 
ATOM     23  C   UNL     1      -4.888  12.162  18.952  0.00  0.00    +0.000 A 
ATOM     24  C   UNL     1      -5.798  11.776  17.843  0.00  0.00    +0.000 C 
ATOM     25  C   UNL     1      -5.178  12.469  20.266  0.00  0.00    +0.000 A 
ATOM     26 CL   UNL     1      -6.724  12.489  20.976  0.00  0.00    +0.000 Cl
ATOM     27  C   UNL     1      -3.954  12.742  20.927  0.00  0.00    +0.000 A 
ATOM     28 CL   UNL     1      -3.831  13.159  22.580  0.00  0.00    +0.000 Cl
ATOM     29  H   UNL     1      -3.003  12.090  17.951  0.00  0.00    +0.000 HD
ENDBRANCH  18  21
ENDBRANCH   7  17
BRANCH   8  30
ATOM     30  O   UNL     1       0.384  10.559  22.395  0.00  0.00    +0.000 OA
ATOM     31  C   UNL     1       0.012   9.352  23.056  0.00  0.00    +0.000 C 
ENDBRANCH   8  30
BRANCH  11  32
ATOM     32  C   UNL     1       3.415   4.286  19.831  0.00  0.00    +0.000 C 
ATOM     33  O   UNL     1       2.532   3.670  20.407  0.00  0.00    +0.000 OA
BRANCH  32  34
ATOM     34  OXT UNL     1       4.684   3.814  19.731  0.00  0.00    +0.000 OA
ATOM     35  HXT UNL     1       5.295   4.586  19.753  0.00  0.00    +0.000 HD
ENDBRANCH  32  34
ENDBRANCH  11  32
TORSDOF 6
ENDMDL
MODEL 6
REMARK VINA RESULT:      -7.3      1.722      2.083
REMARK  Name = 
REMARK  9 active torsions:
REMARK  status: ('A' for Active; 'I' for Inactive)
REMARK    1  A    between atoms: C_1  and  N_2
REMARK    2  A    between atoms: C_3  and  C_5
REMARK    3  A    between atoms: C_11  and  N_12
REMARK    4  A    between atoms: C_13  and  C_15
REMARK    5  A    between atoms: C_17  and  C_18
REMARK    6  A    between atoms: C_23  and  O_24
REMARK    7  A    between atoms: O_24  and  C_25
REMARK    8  A    between atoms: CA_28  and  C_29
REMARK    9  A    between atoms: C_29  and  OXT_31
REMARK                            x       y       z     vdW  Elec       q    Type
REMARK                         _______ _______ _______ _____ _____    ______ ____
ROOT
ATOM      1  C   UNL     1       3.683   5.287  18.993  0.00  0.00    +0.000 A 
ATOM      2  S   UNL     1       3.317   6.898  18.529  0.00  0.00    +0.000 S 
ATOM      3  C   UNL     1       2.100   7.038  19.748  0.00  0.00    +0.000 A 
ATOM      4  N   UNL     1       1.372   8.181  19.901  0.00  0.00    +0.000 N 
ATOM      5  C   UNL     1       1.024   9.039  18.772  0.00  0.00    +0.000 C 
ATOM      6  C   UNL     1       1.480  10.458  19.079  0.00  0.00    +0.000 C 
ATOM      7  C   UNL     1       0.828  10.981  20.363  0.00  0.00    +0.000 C 
ATOM      8  C   UNL     1       1.080   9.998  21.547  0.00  0.00    +0.000 C 
ATOM      9  C   UNL     1       0.725   8.532  21.164  0.00  0.00    +0.000 C 
ATOM     10  N   UNL     1       2.006   5.969  20.512  0.00  0.00    +0.000 NA
ATOM     11  CA  UNL     1       2.878   4.948  20.068  0.00  0.00    +0.000 A 
ENDROOT
BRANCH   1  14
ATOM     12  C   UNL     1       5.460   3.851  16.005  0.00  0.00    +0.000 C 
ATOM     13  N   UNL     1       4.520   4.536  16.855  0.00  0.00    +0.000 N 
ATOM     14  C   UNL     1       4.701   4.592  18.221  0.00  0.00    +0.000 C 
ATOM     15  O   UNL     1       5.707   4.101  18.731  0.00  0.00    +0.000 OA
ATOM     16  H   UNL     1       3.594   4.700  16.469  0.00  0.00    +0.000 HD
ENDBRANCH   1  14
BRANCH   7  17
ATOM     17  N   UNL     1      -0.601  11.252  20.186  0.00  0.00    +0.000 N 
ATOM     18  C   UNL     1      -1.179  12.491  20.300  0.00  0.00    +0.000 C 
ATOM     19  O   UNL     1      -0.533  13.504  20.560  0.00  0.00    +0.000 OA
ATOM     20  H   UNL     1      -1.218  10.446  20.162  0.00  0.00    +0.000 HD
BRANCH  18  21
ATOM     21  C   UNL     1      -2.606  12.537  20.063  0.00  0.00    +0.000 A 
ATOM     22  N   UNL     1      -3.149  12.160  18.846  0.00  0.00    +0.000 N 
ATOM     23  C   UNL     1      -4.522  12.218  18.890  0.00  0.00    +0.000 A 
ATOM     24  C   UNL     1      -5.386  11.823  17.748  0.00  0.00    +0.000 C 
ATOM     25  C   UNL     1      -4.870  12.678  20.144  0.00  0.00    +0.000 A 
ATOM     26 CL   UNL     1      -6.453  12.926  20.719  0.00  0.00    +0.000 Cl
ATOM     27  C   UNL     1      -3.675  12.885  20.876  0.00  0.00    +0.000 A 
ATOM     28 CL   UNL     1      -3.627  13.444  22.491  0.00  0.00    +0.000 Cl
ATOM     29  H   UNL     1      -2.589  11.855  18.058  0.00  0.00    +0.000 HD
ENDBRANCH  18  21
ENDBRANCH   7  17
BRANCH   8  30
ATOM     30  O   UNL     1       0.335  10.374  22.722  0.00  0.00    +0.000 OA
ATOM     31  C   UNL     1      -0.546   9.352  23.182  0.00  0.00    +0.000 C 
ENDBRANCH   8  30
BRANCH  11  32
ATOM     32  C   UNL     1       2.855   3.667  20.778  0.00  0.00    +0.000 C 
ATOM     33  O   UNL     1       3.257   2.605  20.330  0.00  0.00    +0.000 OA
BRANCH  32  34
ATOM     34  OXT UNL     1       2.291   3.770  22.009  0.00  0.00    +0.000 OA
ATOM     35  HXT UNL     1       1.319   3.654  21.905  0.00  0.00    +0.000 HD
ENDBRANCH  32  34
ENDBRANCH  11  32
TORSDOF 6
ENDMDL
MODEL 7
REMARK VINA RESULT:      -7.1      1.265      1.590
REMARK  Name = 
REMARK  9 active torsions:
REMARK  status: ('A' for Active; 'I' for Inactive)
REMARK    1  A    between atoms: C_1  and  N_2
REMARK    2  A    between atoms: C_3  and  C_5
REMARK    3  A    between atoms: C_11  and  N_12
REMARK    4  A    between atoms: C_13  and  C_15
REMARK    5  A    between atoms: C_17  and  C_18
REMARK    6  A    between atoms: C_23  and  O_24
REMARK    7  A    between atoms: O_24  and  C_25
REMARK    8  A    between atoms: CA_28  and  C_29
REMARK    9  A    between atoms: C_29  and  OXT_31
REMARK                            x       y       z     vdW  Elec       q    Type
REMARK                         _______ _______ _______ _____ _____    ______ ____
ROOT
ATOM      1  C   UNL     1       4.689   5.364  17.683  0.00  0.00    +0.000 A 
ATOM      2  S   UNL     1       4.263   7.016  17.502  0.00  0.00    +0.000 S 
ATOM      3  C   UNL     1       2.860   6.826  18.494  0.00  0.00    +0.000 A 
ATOM      4  N   UNL     1       2.020   7.869  18.749  0.00  0.00    +0.000 N 
ATOM      5  C   UNL     1       1.782   8.932  17.777  0.00  0.00    +0.000 C 
ATOM      6  C   UNL     1       2.058  10.273  18.443  0.00  0.00    +0.000 C 
ATOM      7  C   UNL     1       1.168  10.471  19.674  0.00  0.00    +0.000 C 
ATOM      8  C   UNL     1       1.313   9.269  20.656  0.00  0.00    +0.000 C 
ATOM      9  C   UNL     1       1.152   7.905  19.925  0.00  0.00    +0.000 C 
ATOM     10  N   UNL     1       2.740   5.614  18.994  0.00  0.00    +0.000 NA
ATOM     11  CA  UNL     1       3.756   4.759  18.509  0.00  0.00    +0.000 A 
ENDROOT
BRANCH   1  14
ATOM     12  C   UNL     1       7.021   4.672  14.813  0.00  0.00    +0.000 C 
ATOM     13  N   UNL     1       5.903   5.109  15.609  0.00  0.00    +0.000 N 
ATOM     14  C   UNL     1       5.874   4.905  16.973  0.00  0.00    +0.000 C 
ATOM     15  O   UNL     1       6.836   4.393  17.541  0.00  0.00    +0.000 OA
ATOM     16  H   UNL     1       5.033   5.283  15.113  0.00  0.00    +0.000 HD
ENDBRANCH   1  14
BRANCH   7  17
ATOM     17  N   UNL     1      -0.234  10.700  19.310  0.00  0.00    +0.000 N 
ATOM     18  C   UNL     1      -0.938  11.840  19.604  0.00  0.00    +0.000 C 
ATOM     19  O   UNL     1      -0.442  12.791  20.204  0.00  0.00    +0.000 OA
ATOM     20  H   UNL     1      -0.758   9.892  18.989  0.00  0.00    +0.000 HD
BRANCH  18  21
ATOM     21  C   UNL     1      -2.306  11.866  19.131  0.00  0.00    +0.000 A 
ATOM     22  N   UNL     1      -2.634  11.474  17.844  0.00  0.00    +0.000 N 
ATOM     23  C   UNL     1      -3.996  11.514  17.657  0.00  0.00    +0.000 A 
ATOM     24  C   UNL     1      -4.652  11.101  16.391  0.00  0.00    +0.000 C 
ATOM     25  C   UNL     1      -4.554  11.978  18.832  0.00  0.00    +0.000 A 
ATOM     26 CL   UNL     1      -6.212  12.210  19.132  0.00  0.00    +0.000 Cl
ATOM     27  C   UNL     1      -3.500  12.205  19.751  0.00  0.00    +0.000 A 
ATOM     28 CL   UNL     1      -3.729  12.776  21.347  0.00  0.00    +0.000 Cl
ATOM     29  H   UNL     1      -1.947  11.171  17.163  0.00  0.00    +0.000 HD
ENDBRANCH  18  21
ENDBRANCH   7  17
BRANCH   8  30
ATOM     30  O   UNL     1       0.361   9.343  21.735  0.00  0.00    +0.000 OA
ATOM     31  C   UNL     1       0.971   9.471  23.018  0.00  0.00    +0.000 C 
ENDBRANCH   8  30
BRANCH  11  32
ATOM     32  C   UNL     1       3.733   3.355  18.926  0.00  0.00    +0.000 C 
ATOM     33  O   UNL     1       2.753   2.627  18.900  0.00  0.00    +0.000 OA
BRANCH  32  34
ATOM     34  OXT UNL     1       4.937   2.937  19.395  0.00  0.00    +0.000 OA
ATOM     35  HXT UNL     1       5.548   3.710  19.389  0.00  0.00    +0.000 HD
ENDBRANCH  32  34
ENDBRANCH  11  32
TORSDOF 6
ENDMDL
MODEL 8
REMARK VINA RESULT:      -7.0      1.989      2.194
REMARK  Name = 
REMARK  9 active torsions:
REMARK  status: ('A' for Active; 'I' for Inactive)
REMARK    1  A    between atoms: C_1  and  N_2
REMARK    2  A    between atoms: C_3  and  C_5
REMARK    3  A    between atoms: C_11  and  N_12
REMARK    4  A    between atoms: C_13  and  C_15
REMARK    5  A    between atoms: C_17  and  C_18
REMARK    6  A    between atoms: C_23  and  O_24
REMARK    7  A    between atoms: O_24  and  C_25
REMARK    8  A    between atoms: CA_28  and  C_29
REMARK    9  A    between atoms: C_29  and  OXT_31
REMARK                            x       y       z     vdW  Elec       q    Type
REMARK                         _______ _______ _______ _____ _____    ______ ____
ROOT
ATOM      1  C   UNL     1       3.519   5.550  18.284  0.00  0.00    +0.000 A 
ATOM      2  S   UNL     1       3.118   7.200  18.034  0.00  0.00    +0.000 S 
ATOM      3  C   UNL     1       2.047   7.209  19.390  0.00  0.00    +0.000 A 
ATOM      4  N   UNL     1       1.351   8.328  19.741  0.00  0.00    +0.000 N 
ATOM      5  C   UNL     1       0.887   9.298  18.754  0.00  0.00    +0.000 C 
ATOM      6  C   UNL     1       1.387  10.679  19.154  0.00  0.00    +0.000 C 
ATOM      7  C   UNL     1       0.888  11.064  20.550  0.00  0.00    +0.000 C 
ATOM      8  C   UNL     1       1.262   9.963  21.590  0.00  0.00    +0.000 C 
ATOM      9  C   UNL     1       0.852   8.545  21.099  0.00  0.00    +0.000 C 
ATOM     10  N   UNL     1       2.029   6.067  20.044  0.00  0.00    +0.000 NA
ATOM     11  CA  UNL     1       2.836   5.099  19.402  0.00  0.00    +0.000 A 
ENDROOT
BRANCH   1  14
ATOM     12  C   UNL     1       5.822   5.237  15.327  0.00  0.00    +0.000 C 
ATOM     13  N   UNL     1       4.925   5.750  16.330  0.00  0.00    +0.000 N 
ATOM     14  C   UNL     1       4.437   4.941  17.335  0.00  0.00    +0.000 C 
ATOM     15  O   UNL     1       4.811   3.773  17.422  0.00  0.00    +0.000 OA
ATOM     16  H   UNL     1       4.433   6.611  16.101  0.00  0.00    +0.000 HD
ENDBRANCH   1  14
BRANCH   7  17
ATOM     17  N   UNL     1      -0.549  11.348  20.563  0.00  0.00    +0.000 N 
ATOM     18  C   UNL     1      -1.114  12.486  21.082  0.00  0.00    +0.000 C 
ATOM     19  O   UNL     1      -0.446  13.388  21.584  0.00  0.00    +0.000 OA
ATOM     20  H   UNL     1      -1.168  10.574  20.346  0.00  0.00    +0.000 HD
BRANCH  18  21
ATOM     21  C   UNL     1      -2.554  12.574  20.971  0.00  0.00    +0.000 A 
ATOM     22  N   UNL     1      -3.183  12.620  19.739  0.00  0.00    +0.000 N 
ATOM     23  C   UNL     1      -4.550  12.624  19.892  0.00  0.00    +0.000 A 
ATOM     24  C   UNL     1      -5.493  12.620  18.745  0.00  0.00    +0.000 C 
ATOM     25  C   UNL     1      -4.807  12.620  21.248  0.00  0.00    +0.000 A 
ATOM     26 CL   UNL     1      -6.344  12.617  21.978  0.00  0.00    +0.000 Cl
ATOM     27  C   UNL     1      -3.562  12.596  21.924  0.00  0.00    +0.000 A 
ATOM     28 CL   UNL     1      -3.398  12.572  23.626  0.00  0.00    +0.000 Cl
ATOM     29  H   UNL     1      -2.681  12.617  18.857  0.00  0.00    +0.000 HD
ENDBRANCH  18  21
ENDBRANCH   7  17
BRANCH   8  30
ATOM     30  O   UNL     1       0.657  10.213  22.873  0.00  0.00    +0.000 OA
ATOM     31  C   UNL     1      -0.449   9.356  23.152  0.00  0.00    +0.000 C 
ENDBRANCH   8  30
BRANCH  11  32
ATOM     32  C   UNL     1       2.881   3.751  19.973  0.00  0.00    +0.000 C 
ATOM     33  O   UNL     1       1.908   3.052  20.209  0.00  0.00    +0.000 OA
BRANCH  32  34
ATOM     34  OXT UNL     1       4.148   3.354  20.258  0.00  0.00    +0.000 OA
ATOM     35  HXT UNL     1       4.654   3.334  19.414  0.00  0.00    +0.000 HD
ENDBRANCH  32  34
ENDBRANCH  11  32
TORSDOF 6
ENDMDL
MODEL 9
REMARK VINA RESULT:      -7.0      3.468      4.594
REMARK  Name = 
REMARK  9 active torsions:
REMARK  status: ('A' for Active; 'I' for Inactive)
REMARK    1  A    between atoms: C_1  and  N_2
REMARK    2  A    between atoms: C_3  and  C_5
REMARK    3  A    between atoms: C_11  and  N_12
REMARK    4  A    between atoms: C_13  and  C_15
REMARK    5  A    between atoms: C_17  and  C_18
REMARK    6  A    between atoms: C_23  and  O_24
REMARK    7  A    between atoms: O_24  and  C_25
REMARK    8  A    between atoms: CA_28  and  C_29
REMARK    9  A    between atoms: C_29  and  OXT_31
REMARK                            x       y       z     vdW  Elec       q    Type
REMARK                         _______ _______ _______ _____ _____    ______ ____
ROOT
ATOM      1  C   UNL     1       3.654   5.214  18.655  0.00  0.00    +0.000 A 
ATOM      2  S   UNL     1       2.532   5.846  19.788  0.00  0.00    +0.000 S 
ATOM      3  C   UNL     1       2.547   7.399  19.029  0.00  0.00    +0.000 A 
ATOM      4  N   UNL     1       1.801   8.435  19.509  0.00  0.00    +0.000 N 
ATOM      5  C   UNL     1       1.518   8.597  20.932  0.00  0.00    +0.000 C 
ATOM      6  C   UNL     1       0.012   8.716  21.119  0.00  0.00    +0.000 C 
ATOM      7  C   UNL     1      -0.551   9.900  20.328  0.00  0.00    +0.000 C 
ATOM      8  C   UNL     1      -0.136   9.806  18.828  0.00  0.00    +0.000 C 
ATOM      9  C   UNL     1       1.391   9.558  18.667  0.00  0.00    +0.000 C 
ATOM     10  N   UNL     1       3.296   7.440  17.947  0.00  0.00    +0.000 NA
ATOM     11  CA  UNL     1       3.963   6.210  17.743  0.00  0.00    +0.000 A 
ENDROOT
BRANCH   1  14
ATOM     12  C   UNL     1       3.549   1.457  18.504  0.00  0.00    +0.000 C 
ATOM     13  N   UNL     1       3.235   2.854  18.351  0.00  0.00    +0.000 N 
ATOM     14  C   UNL     1       4.074   3.833  18.840  0.00  0.00    +0.000 C 
ATOM     15  O   UNL     1       5.141   3.524  19.368  0.00  0.00    +0.000 OA
ATOM     16  H   UNL     1       2.263   3.082  18.159  0.00  0.00    +0.000 HD
ENDBRANCH   1  14
BRANCH   7  17
ATOM     17  N   UNL     1      -0.164  11.187  20.912  0.00  0.00    +0.000 N 
ATOM     18  C   UNL     1      -1.037  12.205  21.203  0.00  0.00    +0.000 C 
ATOM     19  O   UNL     1      -2.246  12.120  21.001  0.00  0.00    +0.000 OA
ATOM     20  H   UNL     1       0.828  11.401  20.924  0.00  0.00    +0.000 HD
BRANCH  18  21
ATOM     21  C   UNL     1      -0.444  13.385  21.797  0.00  0.00    +0.000 A 
ATOM     22  N   UNL     1       0.753  13.904  21.332  0.00  0.00    +0.000 N 
ATOM     23  C   UNL     1       1.071  15.062  22.001  0.00  0.00    +0.000 A 
ATOM     24  C   UNL     1       2.274  15.875  21.687  0.00  0.00    +0.000 C 
ATOM     25  C   UNL     1       0.083  15.272  22.942  0.00  0.00    +0.000 A 
ATOM     26 CL   UNL     1      -0.003  16.575  24.033  0.00  0.00    +0.000 Cl
ATOM     27  C   UNL     1      -0.860  14.222  22.821  0.00  0.00    +0.000 A 
ATOM     28 CL   UNL     1      -2.265  14.083  23.786  0.00  0.00    +0.000 Cl
ATOM     29  H   UNL     1       1.284  13.486  20.576  0.00  0.00    +0.000 HD
ENDBRANCH  18  21
ENDBRANCH   7  17
BRANCH   8  30
ATOM     30  O   UNL     1      -0.502  10.993  18.097  0.00  0.00    +0.000 OA
ATOM     31  C   UNL     1      -1.846  10.969  17.619  0.00  0.00    +0.000 C 
ENDBRANCH   8  30
BRANCH  11  32
ATOM     32  C   UNL     1       4.883   6.105  16.608  0.00  0.00    +0.000 C 
ATOM     33  O   UNL     1       4.894   5.200  15.789  0.00  0.00    +0.000 OA
BRANCH  32  34
ATOM     34  OXT UNL     1       5.778   7.126  16.574  0.00  0.00    +0.000 OA
ATOM     35  HXT UNL     1       5.272   7.966  16.472  0.00  0.00    +0.000 HD
ENDBRANCH  32  34
ENDBRANCH  11  32
TORSDOF 6
ENDMDL
