MODEL 1
REMARK VINA RESULT:      -6.7      0.000      0.000
REMARK  Name = 
REMARK  6 active torsions:
REMARK  status: ('A' for Active; 'I' for Inactive)
REMARK    1  A    between atoms: C_1  and  C_2
REMARK    2  A    between atoms: C_2  and  C_3
REMARK    3  A    between atoms: C_2  and  C_4
REMARK    4  A    between atoms: C_2  and  C_5
REMARK    5  A    between atoms: C_6  and  C_7
REMARK    6  A    between atoms: C_15  and  N_16
REMARK                            x       y       z     vdW  Elec       q    Type
REMARK                         _______ _______ _______ _____ _____    ______ ____
ROOT
ATOM      1  C   UNL     1       4.887   4.389  17.494  0.00  0.00    +0.000 A 
ATOM      2  C   UNL     1       4.607   4.093  16.144  0.00  0.00    +0.000 A 
ATOM      3  C   UNL     1       5.634   4.377  15.216  0.00  0.00    +0.000 A 
ATOM      4  N   UNL     1       5.580   4.163  13.893  0.00  0.00    +0.000 NA
ATOM      5  S   UNL     1       7.049   4.643  13.280  0.00  0.00    +0.000 S 
ATOM      6  N   UNL     1       7.812   5.155  14.665  0.00  0.00    +0.000 NA
ATOM      7  C   UNL     1       6.942   4.962  15.668  0.00  0.00    +0.000 A 
ATOM      8  C   UNL     1       7.175   5.248  17.035  0.00  0.00    +0.000 A 
ATOM      9  C   UNL     1       6.116   4.988  17.933  0.00  0.00    +0.000 A 
ENDROOT
BRANCH   9  10
ATOM     10  N   UNL     1       6.397   5.129  19.314  0.00  0.00    +0.000 N 
ATOM     11  H   UNL     1       5.906   4.472  19.911  0.00  0.00    +0.000 HD
ATOM     12  H   UNL     1       7.390   5.178  19.525  0.00  0.00    +0.000 HD
ENDBRANCH   9  10
BRANCH   1  14
ATOM     13  C   UNL     1       2.905   3.763  19.283  0.00  0.00    +0.000 C 
ATOM     14  C   UNL     1       3.865   4.055  18.451  0.00  0.00    +0.000 C 
BRANCH  13  16
ATOM     15  C   UNL     1       0.780   2.500  19.550  0.00  0.00    +0.000 C 
ATOM     16  C   UNL     1       1.786   3.420  20.253  0.00  0.00    +0.000 C 
ATOM     17  C   UNL     1       1.092   4.715  20.693  0.00  0.00    +0.000 C 
ATOM     18  C   UNL     1       2.382   2.707  21.472  0.00  0.00    +0.000 C 
ENDBRANCH  13  16
ENDBRANCH   1  14
TORSDOF 3
ENDMDL
MODEL 2
REMARK VINA RESULT:      -6.6      0.019      1.088
REMARK  Name = 
REMARK  6 active torsions:
REMARK  status: ('A' for Active; 'I' for Inactive)
REMARK    1  A    between atoms: C_1  and  C_2
REMARK    2  A    between atoms: C_2  and  C_3
REMARK    3  A    between atoms: C_2  and  C_4
REMARK    4  A    between atoms: C_2  and  C_5
REMARK    5  A    between atoms: C_6  and  C_7
REMARK    6  A    between atoms: C_15  and  N_16
REMARK                            x       y       z     vdW  Elec       q    Type
REMARK                         _______ _______ _______ _____ _____    ______ ____
ROOT
ATOM      1  C   UNL     1       4.879   4.406  17.498  0.00  0.00    +0.000 A 
ATOM      2  C   UNL     1       4.599   4.099  16.150  0.00  0.00    +0.000 A 
ATOM      3  C   UNL     1       5.628   4.370  15.221  0.00  0.00    +0.000 A 
ATOM      4  N   UNL     1       5.575   4.144  13.899  0.00  0.00    +0.000 NA
ATOM      5  S   UNL     1       7.045   4.613  13.283  0.00  0.00    +0.000 S 
ATOM      6  N   UNL     1       7.809   5.134  14.664  0.00  0.00    +0.000 NA
ATOM      7  C   UNL     1       6.938   4.954  15.669  0.00  0.00    +0.000 A 
ATOM      8  C   UNL     1       7.170   5.252  17.033  0.00  0.00    +0.000 A 
ATOM      9  C   UNL     1       6.109   5.005  17.932  0.00  0.00    +0.000 A 
ENDROOT
BRANCH   9  10
ATOM     10  N   UNL     1       6.390   5.157  19.312  0.00  0.00    +0.000 N 
ATOM     11  H   UNL     1       7.042   5.904  19.527  0.00  0.00    +0.000 HD
ATOM     12  H   UNL     1       5.558   5.189  19.895  0.00  0.00    +0.000 HD
ENDBRANCH   9  10
BRANCH   1  14
ATOM     13  C   UNL     1       2.898   3.778  19.288  0.00  0.00    +0.000 C 
ATOM     14  C   UNL     1       3.855   4.085  18.456  0.00  0.00    +0.000 C 
BRANCH  13  16
ATOM     15  C   UNL     1       2.389   2.703  21.471  0.00  0.00    +0.000 C 
ATOM     16  C   UNL     1       1.784   3.420  20.257  0.00  0.00    +0.000 C 
ATOM     17  C   UNL     1       0.785   2.496  19.550  0.00  0.00    +0.000 C 
ATOM     18  C   UNL     1       1.079   4.705  20.706  0.00  0.00    +0.000 C 
ENDBRANCH  13  16
ENDBRANCH   1  14
TORSDOF 3
ENDMDL
MODEL 3
REMARK VINA RESULT:      -6.6      0.042      1.081
REMARK  Name = 
REMARK  6 active torsions:
REMARK  status: ('A' for Active; 'I' for Inactive)
REMARK    1  A    between atoms: C_1  and  C_2
REMARK    2  A    between atoms: C_2  and  C_3
REMARK    3  A    between atoms: C_2  and  C_4
REMARK    4  A    between atoms: C_2  and  C_5
REMARK    5  A    between atoms: C_6  and  C_7
REMARK    6  A    between atoms: C_15  and  N_16
REMARK                            x       y       z     vdW  Elec       q    Type
REMARK                         _______ _______ _______ _____ _____    ______ ____
ROOT
ATOM      1  C   UNL     1       4.879   4.403  17.464  0.00  0.00    +0.000 A 
ATOM      2  C   UNL     1       4.606   4.091  16.116  0.00  0.00    +0.000 A 
ATOM      3  C   UNL     1       5.638   4.364  15.190  0.00  0.00    +0.000 A 
ATOM      4  N   UNL     1       5.592   4.133  13.869  0.00  0.00    +0.000 NA
ATOM      5  S   UNL     1       7.063   4.607  13.258  0.00  0.00    +0.000 S 
ATOM      6  N   UNL     1       7.818   5.136  14.642  0.00  0.00    +0.000 NA
ATOM      7  C   UNL     1       6.943   4.954  15.643  0.00  0.00    +0.000 A 
ATOM      8  C   UNL     1       7.168   5.257  17.007  0.00  0.00    +0.000 A 
ATOM      9  C   UNL     1       6.104   5.008  17.902  0.00  0.00    +0.000 A 
ENDROOT
BRANCH   9  10
ATOM     10  N   UNL     1       6.378   5.166  19.283  0.00  0.00    +0.000 N 
ATOM     11  H   UNL     1       5.556   5.145  19.878  0.00  0.00    +0.000 HD
ATOM     12  H   UNL     1       7.119   4.560  19.623  0.00  0.00    +0.000 HD
ENDBRANCH   9  10
BRANCH   1  14
ATOM     13  C   UNL     1       2.893   3.769  19.247  0.00  0.00    +0.000 C 
ATOM     14  C   UNL     1       3.851   4.080  18.419  0.00  0.00    +0.000 C 
BRANCH  13  16
ATOM     15  C   UNL     1       1.049   4.686  20.640  0.00  0.00    +0.000 C 
ATOM     16  C   UNL     1       1.777   3.405  20.212  0.00  0.00    +0.000 C 
ATOM     17  C   UNL     1       2.384   2.714  21.440  0.00  0.00    +0.000 C 
ATOM     18  C   UNL     1       0.798   2.458  19.510  0.00  0.00    +0.000 C 
ENDBRANCH  13  16
ENDBRANCH   1  14
TORSDOF 3
ENDMDL
MODEL 4
REMARK VINA RESULT:      -6.0      3.165      6.331
REMARK  Name = 
REMARK  6 active torsions:
REMARK  status: ('A' for Active; 'I' for Inactive)
REMARK    1  A    between atoms: C_1  and  C_2
REMARK    2  A    between atoms: C_2  and  C_3
REMARK    3  A    between atoms: C_2  and  C_4
REMARK    4  A    between atoms: C_2  and  C_5
REMARK    5  A    between atoms: C_6  and  C_7
REMARK    6  A    between atoms: C_15  and  N_16
REMARK                            x       y       z     vdW  Elec       q    Type
REMARK                         _______ _______ _______ _____ _____    ______ ____
ROOT
ATOM      1  C   UNL     1       5.344   4.143  16.091  0.00  0.00    +0.000 A 
ATOM      2  C   UNL     1       4.004   4.111  16.532  0.00  0.00    +0.000 A 
ATOM      3  C   UNL     1       3.785   4.451  17.886  0.00  0.00    +0.000 A 
ATOM      4  N   UNL     1       2.594   4.495  18.503  0.00  0.00    +0.000 NA
ATOM      5  S   UNL     1       2.894   4.970  20.068  0.00  0.00    +0.000 S 
ATOM      6  N   UNL     1       4.548   5.129  20.033  0.00  0.00    +0.000 NA
ATOM      7  C   UNL     1       4.931   4.820  18.784  0.00  0.00    +0.000 A 
ATOM      8  C   UNL     1       6.260   4.831  18.297  0.00  0.00    +0.000 A 
ATOM      9  C   UNL     1       6.451   4.451  16.950  0.00  0.00    +0.000 A 
ENDROOT
BRANCH   9  10
ATOM     10  N   UNL     1       7.755   4.607  16.419  0.00  0.00    +0.000 N 
ATOM     11  H   UNL     1       8.321   5.302  16.895  0.00  0.00    +0.000 HD
ATOM     12  H   UNL     1       8.249   3.729  16.286  0.00  0.00    +0.000 HD
ENDBRANCH   9  10
BRANCH   1  14
ATOM     13  C   UNL     1       5.725   3.588  13.432  0.00  0.00    +0.000 C 
ATOM     14  C   UNL     1       5.569   3.849  14.700  0.00  0.00    +0.000 C 
BRANCH  13  16
ATOM     15  C   UNL     1       7.027   4.172  11.397  0.00  0.00    +0.000 C 
ATOM     16  C   UNL     1       5.907   3.285  11.954  0.00  0.00    +0.000 C 
ATOM     17  C   UNL     1       4.593   3.579  11.218  0.00  0.00    +0.000 C 
ATOM     18  C   UNL     1       6.279   1.808  11.788  0.00  0.00    +0.000 C 
ENDBRANCH  13  16
ENDBRANCH   1  14
TORSDOF 3
ENDMDL
MODEL 5
REMARK VINA RESULT:      -6.0      3.164      6.343
REMARK  Name = 
REMARK  6 active torsions:
REMARK  status: ('A' for Active; 'I' for Inactive)
REMARK    1  A    between atoms: C_1  and  C_2
REMARK    2  A    between atoms: C_2  and  C_3
REMARK    3  A    between atoms: C_2  and  C_4
REMARK    4  A    between atoms: C_2  and  C_5
REMARK    5  A    between atoms: C_6  and  C_7
REMARK    6  A    between atoms: C_15  and  N_16
REMARK                            x       y       z     vdW  Elec       q    Type
REMARK                         _______ _______ _______ _____ _____    ______ ____
ROOT
ATOM      1  C   UNL     1       5.342   4.153  16.085  0.00  0.00    +0.000 A 
ATOM      2  C   UNL     1       4.003   4.126  16.528  0.00  0.00    +0.000 A 
ATOM      3  C   UNL     1       3.785   4.481  17.878  0.00  0.00    +0.000 A 
ATOM      4  N   UNL     1       2.595   4.533  18.496  0.00  0.00    +0.000 NA
ATOM      5  S   UNL     1       2.896   5.027  20.054  0.00  0.00    +0.000 S 
ATOM      6  N   UNL     1       4.550   5.185  20.016  0.00  0.00    +0.000 NA
ATOM      7  C   UNL     1       4.932   4.861  18.771  0.00  0.00    +0.000 A 
ATOM      8  C   UNL     1       6.260   4.867  18.282  0.00  0.00    +0.000 A 
ATOM      9  C   UNL     1       6.450   4.471  16.940  0.00  0.00    +0.000 A 
ENDROOT
BRANCH   9  10
ATOM     10  N   UNL     1       7.753   4.621  16.405  0.00  0.00    +0.000 N 
ATOM     11  H   UNL     1       8.387   5.156  16.990  0.00  0.00    +0.000 HD
ATOM     12  H   UNL     1       8.165   3.749  16.083  0.00  0.00    +0.000 HD
ENDBRANCH   9  10
BRANCH   1  14
ATOM     13  C   UNL     1       5.728   3.585  13.429  0.00  0.00    +0.000 C 
ATOM     14  C   UNL     1       5.566   3.842  14.698  0.00  0.00    +0.000 C 
BRANCH  13  16
ATOM     15  C   UNL     1       6.305   1.813  11.784  0.00  0.00    +0.000 C 
ATOM     16  C   UNL     1       5.918   3.288  11.951  0.00  0.00    +0.000 C 
ATOM     17  C   UNL     1       7.033   4.187  11.400  0.00  0.00    +0.000 C 
ATOM     18  C   UNL     1       4.606   3.571  11.212  0.00  0.00    +0.000 C 
ENDBRANCH  13  16
ENDBRANCH   1  14
TORSDOF 3
ENDMDL
MODEL 6
REMARK VINA RESULT:      -6.0      3.866      4.716
REMARK  Name = 
REMARK  6 active torsions:
REMARK  status: ('A' for Active; 'I' for Inactive)
REMARK    1  A    between atoms: C_1  and  C_2
REMARK    2  A    between atoms: C_2  and  C_3
REMARK    3  A    between atoms: C_2  and  C_4
REMARK    4  A    between atoms: C_2  and  C_5
REMARK    5  A    between atoms: C_6  and  C_7
REMARK    6  A    between atoms: C_15  and  N_16
REMARK                            x       y       z     vdW  Elec       q    Type
REMARK                         _______ _______ _______ _____ _____    ______ ____
ROOT
ATOM      1  C   UNL     1       3.364   6.736  17.613  0.00  0.00    +0.000 A 
ATOM      2  C   UNL     1       4.437   7.077  16.763  0.00  0.00    +0.000 A 
ATOM      3  C   UNL     1       5.217   6.002  16.281  0.00  0.00    +0.000 A 
ATOM      4  N   UNL     1       6.270   6.103  15.455  0.00  0.00    +0.000 NA
ATOM      5  S   UNL     1       6.803   4.552  15.183  0.00  0.00    +0.000 S 
ATOM      6  N   UNL     1       5.727   3.687  16.110  0.00  0.00    +0.000 NA
ATOM      7  C   UNL     1       4.900   4.585  16.666  0.00  0.00    +0.000 A 
ATOM      8  C   UNL     1       3.816   4.293  17.528  0.00  0.00    +0.000 A 
ATOM      9  C   UNL     1       3.079   5.391  18.024  0.00  0.00    +0.000 A 
ENDROOT
BRANCH   9  10
ATOM     10  N   UNL     1       1.906   5.095  18.761  0.00  0.00    +0.000 N 
ATOM     11  H   UNL     1       1.233   4.519  18.265  0.00  0.00    +0.000 HD
ATOM     12  H   UNL     1       2.090   4.755  19.701  0.00  0.00    +0.000 HD
ENDBRANCH   9  10
BRANCH   1  14
ATOM     13  C   UNL     1       1.805   8.834  18.446  0.00  0.00    +0.000 C 
ATOM     14  C   UNL     1       2.535   7.821  18.067  0.00  0.00    +0.000 C 
BRANCH  13  16
ATOM     15  C   UNL     1       1.706  11.314  18.580  0.00  0.00    +0.000 C 
ATOM     16  C   UNL     1       0.953  10.013  18.885  0.00  0.00    +0.000 C 
ATOM     17  C   UNL     1       0.688   9.904  20.392  0.00  0.00    +0.000 C 
ATOM     18  C   UNL     1      -0.374   9.985  18.118  0.00  0.00    +0.000 C 
ENDBRANCH  13  16
ENDBRANCH   1  14
TORSDOF 3
ENDMDL
MODEL 7
REMARK VINA RESULT:      -6.0      3.871      4.531
REMARK  Name = 
REMARK  6 active torsions:
REMARK  status: ('A' for Active; 'I' for Inactive)
REMARK    1  A    between atoms: C_1  and  C_2
REMARK    2  A    between atoms: C_2  and  C_3
REMARK    3  A    between atoms: C_2  and  C_4
REMARK    4  A    between atoms: C_2  and  C_5
REMARK    5  A    between atoms: C_6  and  C_7
REMARK    6  A    between atoms: C_15  and  N_16
REMARK                            x       y       z     vdW  Elec       q    Type
REMARK                         _______ _______ _______ _____ _____    ______ ____
ROOT
ATOM      1  C   UNL     1       3.560   7.026  17.881  0.00  0.00    +0.000 A 
ATOM      2  C   UNL     1       4.212   7.137  16.635  0.00  0.00    +0.000 A 
ATOM      3  C   UNL     1       5.147   6.124  16.328  0.00  0.00    +0.000 A 
ATOM      4  N   UNL     1       5.865   6.033  15.197  0.00  0.00    +0.000 NA
ATOM      5  S   UNL     1       6.783   4.653  15.334  0.00  0.00    +0.000 S 
ATOM      6  N   UNL     1       6.318   4.119  16.838  0.00  0.00    +0.000 NA
ATOM      7  C   UNL     1       5.415   5.003  17.291  0.00  0.00    +0.000 A 
ATOM      8  C   UNL     1       4.741   4.938  18.533  0.00  0.00    +0.000 A 
ATOM      9  C   UNL     1       3.840   5.985  18.829  0.00  0.00    +0.000 A 
ENDROOT
BRANCH   9  10
ATOM     10  N   UNL     1       3.054   5.843  19.998  0.00  0.00    +0.000 N 
ATOM     11  H   UNL     1       2.866   6.714  20.485  0.00  0.00    +0.000 HD
ATOM     12  H   UNL     1       2.214   5.287  19.860  0.00  0.00    +0.000 HD
ENDBRANCH   9  10
BRANCH   1  14
ATOM     13  C   UNL     1       1.684   8.930  18.496  0.00  0.00    +0.000 C 
ATOM     14  C   UNL     1       2.569   8.026  18.179  0.00  0.00    +0.000 C 
BRANCH  13  16
ATOM     15  C   UNL     1      -0.518   9.905  17.879  0.00  0.00    +0.000 C 
ATOM     16  C   UNL     1       0.655   9.985  18.866  0.00  0.00    +0.000 C 
ATOM     17  C   UNL     1       1.309  11.370  18.789  0.00  0.00    +0.000 C 
ATOM     18  C   UNL     1       0.157   9.720  20.291  0.00  0.00    +0.000 C 
ENDBRANCH  13  16
ENDBRANCH   1  14
TORSDOF 3
ENDMDL
MODEL 8
REMARK VINA RESULT:      -5.9      3.165      6.364
REMARK  Name = 
REMARK  6 active torsions:
REMARK  status: ('A' for Active; 'I' for Inactive)
REMARK    1  A    between atoms: C_1  and  C_2
REMARK    2  A    between atoms: C_2  and  C_3
REMARK    3  A    between atoms: C_2  and  C_4
REMARK    4  A    between atoms: C_2  and  C_5
REMARK    5  A    between atoms: C_6  and  C_7
REMARK    6  A    between atoms: C_15  and  N_16
REMARK                            x       y       z     vdW  Elec       q    Type
REMARK                         _______ _______ _______ _____ _____    ______ ____
ROOT
ATOM      1  C   UNL     1       5.279   4.358  16.027  0.00  0.00    +0.000 A 
ATOM      2  C   UNL     1       4.104   3.837  16.609  0.00  0.00    +0.000 A 
ATOM      3  C   UNL     1       3.850   4.213  17.947  0.00  0.00    +0.000 A 
ATOM      4  N   UNL     1       2.789   3.842  18.681  0.00  0.00    +0.000 NA
ATOM      5  S   UNL     1       2.964   4.576  20.162  0.00  0.00    +0.000 S 
ATOM      6  N   UNL     1       4.398   5.386  19.941  0.00  0.00    +0.000 NA
ATOM      7  C   UNL     1       4.795   5.116  18.687  0.00  0.00    +0.000 A 
ATOM      8  C   UNL     1       5.966   5.608  18.063  0.00  0.00    +0.000 A 
ATOM      9  C   UNL     1       6.211   5.186  16.738  0.00  0.00    +0.000 A 
ENDROOT
BRANCH   9  10
ATOM     10  N   UNL     1       7.297   5.794  16.061  0.00  0.00    +0.000 N 
ATOM     11  H   UNL     1       7.246   5.735  15.049  0.00  0.00    +0.000 HD
ATOM     12  H   UNL     1       7.503   6.735  16.385  0.00  0.00    +0.000 HD
ENDBRANCH   9  10
BRANCH   1  14
ATOM     13  C   UNL     1       5.690   3.691  13.399  0.00  0.00    +0.000 C 
ATOM     14  C   UNL     1       5.517   4.021  14.649  0.00  0.00    +0.000 C 
BRANCH  13  16
ATOM     15  C   UNL     1       4.576   3.531  11.181  0.00  0.00    +0.000 C 
ATOM     16  C   UNL     1       5.890   3.309  11.942  0.00  0.00    +0.000 C 
ATOM     17  C   UNL     1       6.295   1.832  11.864  0.00  0.00    +0.000 C 
ATOM     18  C   UNL     1       6.995   4.186  11.343  0.00  0.00    +0.000 C 
ENDBRANCH  13  16
ENDBRANCH   1  14
TORSDOF 3
ENDMDL
MODEL 9
REMARK VINA RESULT:      -5.9      4.029      4.900
REMARK  Name = 
REMARK  6 active torsions:
REMARK  status: ('A' for Active; 'I' for Inactive)
REMARK    1  A    between atoms: C_1  and  C_2
REMARK    2  A    between atoms: C_2  and  C_3
REMARK    3  A    between atoms: C_2  and  C_4
REMARK    4  A    between atoms: C_2  and  C_5
REMARK    5  A    between atoms: C_6  and  C_7
REMARK    6  A    between atoms: C_15  and  N_16
REMARK                            x       y       z     vdW  Elec       q    Type
REMARK                         _______ _______ _______ _____ _____    ______ ____
ROOT
ATOM      1  C   UNL     1       3.267   7.163  18.207  0.00  0.00    +0.000 A 
ATOM      2  C   UNL     1       4.034   7.286  17.030  0.00  0.00    +0.000 A 
ATOM      3  C   UNL     1       5.007   6.285  16.811  0.00  0.00    +0.000 A 
ATOM      4  N   UNL     1       5.831   6.207  15.755  0.00  0.00    +0.000 NA
ATOM      5  S   UNL     1       6.749   4.839  15.977  0.00  0.00    +0.000 S 
ATOM      6  N   UNL     1       6.149   4.293  17.428  0.00  0.00    +0.000 NA
ATOM      7  C   UNL     1       5.196   5.165  17.794  0.00  0.00    +0.000 A 
ATOM      8  C   UNL     1       4.406   5.087  18.966  0.00  0.00    +0.000 A 
ATOM      9  C   UNL     1       3.467   6.121  19.175  0.00  0.00    +0.000 A 
ENDROOT
BRANCH   9  10
ATOM     10  N   UNL     1       2.574   5.967  20.264  0.00  0.00    +0.000 N 
ATOM     11  H   UNL     1       1.651   6.358  20.107  0.00  0.00    +0.000 HD
ATOM     12  H   UNL     1       2.537   5.018  20.628  0.00  0.00    +0.000 HD
ENDBRANCH   9  10
BRANCH   1  14
ATOM     13  C   UNL     1       1.339   9.070  18.621  0.00  0.00    +0.000 C 
ATOM     14  C   UNL     1       2.239   8.149  18.411  0.00  0.00    +0.000 C 
BRANCH  13  16
ATOM     15  C   UNL     1      -0.315   9.942  20.259  0.00  0.00    +0.000 C 
ATOM     16  C   UNL     1       0.292  10.144  18.864  0.00  0.00    +0.000 C 
ATOM     17  C   UNL     1      -0.802  10.026  17.796  0.00  0.00    +0.000 C 
ATOM     18  C   UNL     1       0.960  11.521  18.780  0.00  0.00    +0.000 C 
ENDBRANCH  13  16
ENDBRANCH   1  14
TORSDOF 3
ENDMDL
