MODEL 1
REMARK VINA RESULT:      -8.1      0.000      0.000
REMARK  Name = 
REMARK  5 active torsions:
REMARK  status: ('A' for Active; 'I' for Inactive)
REMARK    1  A    between atoms: C_1  and  C_2
REMARK    2  A    between atoms: C_2  and  C_3
REMARK    3  A    between atoms: C_2  and  O_4
REMARK    4  A    between atoms: O_4  and  C_5
REMARK    5  A    between atoms: C_12  and  C_13
REMARK                            x       y       z     vdW  Elec       q    Type
REMARK                         _______ _______ _______ _____ _____    ______ ____
ROOT
ATOM      1  C   UNL     1       6.092   6.018  16.523  0.00  0.00    +0.000 A 
ATOM      2  C   UNL     1       6.611   5.311  15.433  0.00  0.00    +0.000 A 
ATOM      3  C   UNL     1       6.149   4.029  15.123  0.00  0.00    +0.000 A 
ATOM      4  C   UNL     1       5.195   3.416  15.924  0.00  0.00    +0.000 A 
ATOM      5  C   UNL     1       4.690   4.093  17.039  0.00  0.00    +0.000 A 
ATOM      6  C   UNL     1       3.706   3.417  17.935  0.00  0.00    +0.000 A 
ATOM      7  O   UNL     1       3.299   2.300  17.635  0.00  0.00    +0.000 OA
ATOM      8  C   UNL     1       3.239   4.154  19.153  0.00  0.00    +0.000 A 
ATOM      9  C   UNL     1       3.662   5.426  19.271  0.00  0.00    +0.000 A 
ATOM     10  N   UNL     1       4.541   6.061  18.437  0.00  0.00    +0.000 N 
ATOM     11  C   UNL     1       5.096   5.411  17.321  0.00  0.00    +0.000 A 
ATOM     12  H   UNL     1       4.723   7.054  18.535  0.00  0.00    +0.000 HD
ENDROOT
BRANCH   8  13
ATOM     13  C   UNL     1       2.386   3.510  20.104  0.00  0.00    +0.000 A 
ATOM     14  N   UNL     1       2.910   2.863  21.201  0.00  0.00    +0.000 NA
ATOM     15  N   UNL     1       1.884   2.445  21.929  0.00  0.00    +0.000 NA
ATOM     16  N   UNL     1       0.807   2.851  21.257  0.00  0.00    +0.000 N 
ATOM     17  N   UNL     1       1.036   3.548  20.134  0.00  0.00    +0.000 NA
ATOM     18  H   UNL     1      -0.131   2.652  21.590  0.00  0.00    +0.000 HD
ENDBRANCH   8  13
BRANCH   1  19
ATOM     19  O   UNL     1       6.491   7.277  16.901  0.00  0.00    +0.000 OA
BRANCH  19  21
ATOM     20  C   UNL     1       7.938   8.936  17.827  0.00  0.00    +0.000 C 
ATOM     21  C   UNL     1       7.801   7.460  17.461  0.00  0.00    +0.000 C 
ATOM     22  C   UNL     1       7.982   6.597  18.710  0.00  0.00    +0.000 C 
ENDBRANCH  19  21
ENDBRANCH   1  19
TORSDOF 3
ENDMDL
MODEL 2
REMARK VINA RESULT:      -8.0      3.058      6.718
REMARK  Name = 
REMARK  5 active torsions:
REMARK  status: ('A' for Active; 'I' for Inactive)
REMARK    1  A    between atoms: C_1  and  C_2
REMARK    2  A    between atoms: C_2  and  C_3
REMARK    3  A    between atoms: C_2  and  O_4
REMARK    4  A    between atoms: O_4  and  C_5
REMARK    5  A    between atoms: C_12  and  C_13
REMARK                            x       y       z     vdW  Elec       q    Type
REMARK                         _______ _______ _______ _____ _____    ______ ____
ROOT
ATOM      1  C   UNL     1       3.363   4.348  19.138  0.00  0.00    +0.000 A 
ATOM      2  C   UNL     1       2.707   5.474  19.649  0.00  0.00    +0.000 A 
ATOM      3  C   UNL     1       2.757   6.699  18.979  0.00  0.00    +0.000 A 
ATOM      4  C   UNL     1       3.498   6.829  17.812  0.00  0.00    +0.000 A 
ATOM      5  C   UNL     1       4.189   5.724  17.305  0.00  0.00    +0.000 A 
ATOM      6  C   UNL     1       5.033   5.873  16.083  0.00  0.00    +0.000 A 
ATOM      7  O   UNL     1       5.048   6.950  15.499  0.00  0.00    +0.000 OA
ATOM      8  C   UNL     1       5.807   4.679  15.611  0.00  0.00    +0.000 A 
ATOM      9  C   UNL     1       5.577   3.529  16.269  0.00  0.00    +0.000 A 
ATOM     10  N   UNL     1       4.781   3.380  17.372  0.00  0.00    +0.000 N 
ATOM     11  C   UNL     1       4.091   4.468  17.933  0.00  0.00    +0.000 A 
ATOM     12  H   UNL     1       4.576   2.458  17.743  0.00  0.00    +0.000 HD
ENDROOT
BRANCH   8  13
ATOM     13  C   UNL     1       6.718   4.798  14.513  0.00  0.00    +0.000 A 
ATOM     14  N   UNL     1       6.448   4.200  13.302  0.00  0.00    +0.000 NA
ATOM     15  N   UNL     1       7.420   4.553  12.473  0.00  0.00    +0.000 NA
ATOM     16  N   UNL     1       8.216   5.335  13.201  0.00  0.00    +0.000 N 
ATOM     17  N   UNL     1       7.830   5.563  14.465  0.00  0.00    +0.000 NA
ATOM     18  H   UNL     1       9.060   5.743  12.810  0.00  0.00    +0.000 HD
ENDBRANCH   8  13
BRANCH   1  19
ATOM     19  O   UNL     1       3.371   3.110  19.734  0.00  0.00    +0.000 OA
BRANCH  19  21
ATOM     20  C   UNL     1       1.413   2.834  21.072  0.00  0.00    +0.000 C 
ATOM     21  C   UNL     1       2.148   2.364  19.819  0.00  0.00    +0.000 C 
ATOM     22  C   UNL     1       1.278   2.606  18.586  0.00  0.00    +0.000 C 
ENDBRANCH  19  21
ENDBRANCH   1  19
TORSDOF 3
ENDMDL
MODEL 3
REMARK VINA RESULT:      -7.9      3.001      6.635
REMARK  Name = 
REMARK  5 active torsions:
REMARK  status: ('A' for Active; 'I' for Inactive)
REMARK    1  A    between atoms: C_1  and  C_2
REMARK    2  A    between atoms: C_2  and  C_3
REMARK    3  A    between atoms: C_2  and  O_4
REMARK    4  A    between atoms: O_4  and  C_5
REMARK    5  A    between atoms: C_12  and  C_13
REMARK                            x       y       z     vdW  Elec       q    Type
REMARK                         _______ _______ _______ _____ _____    ______ ____
ROOT
ATOM      1  C   UNL     1       2.976   5.007  19.301  0.00  0.00    +0.000 A 
ATOM      2  C   UNL     1       2.439   6.217  19.755  0.00  0.00    +0.000 A 
ATOM      3  C   UNL     1       2.615   7.397  19.028  0.00  0.00    +0.000 A 
ATOM      4  C   UNL     1       3.368   7.396  17.861  0.00  0.00    +0.000 A 
ATOM      5  C   UNL     1       3.942   6.202  17.411  0.00  0.00    +0.000 A 
ATOM      6  C   UNL     1       4.799   6.206  16.188  0.00  0.00    +0.000 A 
ATOM      7  O   UNL     1       4.925   7.247  15.554  0.00  0.00    +0.000 OA
ATOM      8  C   UNL     1       5.446   4.919  15.778  0.00  0.00    +0.000 A 
ATOM      9  C   UNL     1       5.098   3.830  16.488  0.00  0.00    +0.000 A 
ATOM     10  N   UNL     1       4.290   3.816  17.592  0.00  0.00    +0.000 N 
ATOM     11  C   UNL     1       3.714   4.994  18.096  0.00  0.00    +0.000 A 
ATOM     12  H   UNL     1       3.991   2.938  18.004  0.00  0.00    +0.000 HD
ENDROOT
BRANCH   8  13
ATOM     13  C   UNL     1       6.366   4.891  14.682  0.00  0.00    +0.000 A 
ATOM     14  N   UNL     1       7.571   5.555  14.752  0.00  0.00    +0.000 NA
ATOM     15  N   UNL     1       8.229   5.279  13.636  0.00  0.00    +0.000 NA
ATOM     16  N   UNL     1       7.414   4.474  12.955  0.00  0.00    +0.000 N 
ATOM     17  N   UNL     1       6.255   4.159  13.552  0.00  0.00    +0.000 NA
ATOM     18  H   UNL     1       7.669   4.112  12.041  0.00  0.00    +0.000 HD
ENDBRANCH   8  13
BRANCH   1  19
ATOM     19  O   UNL     1       2.856   3.804  19.955  0.00  0.00    +0.000 OA
BRANCH  19  21
ATOM     20  C   UNL     1       1.004   2.481  19.233  0.00  0.00    +0.000 C 
ATOM     21  C   UNL     1       1.555   3.352  20.360  0.00  0.00    +0.000 C 
ATOM     22  C   UNL     1       1.641   2.539  21.651  0.00  0.00    +0.000 C 
ENDBRANCH  19  21
ENDBRANCH   1  19
TORSDOF 3
ENDMDL
MODEL 4
REMARK VINA RESULT:      -7.5      3.018      6.561
REMARK  Name = 
REMARK  5 active torsions:
REMARK  status: ('A' for Active; 'I' for Inactive)
REMARK    1  A    between atoms: C_1  and  C_2
REMARK    2  A    between atoms: C_2  and  C_3
REMARK    3  A    between atoms: C_2  and  O_4
REMARK    4  A    between atoms: O_4  and  C_5
REMARK    5  A    between atoms: C_12  and  C_13
REMARK                            x       y       z     vdW  Elec       q    Type
REMARK                         _______ _______ _______ _____ _____    ______ ____
ROOT
ATOM      1  C   UNL     1       2.702   4.792  18.983  0.00  0.00    +0.000 A 
ATOM      2  C   UNL     1       2.206   5.989  19.512  0.00  0.00    +0.000 A 
ATOM      3  C   UNL     1       2.532   7.218  18.933  0.00  0.00    +0.000 A 
ATOM      4  C   UNL     1       3.394   7.274  17.846  0.00  0.00    +0.000 A 
ATOM      5  C   UNL     1       3.928   6.090  17.325  0.00  0.00    +0.000 A 
ATOM      6  C   UNL     1       4.899   6.148  16.193  0.00  0.00    +0.000 A 
ATOM      7  O   UNL     1       5.157   7.234  15.687  0.00  0.00    +0.000 OA
ATOM      8  C   UNL     1       5.495   4.862  15.709  0.00  0.00    +0.000 A 
ATOM      9  C   UNL     1       5.005   3.738  16.265  0.00  0.00    +0.000 A 
ATOM     10  N   UNL     1       4.094   3.678  17.283  0.00  0.00    +0.000 N 
ATOM     11  C   UNL     1       3.552   4.841  17.856  0.00  0.00    +0.000 A 
ATOM     12  H   UNL     1       3.697   2.789  17.571  0.00  0.00    +0.000 HD
ENDROOT
BRANCH   8  13
ATOM     13  C   UNL     1       6.514   4.871  14.704  0.00  0.00    +0.000 A 
ATOM     14  N   UNL     1       6.320   4.245  13.493  0.00  0.00    +0.000 NA
ATOM     15  N   UNL     1       7.390   4.495  12.753  0.00  0.00    +0.000 NA
ATOM     16  N   UNL     1       8.167   5.249  13.530  0.00  0.00    +0.000 N 
ATOM     17  N   UNL     1       7.679   5.555  14.741  0.00  0.00    +0.000 NA
ATOM     18  H   UNL     1       9.073   5.581  13.211  0.00  0.00    +0.000 HD
ENDBRANCH   8  13
BRANCH   1  19
ATOM     19  O   UNL     1       2.437   3.543  19.492  0.00  0.00    +0.000 OA
BRANCH  19  21
ATOM     20  C   UNL     1       1.841   2.552  21.581  0.00  0.00    +0.000 C 
ATOM     21  C   UNL     1       2.975   3.178  20.772  0.00  0.00    +0.000 C 
ATOM     22  C   UNL     1       4.116   2.172  20.614  0.00  0.00    +0.000 C 
ENDBRANCH  19  21
ENDBRANCH   1  19
TORSDOF 3
ENDMDL
MODEL 5
REMARK VINA RESULT:      -7.4      2.970      6.504
REMARK  Name = 
REMARK  5 active torsions:
REMARK  status: ('A' for Active; 'I' for Inactive)
REMARK    1  A    between atoms: C_1  and  C_2
REMARK    2  A    between atoms: C_2  and  C_3
REMARK    3  A    between atoms: C_2  and  O_4
REMARK    4  A    between atoms: O_4  and  C_5
REMARK    5  A    between atoms: C_12  and  C_13
REMARK                            x       y       z     vdW  Elec       q    Type
REMARK                         _______ _______ _______ _____ _____    ______ ____
ROOT
ATOM      1  C   UNL     1       3.043   5.714  19.644  0.00  0.00    +0.000 A 
ATOM      2  C   UNL     1       2.338   6.910  19.819  0.00  0.00    +0.000 A 
ATOM      3  C   UNL     1       2.359   7.905  18.838  0.00  0.00    +0.000 A 
ATOM      4  C   UNL     1       3.120   7.740  17.689  0.00  0.00    +0.000 A 
ATOM      5  C   UNL     1       3.860   6.566  17.513  0.00  0.00    +0.000 A 
ATOM      6  C   UNL     1       4.725   6.407  16.307  0.00  0.00    +0.000 A 
ATOM      7  O   UNL     1       4.715   7.283  15.449  0.00  0.00    +0.000 OA
ATOM      8  C   UNL     1       5.550   5.162  16.190  0.00  0.00    +0.000 A 
ATOM      9  C   UNL     1       5.346   4.228  17.136  0.00  0.00    +0.000 A 
ATOM     10  N   UNL     1       4.533   4.356  18.229  0.00  0.00    +0.000 N 
ATOM     11  C   UNL     1       3.793   5.528  18.461  0.00  0.00    +0.000 A 
ATOM     12  H   UNL     1       4.352   3.563  18.836  0.00  0.00    +0.000 HD
ENDROOT
BRANCH   8  13
ATOM     13  C   UNL     1       6.480   5.011  15.112  0.00  0.00    +0.000 A 
ATOM     14  N   UNL     1       6.151   4.281  13.991  0.00  0.00    +0.000 NA
ATOM     15  N   UNL     1       7.168   4.392  13.148  0.00  0.00    +0.000 NA
ATOM     16  N   UNL     1       8.046   5.169  13.779  0.00  0.00    +0.000 N 
ATOM     17  N   UNL     1       7.678   5.622  14.988  0.00  0.00    +0.000 NA
ATOM     18  H   UNL     1       8.938   5.413  13.358  0.00  0.00    +0.000 HD
ENDBRANCH   8  13
BRANCH   1  19
ATOM     19  O   UNL     1       3.082   4.688  20.558  0.00  0.00    +0.000 OA
BRANCH  19  21
ATOM     20  C   UNL     1       2.515   2.573  21.510  0.00  0.00    +0.000 C 
ATOM     21  C   UNL     1       2.286   3.515  20.330  0.00  0.00    +0.000 C 
ATOM     22  C   UNL     1       0.804   3.875  20.233  0.00  0.00    +0.000 C 
ENDBRANCH  19  21
ENDBRANCH   1  19
TORSDOF 3
ENDMDL
MODEL 6
REMARK VINA RESULT:      -7.2      3.276      6.063
REMARK  Name = 
REMARK  5 active torsions:
REMARK  status: ('A' for Active; 'I' for Inactive)
REMARK    1  A    between atoms: C_1  and  C_2
REMARK    2  A    between atoms: C_2  and  C_3
REMARK    3  A    between atoms: C_2  and  O_4
REMARK    4  A    between atoms: O_4  and  C_5
REMARK    5  A    between atoms: C_12  and  C_13
REMARK                            x       y       z     vdW  Elec       q    Type
REMARK                         _______ _______ _______ _____ _____    ______ ____
ROOT
ATOM      1  C   UNL     1       2.180   6.645  19.843  0.00  0.00    +0.000 A 
ATOM      2  C   UNL     1       1.495   5.646  20.542  0.00  0.00    +0.000 A 
ATOM      3  C   UNL     1       1.757   4.294  20.303  0.00  0.00    +0.000 A 
ATOM      4  C   UNL     1       2.674   3.920  19.330  0.00  0.00    +0.000 A 
ATOM      5  C   UNL     1       3.343   4.905  18.596  0.00  0.00    +0.000 A 
ATOM      6  C   UNL     1       4.288   4.508  17.510  0.00  0.00    +0.000 A 
ATOM      7  O   UNL     1       4.518   3.318  17.329  0.00  0.00    +0.000 OA
ATOM      8  C   UNL     1       4.935   5.595  16.707  0.00  0.00    +0.000 A 
ATOM      9  C   UNL     1       4.697   6.854  17.117  0.00  0.00    +0.000 A 
ATOM     10  N   UNL     1       3.854   7.222  18.130  0.00  0.00    +0.000 N 
ATOM     11  C   UNL     1       3.140   6.269  18.876  0.00  0.00    +0.000 A 
ATOM     12  H   UNL     1       3.815   8.186  18.447  0.00  0.00    +0.000 HD
ENDROOT
BRANCH   8  13
ATOM     13  C   UNL     1       5.759   5.269  15.583  0.00  0.00    +0.000 A 
ATOM     14  N   UNL     1       7.065   5.702  15.514  0.00  0.00    +0.000 NA
ATOM     15  N   UNL     1       7.587   5.179  14.414  0.00  0.00    +0.000 NA
ATOM     16  N   UNL     1       6.597   4.464  13.879  0.00  0.00    +0.000 N 
ATOM     17  N   UNL     1       5.443   4.442  14.563  0.00  0.00    +0.000 NA
ATOM     18  H   UNL     1       6.721   3.956  13.008  0.00  0.00    +0.000 HD
ENDBRANCH   8  13
BRANCH   1  19
ATOM     19  O   UNL     1       1.982   7.995  20.011  0.00  0.00    +0.000 OA
BRANCH  19  21
ATOM     20  C   UNL     1       1.447   8.984  22.118  0.00  0.00    +0.000 C 
ATOM     21  C   UNL     1       0.876   8.447  20.807  0.00  0.00    +0.000 C 
ATOM     22  C   UNL     1       0.105   9.553  20.086  0.00  0.00    +0.000 C 
ENDBRANCH  19  21
ENDBRANCH   1  19
TORSDOF 3
ENDMDL
MODEL 7
REMARK VINA RESULT:      -7.2      1.958      3.432
REMARK  Name = 
REMARK  5 active torsions:
REMARK  status: ('A' for Active; 'I' for Inactive)
REMARK    1  A    between atoms: C_1  and  C_2
REMARK    2  A    between atoms: C_2  and  C_3
REMARK    3  A    between atoms: C_2  and  O_4
REMARK    4  A    between atoms: O_4  and  C_5
REMARK    5  A    between atoms: C_12  and  C_13
REMARK                            x       y       z     vdW  Elec       q    Type
REMARK                         _______ _______ _______ _____ _____    ______ ____
ROOT
ATOM      1  C   UNL     1       6.234   4.400  15.662  0.00  0.00    +0.000 A 
ATOM      2  C   UNL     1       7.020   5.556  15.727  0.00  0.00    +0.000 A 
ATOM      3  C   UNL     1       7.017   6.362  16.868  0.00  0.00    +0.000 A 
ATOM      4  C   UNL     1       6.195   6.050  17.944  0.00  0.00    +0.000 A 
ATOM      5  C   UNL     1       5.377   4.918  17.883  0.00  0.00    +0.000 A 
ATOM      6  C   UNL     1       4.450   4.610  19.012  0.00  0.00    +0.000 A 
ATOM      7  O   UNL     1       4.477   5.318  20.012  0.00  0.00    +0.000 OA
ATOM      8  C   UNL     1       3.545   3.423  18.877  0.00  0.00    +0.000 A 
ATOM      9  C   UNL     1       3.733   2.658  17.787  0.00  0.00    +0.000 A 
ATOM     10  N   UNL     1       4.601   2.920  16.762  0.00  0.00    +0.000 N 
ATOM     11  C   UNL     1       5.422   4.060  16.767  0.00  0.00    +0.000 A 
ATOM     12  H   UNL     1       4.759   2.236  16.030  0.00  0.00    +0.000 HD
ENDROOT
BRANCH   8  13
ATOM     13  C   UNL     1       2.560   3.150  19.879  0.00  0.00    +0.000 A 
ATOM     14  N   UNL     1       2.922   2.643  21.108  0.00  0.00    +0.000 NA
ATOM     15  N   UNL     1       1.818   2.576  21.838  0.00  0.00    +0.000 NA
ATOM     16  N   UNL     1       0.858   3.038  21.039  0.00  0.00    +0.000 N 
ATOM     17  N   UNL     1       1.244   3.446  19.820  0.00  0.00    +0.000 NA
ATOM     18  H   UNL     1      -0.109   3.089  21.346  0.00  0.00    +0.000 HD
ENDBRANCH   8  13
BRANCH   1  19
ATOM     19  O   UNL     1       6.173   3.556  14.579  0.00  0.00    +0.000 OA
BRANCH  19  21
ATOM     20  C   UNL     1       7.237   4.004  12.489  0.00  0.00    +0.000 C 
ATOM     21  C   UNL     1       5.931   4.104  13.274  0.00  0.00    +0.000 C 
ATOM     22  C   UNL     1       4.832   3.324  12.554  0.00  0.00    +0.000 C 
ENDBRANCH  19  21
ENDBRANCH   1  19
TORSDOF 3
ENDMDL
MODEL 8
REMARK VINA RESULT:      -7.1      0.685      1.055
REMARK  Name = 
REMARK  5 active torsions:
REMARK  status: ('A' for Active; 'I' for Inactive)
REMARK    1  A    between atoms: C_1  and  C_2
REMARK    2  A    between atoms: C_2  and  C_3
REMARK    3  A    between atoms: C_2  and  O_4
REMARK    4  A    between atoms: O_4  and  C_5
REMARK    5  A    between atoms: C_12  and  C_13
REMARK                            x       y       z     vdW  Elec       q    Type
REMARK                         _______ _______ _______ _____ _____    ______ ____
ROOT
ATOM      1  C   UNL     1       6.260   6.145  16.435  0.00  0.00    +0.000 A 
ATOM      2  C   UNL     1       6.946   5.403  15.467  0.00  0.00    +0.000 A 
ATOM      3  C   UNL     1       6.515   4.124  15.105  0.00  0.00    +0.000 A 
ATOM      4  C   UNL     1       5.419   3.549  15.736  0.00  0.00    +0.000 A 
ATOM      5  C   UNL     1       4.742   4.263  16.730  0.00  0.00    +0.000 A 
ATOM      6  C   UNL     1       3.599   3.628  17.451  0.00  0.00    +0.000 A 
ATOM      7  O   UNL     1       3.224   2.513  17.106  0.00  0.00    +0.000 OA
ATOM      8  C   UNL     1       2.943   4.403  18.553  0.00  0.00    +0.000 A 
ATOM      9  C   UNL     1       3.369   5.668  18.720  0.00  0.00    +0.000 A 
ATOM     10  N   UNL     1       4.397   6.265  18.042  0.00  0.00    +0.000 N 
ATOM     11  C   UNL     1       5.124   5.578  17.055  0.00  0.00    +0.000 A 
ATOM     12  H   UNL     1       4.584   7.256  18.152  0.00  0.00    +0.000 HD
ENDROOT
BRANCH   8  13
ATOM     13  C   UNL     1       1.919   3.799  19.350  0.00  0.00    +0.000 A 
ATOM     14  N   UNL     1       0.915   3.056  18.768  0.00  0.00    +0.000 NA
ATOM     15  N   UNL     1       0.178   2.565  19.753  0.00  0.00    +0.000 NA
ATOM     16  N   UNL     1       0.757   3.018  20.865  0.00  0.00    +0.000 N 
ATOM     17  N   UNL     1       1.862   3.761  20.699  0.00  0.00    +0.000 NA
ATOM     18  H   UNL     1       0.385   2.798  21.784  0.00  0.00    +0.000 HD
ENDBRANCH   8  13
BRANCH   1  19
ATOM     19  O   UNL     1       6.618   7.404  16.854  0.00  0.00    +0.000 OA
BRANCH  19  21
ATOM     20  C   UNL     1       7.989   9.072  17.874  0.00  0.00    +0.000 C 
ATOM     21  C   UNL     1       7.890   7.597  17.491  0.00  0.00    +0.000 C 
ATOM     22  C   UNL     1       8.008   6.727  18.742  0.00  0.00    +0.000 C 
ENDBRANCH  19  21
ENDBRANCH   1  19
TORSDOF 3
ENDMDL
MODEL 9
REMARK VINA RESULT:      -7.1      3.192      6.604
REMARK  Name = 
REMARK  5 active torsions:
REMARK  status: ('A' for Active; 'I' for Inactive)
REMARK    1  A    between atoms: C_1  and  C_2
REMARK    2  A    between atoms: C_2  and  C_3
REMARK    3  A    between atoms: C_2  and  O_4
REMARK    4  A    between atoms: O_4  and  C_5
REMARK    5  A    between atoms: C_12  and  C_13
REMARK                            x       y       z     vdW  Elec       q    Type
REMARK                         _______ _______ _______ _____ _____    ______ ____
ROOT
ATOM      1  C   UNL     1       3.871   5.049  19.281  0.00  0.00    +0.000 A 
ATOM      2  C   UNL     1       3.057   6.144  19.593  0.00  0.00    +0.000 A 
ATOM      3  C   UNL     1       2.879   7.188  18.681  0.00  0.00    +0.000 A 
ATOM      4  C   UNL     1       3.546   7.176  17.464  0.00  0.00    +0.000 A 
ATOM      5  C   UNL     1       4.392   6.108  17.149  0.00  0.00    +0.000 A 
ATOM      6  C   UNL     1       5.155   6.118  15.867  0.00  0.00    +0.000 A 
ATOM      7  O   UNL     1       4.971   7.033  15.072  0.00  0.00    +0.000 OA
ATOM      8  C   UNL     1       6.099   4.985  15.598  0.00  0.00    +0.000 A 
ATOM      9  C   UNL     1       6.086   3.982  16.495  0.00  0.00    +0.000 A 
ATOM     10  N   UNL     1       5.366   3.954  17.658  0.00  0.00    +0.000 N 
ATOM     11  C   UNL     1       4.526   5.017  18.029  0.00  0.00    +0.000 A 
ATOM     12  H   UNL     1       5.330   3.113  18.225  0.00  0.00    +0.000 HD
ENDROOT
BRANCH   8  13
ATOM     13  C   UNL     1       6.937   5.003  14.439  0.00  0.00    +0.000 A 
ATOM     14  N   UNL     1       6.595   4.296  13.307  0.00  0.00    +0.000 NA
ATOM     15  N   UNL     1       7.510   4.572  12.389  0.00  0.00    +0.000 NA
ATOM     16  N   UNL     1       8.345   5.419  12.990  0.00  0.00    +0.000 N 
ATOM     17  N   UNL     1       8.039   5.762  14.250  0.00  0.00    +0.000 NA
ATOM     18  H   UNL     1       9.160   5.791  12.510  0.00  0.00    +0.000 HD
ENDBRANCH   8  13
BRANCH   1  19
ATOM     19  O   UNL     1       4.106   3.985  20.118  0.00  0.00    +0.000 OA
BRANCH  19  21
ATOM     20  C   UNL     1       4.164   1.600  20.008  0.00  0.00    +0.000 C 
ATOM     21  C   UNL     1       3.258   2.829  20.039  0.00  0.00    +0.000 C 
ATOM     22  C   UNL     1       2.325   2.756  21.248  0.00  0.00    +0.000 C 
ENDBRANCH  19  21
ENDBRANCH   1  19
TORSDOF 3
ENDMDL
