MODEL 1
REMARK VINA RESULT:      -8.9      0.000      0.000
REMARK  Name = 
REMARK  8 active torsions:
REMARK  status: ('A' for Active; 'I' for Inactive)
REMARK    1  A    between atoms: C_1  and  C_2
REMARK    2  A    between atoms: C_2  and  C_3
REMARK    3  A    between atoms: C_2  and  C_4
REMARK    4  A    between atoms: C_2  and  C_5
REMARK    5  A    between atoms: C_7  and  C_8
REMARK    6  A    between atoms: C_8  and  N_9
REMARK    7  A    between atoms: N_12  and  C_13
REMARK    8  A    between atoms: N_22  and  C_23
REMARK                            x       y       z     vdW  Elec       q    Type
REMARK                         _______ _______ _______ _____ _____    ______ ____
ROOT
ATOM      1  C   UNL     1       3.121   7.139  17.706  0.00  0.00    +0.000 C 
ENDROOT
BRANCH   1   2
ATOM      2  N   UNL     1       2.157   7.696  18.630  0.00  0.00    +0.000 N 
ATOM      3  C   UNL     1       1.906   9.056  18.499  0.00  0.00    +0.000 C 
ATOM      4  O   UNL     1       2.348   9.728  17.581  0.00  0.00    +0.000 OA
ATOM      5  N   UNL     1       1.099   9.552  19.503  0.00  0.00    +0.000 N 
ATOM      6  H   UNL     1       1.302   7.161  18.722  0.00  0.00    +0.000 HD
ATOM      7  H   UNL     1       1.124   9.087  20.398  0.00  0.00    +0.000 HD
BRANCH   5   8
ATOM      8  C   UNL     1       0.174  10.617  19.337  0.00  0.00    +0.000 A 
ATOM      9  C   UNL     1       0.454  11.832  19.968  0.00  0.00    +0.000 A 
ATOM     10  C   UNL     1       0.034  13.041  19.410  0.00  0.00    +0.000 A 
ATOM     11  C   UNL     1      -0.780  13.084  18.275  0.00  0.00    +0.000 A 
ATOM     12  C   UNL     1      -1.171  11.862  17.748  0.00  0.00    +0.000 A 
ATOM     13  N   UNL     1      -1.941  11.530  16.661  0.00  0.00    +0.000 N 
ATOM     14  N   UNL     1      -2.459  10.293  16.754  0.00  0.00    +0.000 NA
ATOM     15  C   UNL     1      -1.818   9.789  17.818  0.00  0.00    +0.000 A 
ATOM     16  C   UNL     1      -0.797  10.642  18.308  0.00  0.00    +0.000 A 
ATOM     17  H   UNL     1      -2.223  12.122  15.885  0.00  0.00    +0.000 HD
ENDBRANCH   5   8
ENDBRANCH   1   2
BRANCH   1  20
ATOM     18  C   UNL     1       2.751   4.061  19.032  0.00  0.00    +0.000 A 
ATOM     19  C   UNL     1       3.550   5.193  19.416  0.00  0.00    +0.000 A 
ATOM     20  C   UNL     1       3.728   5.888  18.244  0.00  0.00    +0.000 A 
ATOM     21  N   UNL     1       3.932   4.819  17.374  0.00  0.00    +0.000 N 
ATOM     22  N   UNL     1       3.027   3.810  17.706  0.00  0.00    +0.000 NA
BRANCH  21  23
ATOM     23  C   UNL     1       4.970   4.833  16.425  0.00  0.00    +0.000 A 
ATOM     24  C   UNL     1       6.167   5.521  16.773  0.00  0.00    +0.000 A 
ATOM     25  C   UNL     1       7.194   5.668  15.860  0.00  0.00    +0.000 A 
ATOM     26  C   UNL     1       7.048   5.131  14.596  0.00  0.00    +0.000 A 
ATOM     27  F   UNL     1       8.037   5.315  13.715  0.00  0.00    +0.000 F 
ATOM     28  C   UNL     1       5.911   4.405  14.241  0.00  0.00    +0.000 A 
ATOM     29  C   UNL     1       4.866   4.218  15.163  0.00  0.00    +0.000 A 
ENDBRANCH  21  23
BRANCH  18  31
ATOM     30  C   UNL     1       0.843   4.444  20.586  0.00  0.00    +0.000 C 
ATOM     31  C   UNL     1       1.801   3.370  19.983  0.00  0.00    +0.000 C 
ATOM     32  C   UNL     1       2.588   2.752  21.155  0.00  0.00    +0.000 C 
ATOM     33  C   UNL     1       0.907   2.290  19.363  0.00  0.00    +0.000 C 
ENDBRANCH  18  31
ENDBRANCH   1  20
TORSDOF 5
ENDMDL
MODEL 2
REMARK VINA RESULT:      -8.9      0.370      1.267
REMARK  Name = 
REMARK  8 active torsions:
REMARK  status: ('A' for Active; 'I' for Inactive)
REMARK    1  A    between atoms: C_1  and  C_2
REMARK    2  A    between atoms: C_2  and  C_3
REMARK    3  A    between atoms: C_2  and  C_4
REMARK    4  A    between atoms: C_2  and  C_5
REMARK    5  A    between atoms: C_7  and  C_8
REMARK    6  A    between atoms: C_8  and  N_9
REMARK    7  A    between atoms: N_12  and  C_13
REMARK    8  A    between atoms: N_22  and  C_23
REMARK                            x       y       z     vdW  Elec       q    Type
REMARK                         _______ _______ _______ _____ _____    ______ ____
ROOT
ATOM      1  C   UNL     1       2.837   7.136  17.855  0.00  0.00    +0.000 C 
ENDROOT
BRANCH   1   2
ATOM      2  N   UNL     1       2.017   7.749  18.878  0.00  0.00    +0.000 N 
ATOM      3  C   UNL     1       1.735   9.098  18.701  0.00  0.00    +0.000 C 
ATOM      4  O   UNL     1       2.027   9.711  17.688  0.00  0.00    +0.000 OA
ATOM      5  N   UNL     1       1.083   9.656  19.783  0.00  0.00    +0.000 N 
ATOM      6  H   UNL     1       1.191   7.221  19.130  0.00  0.00    +0.000 HD
ATOM      7  H   UNL     1       1.247   9.248  20.691  0.00  0.00    +0.000 HD
BRANCH   5   8
ATOM      8  C   UNL     1       0.133  10.707  19.692  0.00  0.00    +0.000 A 
ATOM      9  C   UNL     1       0.337  11.844  20.479  0.00  0.00    +0.000 A 
ATOM     10  C   UNL     1      -0.093  13.100  20.046  0.00  0.00    +0.000 A 
ATOM     11  C   UNL     1      -0.846  13.258  18.880  0.00  0.00    +0.000 A 
ATOM     12  C   UNL     1      -1.166  12.099  18.189  0.00  0.00    +0.000 A 
ATOM     13  N   UNL     1      -1.865  11.880  17.027  0.00  0.00    +0.000 N 
ATOM     14  N   UNL     1      -2.345  10.628  16.941  0.00  0.00    +0.000 NA
ATOM     15  C   UNL     1      -1.745  10.016  17.973  0.00  0.00    +0.000 A 
ATOM     16  C   UNL     1      -0.781  10.831  18.619  0.00  0.00    +0.000 A 
ATOM     17  H   UNL     1      -2.125  12.555  16.313  0.00  0.00    +0.000 HD
ENDBRANCH   5   8
ENDBRANCH   1   2
BRANCH   1  20
ATOM     18  C   UNL     1       2.848   4.026  19.157  0.00  0.00    +0.000 A 
ATOM     19  C   UNL     1       3.491   5.248  19.559  0.00  0.00    +0.000 A 
ATOM     20  C   UNL     1       3.592   5.968  18.393  0.00  0.00    +0.000 A 
ATOM     21  N   UNL     1       3.942   4.942  17.520  0.00  0.00    +0.000 N 
ATOM     22  N   UNL     1       3.171   3.823  17.834  0.00  0.00    +0.000 NA
BRANCH  21  23
ATOM     23  C   UNL     1       4.981   5.096  16.585  0.00  0.00    +0.000 A 
ATOM     24  C   UNL     1       4.870   4.384  15.357  0.00  0.00    +0.000 A 
ATOM     25  C   UNL     1       5.894   4.401  14.428  0.00  0.00    +0.000 A 
ATOM     26  C   UNL     1       7.035   5.128  14.704  0.00  0.00    +0.000 A 
ATOM     27  F   UNL     1       8.029   5.103  13.810  0.00  0.00    +0.000 F 
ATOM     28  C   UNL     1       7.154   5.880  15.873  0.00  0.00    +0.000 A 
ATOM     29  C   UNL     1       6.114   5.900  16.818  0.00  0.00    +0.000 A 
ENDBRANCH  21  23
BRANCH  18  31
ATOM     30  C   UNL     1       1.528   1.921  19.339  0.00  0.00    +0.000 C 
ATOM     31  C   UNL     1       1.983   3.211  20.091  0.00  0.00    +0.000 C 
ATOM     32  C   UNL     1       0.708   4.001  20.450  0.00  0.00    +0.000 C 
ATOM     33  C   UNL     1       2.656   2.745  21.386  0.00  0.00    +0.000 C 
ENDBRANCH  18  31
ENDBRANCH   1  20
TORSDOF 5
ENDMDL
MODEL 3
REMARK VINA RESULT:      -8.9      1.119      1.955
REMARK  Name = 
REMARK  8 active torsions:
REMARK  status: ('A' for Active; 'I' for Inactive)
REMARK    1  A    between atoms: C_1  and  C_2
REMARK    2  A    between atoms: C_2  and  C_3
REMARK    3  A    between atoms: C_2  and  C_4
REMARK    4  A    between atoms: C_2  and  C_5
REMARK    5  A    between atoms: C_7  and  C_8
REMARK    6  A    between atoms: C_8  and  N_9
REMARK    7  A    between atoms: N_12  and  C_13
REMARK    8  A    between atoms: N_22  and  C_23
REMARK                            x       y       z     vdW  Elec       q    Type
REMARK                         _______ _______ _______ _____ _____    ______ ____
ROOT
ATOM      1  C   UNL     1       3.513   7.404  17.819  0.00  0.00    +0.000 C 
ENDROOT
BRANCH   1   2
ATOM      2  N   UNL     1       2.237   7.779  18.392  0.00  0.00    +0.000 N 
ATOM      3  C   UNL     1       1.787   9.058  18.086  0.00  0.00    +0.000 C 
ATOM      4  O   UNL     1       2.343   9.782  17.277  0.00  0.00    +0.000 OA
ATOM      5  N   UNL     1       0.648   9.407  18.784  0.00  0.00    +0.000 N 
ATOM      6  H   UNL     1       1.506   7.087  18.285  0.00  0.00    +0.000 HD
ATOM      7  H   UNL     1       0.500   8.977  19.685  0.00  0.00    +0.000 HD
BRANCH   5   8
ATOM      8  C   UNL     1      -0.369  10.260  18.283  0.00  0.00    +0.000 A 
ATOM      9  C   UNL     1      -1.386   9.687  17.515  0.00  0.00    +0.000 A 
ATOM     10  C   UNL     1      -2.676  10.224  17.519  0.00  0.00    +0.000 A 
ATOM     11  C   UNL     1      -2.974  11.415  18.186  0.00  0.00    +0.000 A 
ATOM     12  C   UNL     1      -1.917  12.050  18.821  0.00  0.00    +0.000 A 
ATOM     13  N   UNL     1      -1.844  13.203  19.563  0.00  0.00    +0.000 N 
ATOM     14  N   UNL     1      -0.601  13.712  19.606  0.00  0.00    +0.000 NA
ATOM     15  C   UNL     1       0.132  12.733  19.056  0.00  0.00    +0.000 A 
ATOM     16  C   UNL     1      -0.615  11.555  18.800  0.00  0.00    +0.000 A 
ATOM     17  H   UNL     1      -2.605  13.734  19.977  0.00  0.00    +0.000 HD
ENDBRANCH   5   8
ENDBRANCH   1   2
BRANCH   1  20
ATOM     18  C   UNL     1       2.778   4.379  19.113  0.00  0.00    +0.000 A 
ATOM     19  C   UNL     1       3.725   5.391  19.492  0.00  0.00    +0.000 A 
ATOM     20  C   UNL     1       3.964   6.076  18.325  0.00  0.00    +0.000 A 
ATOM     21  N   UNL     1       4.008   5.005  17.437  0.00  0.00    +0.000 N 
ATOM     22  N   UNL     1       2.988   4.116  17.778  0.00  0.00    +0.000 NA
BRANCH  21  23
ATOM     23  C   UNL     1       5.017   4.901  16.462  0.00  0.00    +0.000 A 
ATOM     24  C   UNL     1       6.275   5.499  16.755  0.00  0.00    +0.000 A 
ATOM     25  C   UNL     1       7.285   5.529  15.811  0.00  0.00    +0.000 A 
ATOM     26  C   UNL     1       7.061   4.962  14.572  0.00  0.00    +0.000 A 
ATOM     27  F   UNL     1       8.037   5.033  13.662  0.00  0.00    +0.000 F 
ATOM     28  C   UNL     1       5.859   4.320  14.273  0.00  0.00    +0.000 A 
ATOM     29  C   UNL     1       4.829   4.253  15.226  0.00  0.00    +0.000 A 
ENDBRANCH  21  23
BRANCH  18  31
ATOM     30  C   UNL     1       0.905   2.749  19.314  0.00  0.00    +0.000 C 
ATOM     31  C   UNL     1       1.768   3.801  20.078  0.00  0.00    +0.000 C 
ATOM     32  C   UNL     1       0.811   4.908  20.564  0.00  0.00    +0.000 C 
ATOM     33  C   UNL     1       2.350   3.081  21.299  0.00  0.00    +0.000 C 
ENDBRANCH  18  31
ENDBRANCH   1  20
TORSDOF 5
ENDMDL
MODEL 4
REMARK VINA RESULT:      -8.4      1.398      2.449
REMARK  Name = 
REMARK  8 active torsions:
REMARK  status: ('A' for Active; 'I' for Inactive)
REMARK    1  A    between atoms: C_1  and  C_2
REMARK    2  A    between atoms: C_2  and  C_3
REMARK    3  A    between atoms: C_2  and  C_4
REMARK    4  A    between atoms: C_2  and  C_5
REMARK    5  A    between atoms: C_7  and  C_8
REMARK    6  A    between atoms: C_8  and  N_9
REMARK    7  A    between atoms: N_12  and  C_13
REMARK    8  A    between atoms: N_22  and  C_23
REMARK                            x       y       z     vdW  Elec       q    Type
REMARK                         _______ _______ _______ _____ _____    ______ ____
ROOT
ATOM      1  C   UNL     1       2.896   7.103  17.702  0.00  0.00    +0.000 C 
ENDROOT
BRANCH   1   2
ATOM      2  N   UNL     1       2.052   7.742  18.689  0.00  0.00    +0.000 N 
ATOM      3  C   UNL     1       1.819   9.099  18.502  0.00  0.00    +0.000 C 
ATOM      4  O   UNL     1       2.175   9.702  17.503  0.00  0.00    +0.000 OA
ATOM      5  N   UNL     1       1.139   9.677  19.554  0.00  0.00    +0.000 N 
ATOM      6  H   UNL     1       1.200   7.239  18.905  0.00  0.00    +0.000 HD
ATOM      7  H   UNL     1       1.250   9.264  20.468  0.00  0.00    +0.000 HD
BRANCH   5   8
ATOM      8  C   UNL     1       0.227  10.757  19.424  0.00  0.00    +0.000 A 
ATOM      9  C   UNL     1      -0.869  10.590  18.572  0.00  0.00    +0.000 A 
ATOM     10  C   UNL     1      -2.080  11.236  18.830  0.00  0.00    +0.000 A 
ATOM     11  C   UNL     1      -2.214  12.161  19.868  0.00  0.00    +0.000 A 
ATOM     12  C   UNL     1      -1.074  12.426  20.612  0.00  0.00    +0.000 A 
ATOM     13  N   UNL     1      -0.843  13.249  21.686  0.00  0.00    +0.000 N 
ATOM     14  N   UNL     1       0.455  13.572  21.819  0.00  0.00    +0.000 NA
ATOM     15  C   UNL     1       1.049  12.758  20.935  0.00  0.00    +0.000 A 
ATOM     16  C   UNL     1       0.156  11.824  20.351  0.00  0.00    +0.000 A 
ATOM     17  H   UNL     1      -1.523  13.693  22.296  0.00  0.00    +0.000 HD
ENDBRANCH   5   8
ENDBRANCH   1   2
BRANCH   1  20
ATOM     18  C   UNL     1       2.892   4.047  19.126  0.00  0.00    +0.000 A 
ATOM     19  C   UNL     1       3.535   5.282  19.483  0.00  0.00    +0.000 A 
ATOM     20  C   UNL     1       3.645   5.956  18.291  0.00  0.00    +0.000 A 
ATOM     21  N   UNL     1       3.998   4.895  17.461  0.00  0.00    +0.000 N 
ATOM     22  N   UNL     1       3.222   3.791  17.814  0.00  0.00    +0.000 NA
BRANCH  21  23
ATOM     23  C   UNL     1       5.044   5.010  16.527  0.00  0.00    +0.000 A 
ATOM     24  C   UNL     1       4.873   4.364  15.270  0.00  0.00    +0.000 A 
ATOM     25  C   UNL     1       5.893   4.343  14.336  0.00  0.00    +0.000 A 
ATOM     26  C   UNL     1       7.088   4.967  14.636  0.00  0.00    +0.000 A 
ATOM     27  F   UNL     1       8.074   4.905  13.736  0.00  0.00    +0.000 F 
ATOM     28  C   UNL     1       7.268   5.655  15.836  0.00  0.00    +0.000 A 
ATOM     29  C   UNL     1       6.235   5.713  16.788  0.00  0.00    +0.000 A 
ENDBRANCH  21  23
BRANCH  18  31
ATOM     30  C   UNL     1       1.460   2.020  19.340  0.00  0.00    +0.000 C 
ATOM     31  C   UNL     1       2.019   3.272  20.086  0.00  0.00    +0.000 C 
ATOM     32  C   UNL     1       0.808   4.129  20.505  0.00  0.00    +0.000 C 
ATOM     33  C   UNL     1       2.715   2.750  21.348  0.00  0.00    +0.000 C 
ENDBRANCH  18  31
ENDBRANCH   1  20
TORSDOF 5
ENDMDL
MODEL 5
REMARK VINA RESULT:      -8.4      3.432      8.729
REMARK  Name = 
REMARK  8 active torsions:
REMARK  status: ('A' for Active; 'I' for Inactive)
REMARK    1  A    between atoms: C_1  and  C_2
REMARK    2  A    between atoms: C_2  and  C_3
REMARK    3  A    between atoms: C_2  and  C_4
REMARK    4  A    between atoms: C_2  and  C_5
REMARK    5  A    between atoms: C_7  and  C_8
REMARK    6  A    between atoms: C_8  and  N_9
REMARK    7  A    between atoms: N_12  and  C_13
REMARK    8  A    between atoms: N_22  and  C_23
REMARK                            x       y       z     vdW  Elec       q    Type
REMARK                         _______ _______ _______ _____ _____    ______ ____
ROOT
ATOM      1  C   UNL     1       0.957  10.336  18.514  0.00  0.00    +0.000 C 
ENDROOT
BRANCH   1   2
ATOM      2  N   UNL     1       1.386   9.159  17.790  0.00  0.00    +0.000 N 
ATOM      3  C   UNL     1       2.062   8.200  18.535  0.00  0.00    +0.000 C 
ATOM      4  O   UNL     1       2.173   8.258  19.748  0.00  0.00    +0.000 OA
ATOM      5  N   UNL     1       2.576   7.181  17.758  0.00  0.00    +0.000 N 
ATOM      6  H   UNL     1       0.677   8.745  17.198  0.00  0.00    +0.000 HD
ATOM      7  H   UNL     1       2.813   7.395  16.801  0.00  0.00    +0.000 HD
BRANCH   5   8
ATOM      8  C   UNL     1       2.711   5.835  18.187  0.00  0.00    +0.000 A 
ATOM      9  C   UNL     1       1.646   4.961  17.949  0.00  0.00    +0.000 A 
ATOM     10  C   UNL     1       1.873   3.601  17.730  0.00  0.00    +0.000 A 
ATOM     11  C   UNL     1       3.145   3.037  17.858  0.00  0.00    +0.000 A 
ATOM     12  C   UNL     1       4.166   3.894  18.241  0.00  0.00    +0.000 A 
ATOM     13  N   UNL     1       5.508   3.695  18.450  0.00  0.00    +0.000 N 
ATOM     14  N   UNL     1       6.053   4.635  19.241  0.00  0.00    +0.000 NA
ATOM     15  C   UNL     1       5.066   5.538  19.340  0.00  0.00    +0.000 A 
ATOM     16  C   UNL     1       3.959   5.247  18.502  0.00  0.00    +0.000 A 
ATOM     17  H   UNL     1       6.079   2.904  18.165  0.00  0.00    +0.000 HD
ENDBRANCH   5   8
ENDBRANCH   1   2
BRANCH   1  20
ATOM     18  C   UNL     1      -1.265  11.132  20.922  0.00  0.00    +0.000 A 
ATOM     19  C   UNL     1      -0.731   9.874  20.472  0.00  0.00    +0.000 A 
ATOM     20  C   UNL     1      -0.364  10.116  19.170  0.00  0.00    +0.000 A 
ATOM     21  N   UNL     1      -1.444  10.899  18.771  0.00  0.00    +0.000 N 
ATOM     22  N   UNL     1      -1.750  11.779  19.808  0.00  0.00    +0.000 NA
BRANCH  21  23
ATOM     23  C   UNL     1      -2.094  10.680  17.543  0.00  0.00    +0.000 A 
ATOM     24  C   UNL     1      -3.221  11.496  17.242  0.00  0.00    +0.000 A 
ATOM     25  C   UNL     1      -3.976  11.278  16.105  0.00  0.00    +0.000 A 
ATOM     26  C   UNL     1      -3.619  10.253  15.251  0.00  0.00    +0.000 A 
ATOM     27  F   UNL     1      -4.382  10.034  14.176  0.00  0.00    +0.000 F 
ATOM     28  C   UNL     1      -2.489   9.470  15.488  0.00  0.00    +0.000 A 
ATOM     29  C   UNL     1      -1.691   9.692  16.624  0.00  0.00    +0.000 A 
ENDBRANCH  21  23
BRANCH  18  31
ATOM     30  C   UNL     1      -0.311  12.828  22.477  0.00  0.00    +0.000 C 
ATOM     31  C   UNL     1      -1.224  11.567  22.369  0.00  0.00    +0.000 C 
ATOM     32  C   UNL     1      -0.580  10.464  23.232  0.00  0.00    +0.000 C 
ATOM     33  C   UNL     1      -2.573  11.953  22.987  0.00  0.00    +0.000 C 
ENDBRANCH  18  31
ENDBRANCH   1  20
TORSDOF 5
ENDMDL
MODEL 6
REMARK VINA RESULT:      -8.1      2.900      5.267
REMARK  Name = 
REMARK  8 active torsions:
REMARK  status: ('A' for Active; 'I' for Inactive)
REMARK    1  A    between atoms: C_1  and  C_2
REMARK    2  A    between atoms: C_2  and  C_3
REMARK    3  A    between atoms: C_2  and  C_4
REMARK    4  A    between atoms: C_2  and  C_5
REMARK    5  A    between atoms: C_7  and  C_8
REMARK    6  A    between atoms: C_8  and  N_9
REMARK    7  A    between atoms: N_12  and  C_13
REMARK    8  A    between atoms: N_22  and  C_23
REMARK                            x       y       z     vdW  Elec       q    Type
REMARK                         _______ _______ _______ _____ _____    ______ ____
ROOT
ATOM      1  C   UNL     1       2.634   6.904  17.658  0.00  0.00    +0.000 C 
ENDROOT
BRANCH   1   2
ATOM      2  N   UNL     1       2.409   7.357  19.014  0.00  0.00    +0.000 N 
ATOM      3  C   UNL     1       1.649   8.512  19.151  0.00  0.00    +0.000 C 
ATOM      4  O   UNL     1       1.080   9.047  18.213  0.00  0.00    +0.000 OA
ATOM      5  N   UNL     1       1.601   8.973  20.451  0.00  0.00    +0.000 N 
ATOM      6  H   UNL     1       2.113   6.633  19.657  0.00  0.00    +0.000 HD
ATOM      7  H   UNL     1       2.383   8.760  21.053  0.00  0.00    +0.000 HD
BRANCH   5   8
ATOM      8  C   UNL     1       0.492   9.649  21.022  0.00  0.00    +0.000 A 
ATOM      9  C   UNL     1      -0.200   9.014  22.058  0.00  0.00    +0.000 A 
ATOM     10  C   UNL     1      -0.823   9.757  23.063  0.00  0.00    +0.000 A 
ATOM     11  C   UNL     1      -0.887  11.152  23.013  0.00  0.00    +0.000 A 
ATOM     12  C   UNL     1      -0.324  11.759  21.901  0.00  0.00    +0.000 A 
ATOM     13  N   UNL     1      -0.196  13.075  21.532  0.00  0.00    +0.000 N 
ATOM     14  N   UNL     1      -0.018  13.226  20.209  0.00  0.00    +0.000 NA
ATOM     15  C   UNL     1       0.178  11.965  19.797  0.00  0.00    +0.000 A 
ATOM     16  C   UNL     1       0.271  11.038  20.867  0.00  0.00    +0.000 A 
ATOM     17  H   UNL     1      -0.314  13.904  22.108  0.00  0.00    +0.000 HD
ENDBRANCH   5   8
ENDBRANCH   1   2
BRANCH   1  20
ATOM     18  C   UNL     1       5.625   5.347  17.717  0.00  0.00    +0.000 A 
ATOM     19  C   UNL     1       4.480   5.217  16.856  0.00  0.00    +0.000 A 
ATOM     20  C   UNL     1       3.430   5.643  17.633  0.00  0.00    +0.000 A 
ATOM     21  N   UNL     1       3.791   5.060  18.844  0.00  0.00    +0.000 N 
ATOM     22  N   UNL     1       5.167   5.217  19.010  0.00  0.00    +0.000 NA
BRANCH  21  23
ATOM     23  C   UNL     1       2.853   4.372  19.636  0.00  0.00    +0.000 A 
ATOM     24  C   UNL     1       3.069   4.356  21.043  0.00  0.00    +0.000 A 
ATOM     25  C   UNL     1       2.252   3.619  21.880  0.00  0.00    +0.000 A 
ATOM     26  C   UNL     1       1.210   2.896  21.333  0.00  0.00    +0.000 A 
ATOM     27  F   UNL     1       0.454   2.161  22.154  0.00  0.00    +0.000 F 
ATOM     28  C   UNL     1       0.939   2.933  19.965  0.00  0.00    +0.000 A 
ATOM     29  C   UNL     1       1.739   3.698  19.099  0.00  0.00    +0.000 A 
ENDBRANCH  21  23
BRANCH  18  31
ATOM     30  C   UNL     1       7.032   5.295  15.663  0.00  0.00    +0.000 C 
ATOM     31  C   UNL     1       7.018   5.603  17.193  0.00  0.00    +0.000 C 
ATOM     32  C   UNL     1       8.017   4.637  17.860  0.00  0.00    +0.000 C 
ATOM     33  C   UNL     1       7.537   7.037  17.351  0.00  0.00    +0.000 C 
ENDBRANCH  18  31
ENDBRANCH   1  20
TORSDOF 5
ENDMDL
MODEL 7
REMARK VINA RESULT:      -8.1      2.494      4.831
REMARK  Name = 
REMARK  8 active torsions:
REMARK  status: ('A' for Active; 'I' for Inactive)
REMARK    1  A    between atoms: C_1  and  C_2
REMARK    2  A    between atoms: C_2  and  C_3
REMARK    3  A    between atoms: C_2  and  C_4
REMARK    4  A    between atoms: C_2  and  C_5
REMARK    5  A    between atoms: C_7  and  C_8
REMARK    6  A    between atoms: C_8  and  N_9
REMARK    7  A    between atoms: N_12  and  C_13
REMARK    8  A    between atoms: N_22  and  C_23
REMARK                            x       y       z     vdW  Elec       q    Type
REMARK                         _______ _______ _______ _____ _____    ______ ____
ROOT
ATOM      1  C   UNL     1       3.532   6.845  18.903  0.00  0.00    +0.000 C 
ENDROOT
BRANCH   1   2
ATOM      2  N   UNL     1       2.875   7.918  18.186  0.00  0.00    +0.000 N 
ATOM      3  C   UNL     1       1.810   8.523  18.842  0.00  0.00    +0.000 C 
ATOM      4  O   UNL     1       1.519   8.280  20.001  0.00  0.00    +0.000 OA
ATOM      5  N   UNL     1       1.135   9.428  18.047  0.00  0.00    +0.000 N 
ATOM      6  H   UNL     1       3.504   8.600  17.778  0.00  0.00    +0.000 HD
ATOM      7  H   UNL     1       1.146   9.276  17.049  0.00  0.00    +0.000 HD
BRANCH   5   8
ATOM      8  C   UNL     1       0.502  10.603  18.529  0.00  0.00    +0.000 A 
ATOM      9  C   UNL     1       1.314  11.668  18.929  0.00  0.00    +0.000 A 
ATOM     10  C   UNL     1       0.876  12.988  18.803  0.00  0.00    +0.000 A 
ATOM     11  C   UNL     1      -0.423  13.296  18.391  0.00  0.00    +0.000 A 
ATOM     12  C   UNL     1      -1.264  12.222  18.140  0.00  0.00    +0.000 A 
ATOM     13  N   UNL     1      -2.569  12.149  17.719  0.00  0.00    +0.000 N 
ATOM     14  N   UNL     1      -3.150  10.980  18.038  0.00  0.00    +0.000 NA
ATOM     15  C   UNL     1      -2.113  10.249  18.472  0.00  0.00    +0.000 A 
ATOM     16  C   UNL     1      -0.863  10.896  18.294  0.00  0.00    +0.000 A 
ATOM     17  H   UNL     1      -3.137  12.881  17.303  0.00  0.00    +0.000 HD
ENDBRANCH   5   8
ENDBRANCH   1   2
BRANCH   1  20
ATOM     18  C   UNL     1       5.138   4.629  16.934  0.00  0.00    +0.000 A 
ATOM     19  C   UNL     1       3.865   5.287  16.816  0.00  0.00    +0.000 A 
ATOM     20  C   UNL     1       3.521   5.581  18.113  0.00  0.00    +0.000 A 
ATOM     21  N   UNL     1       3.942   4.406  18.732  0.00  0.00    +0.000 N 
ATOM     22  N   UNL     1       5.167   4.037  18.177  0.00  0.00    +0.000 NA
BRANCH  21  23
ATOM     23  C   UNL     1       3.135   3.744  19.676  0.00  0.00    +0.000 A 
ATOM     24  C   UNL     1       1.741   4.031  19.662  0.00  0.00    +0.000 A 
ATOM     25  C   UNL     1       0.895   3.502  20.619  0.00  0.00    +0.000 A 
ATOM     26  C   UNL     1       1.422   2.678  21.595  0.00  0.00    +0.000 A 
ATOM     27  F   UNL     1       0.595   2.205  22.533  0.00  0.00    +0.000 F 
ATOM     28  C   UNL     1       2.774   2.334  21.604  0.00  0.00    +0.000 A 
ATOM     29  C   UNL     1       3.646   2.838  20.624  0.00  0.00    +0.000 A 
ENDBRANCH  21  23
BRANCH  18  31
ATOM     30  C   UNL     1       7.592   4.582  16.509  0.00  0.00    +0.000 C 
ATOM     31  C   UNL     1       6.184   4.669  15.843  0.00  0.00    +0.000 C 
ATOM     32  C   UNL     1       6.116   6.017  15.099  0.00  0.00    +0.000 C 
ATOM     33  C   UNL     1       6.118   3.534  14.816  0.00  0.00    +0.000 C 
ENDBRANCH  18  31
ENDBRANCH   1  20
TORSDOF 5
ENDMDL
MODEL 8
REMARK VINA RESULT:      -8.1      3.453      8.843
REMARK  Name = 
REMARK  8 active torsions:
REMARK  status: ('A' for Active; 'I' for Inactive)
REMARK    1  A    between atoms: C_1  and  C_2
REMARK    2  A    between atoms: C_2  and  C_3
REMARK    3  A    between atoms: C_2  and  C_4
REMARK    4  A    between atoms: C_2  and  C_5
REMARK    5  A    between atoms: C_7  and  C_8
REMARK    6  A    between atoms: C_8  and  N_9
REMARK    7  A    between atoms: N_12  and  C_13
REMARK    8  A    between atoms: N_22  and  C_23
REMARK                            x       y       z     vdW  Elec       q    Type
REMARK                         _______ _______ _______ _____ _____    ______ ____
ROOT
ATOM      1  C   UNL     1       0.795  10.223  18.523  0.00  0.00    +0.000 C 
ENDROOT
BRANCH   1   2
ATOM      2  N   UNL     1       1.268   8.910  18.140  0.00  0.00    +0.000 N 
ATOM      3  C   UNL     1       2.007   8.227  19.098  0.00  0.00    +0.000 C 
ATOM      4  O   UNL     1       2.141   8.627  20.242  0.00  0.00    +0.000 OA
ATOM      5  N   UNL     1       2.555   7.055  18.618  0.00  0.00    +0.000 N 
ATOM      6  H   UNL     1       0.567   8.317  17.711  0.00  0.00    +0.000 HD
ATOM      7  H   UNL     1       2.761   7.003  17.632  0.00  0.00    +0.000 HD
BRANCH   5   8
ATOM      8  C   UNL     1       2.768   5.890  19.400  0.00  0.00    +0.000 A 
ATOM      9  C   UNL     1       1.658   5.300  20.013  0.00  0.00    +0.000 A 
ATOM     10  C   UNL     1       1.611   3.922  20.233  0.00  0.00    +0.000 A 
ATOM     11  C   UNL     1       2.706   3.096  19.966  0.00  0.00    +0.000 A 
ATOM     12  C   UNL     1       3.852   3.721  19.496  0.00  0.00    +0.000 A 
ATOM     13  N   UNL     1       5.082   3.236  19.128  0.00  0.00    +0.000 N 
ATOM     14  N   UNL     1       6.043   4.175  19.176  0.00  0.00    +0.000 NA
ATOM     15  C   UNL     1       5.340   5.300  19.373  0.00  0.00    +0.000 A 
ATOM     16  C   UNL     1       3.937   5.098  19.304  0.00  0.00    +0.000 A 
ATOM     17  H   UNL     1       5.346   2.275  18.929  0.00  0.00    +0.000 HD
ENDBRANCH   5   8
ENDBRANCH   1   2
BRANCH   1  20
ATOM     18  C   UNL     1      -1.401  11.347  20.821  0.00  0.00    +0.000 A 
ATOM     19  C   UNL     1      -0.958  10.025  20.468  0.00  0.00    +0.000 A 
ATOM     20  C   UNL     1      -0.550  10.149  19.162  0.00  0.00    +0.000 A 
ATOM     21  N   UNL     1      -1.560  10.982  18.686  0.00  0.00    +0.000 N 
ATOM     22  N   UNL     1      -1.816  11.952  19.656  0.00  0.00    +0.000 NA
BRANCH  21  23
ATOM     23  C   UNL     1      -2.203  10.730  17.461  0.00  0.00    +0.000 A 
ATOM     24  C   UNL     1      -3.383  11.473  17.175  0.00  0.00    +0.000 A 
ATOM     25  C   UNL     1      -4.131  11.214  16.042  0.00  0.00    +0.000 A 
ATOM     26  C   UNL     1      -3.714  10.221  15.177  0.00  0.00    +0.000 A 
ATOM     27  F   UNL     1      -4.469   9.961  14.105  0.00  0.00    +0.000 F 
ATOM     28  C   UNL     1      -2.533   9.512  15.400  0.00  0.00    +0.000 A 
ATOM     29  C   UNL     1      -1.743   9.778  16.532  0.00  0.00    +0.000 A 
ENDBRANCH  21  23
BRANCH  18  31
ATOM     30  C   UNL     1      -0.831  10.737  23.168  0.00  0.00    +0.000 C 
ATOM     31  C   UNL     1      -1.352  11.875  22.236  0.00  0.00    +0.000 C 
ATOM     32  C   UNL     1      -2.773  12.237  22.712  0.00  0.00    +0.000 C 
ATOM     33  C   UNL     1      -0.433  13.080  22.466  0.00  0.00    +0.000 C 
ENDBRANCH  18  31
ENDBRANCH   1  20
TORSDOF 5
ENDMDL
MODEL 9
REMARK VINA RESULT:      -8.0      1.465      2.321
REMARK  Name = 
REMARK  8 active torsions:
REMARK  status: ('A' for Active; 'I' for Inactive)
REMARK    1  A    between atoms: C_1  and  C_2
REMARK    2  A    between atoms: C_2  and  C_3
REMARK    3  A    between atoms: C_2  and  C_4
REMARK    4  A    between atoms: C_2  and  C_5
REMARK    5  A    between atoms: C_7  and  C_8
REMARK    6  A    between atoms: C_8  and  N_9
REMARK    7  A    between atoms: N_12  and  C_13
REMARK    8  A    between atoms: N_22  and  C_23
REMARK                            x       y       z     vdW  Elec       q    Type
REMARK                         _______ _______ _______ _____ _____    ______ ____
ROOT
ATOM      1  C   UNL     1       2.738   7.038  17.662  0.00  0.00    +0.000 C 
ENDROOT
BRANCH   1   2
ATOM      2  N   UNL     1       2.035   7.829  18.649  0.00  0.00    +0.000 N 
ATOM      3  C   UNL     1       1.857   9.171  18.336  0.00  0.00    +0.000 C 
ATOM      4  O   UNL     1       2.139   9.643  17.247  0.00  0.00    +0.000 OA
ATOM      5  N   UNL     1       1.319   9.899  19.379  0.00  0.00    +0.000 N 
ATOM      6  H   UNL     1       1.184   7.408  19.000  0.00  0.00    +0.000 HD
ATOM      7  H   UNL     1       1.501   9.578  20.317  0.00  0.00    +0.000 HD
BRANCH   5   8
ATOM      8  C   UNL     1       0.457  11.015  19.218  0.00  0.00    +0.000 A 
ATOM      9  C   UNL     1      -0.899  10.843  19.509  0.00  0.00    +0.000 A 
ATOM     10  C   UNL     1      -1.666  11.905  19.994  0.00  0.00    +0.000 A 
ATOM     11  C   UNL     1      -1.151  13.200  20.093  0.00  0.00    +0.000 A 
ATOM     12  C   UNL     1       0.153  13.382  19.658  0.00  0.00    +0.000 A 
ATOM     13  N   UNL     1       0.967  14.487  19.618  0.00  0.00    +0.000 N 
ATOM     14  N   UNL     1       1.963  14.363  18.724  0.00  0.00    +0.000 NA
ATOM     15  C   UNL     1       1.874  13.073  18.368  0.00  0.00    +0.000 A 
ATOM     16  C   UNL     1       0.927  12.348  19.136  0.00  0.00    +0.000 A 
ATOM     17  H   UNL     1       0.845  15.375  20.096  0.00  0.00    +0.000 HD
ENDBRANCH   5   8
ENDBRANCH   1   2
BRANCH   1  20
ATOM     18  C   UNL     1       2.831   4.025  19.173  0.00  0.00    +0.000 A 
ATOM     19  C   UNL     1       3.407   5.298  19.512  0.00  0.00    +0.000 A 
ATOM     20  C   UNL     1       3.521   5.943  18.304  0.00  0.00    +0.000 A 
ATOM     21  N   UNL     1       3.944   4.877  17.515  0.00  0.00    +0.000 N 
ATOM     22  N   UNL     1       3.209   3.749  17.878  0.00  0.00    +0.000 NA
BRANCH  21  23
ATOM     23  C   UNL     1       5.009   5.013  16.606  0.00  0.00    +0.000 A 
ATOM     24  C   UNL     1       4.855   4.422  15.321  0.00  0.00    +0.000 A 
ATOM     25  C   UNL     1       5.892   4.423  14.406  0.00  0.00    +0.000 A 
ATOM     26  C   UNL     1       7.090   5.015  14.755  0.00  0.00    +0.000 A 
ATOM     27  F   UNL     1       8.092   4.975  13.871  0.00  0.00    +0.000 F 
ATOM     28  C   UNL     1       7.256   5.651  15.985  0.00  0.00    +0.000 A 
ATOM     29  C   UNL     1       6.206   5.686  16.919  0.00  0.00    +0.000 A 
ENDBRANCH  21  23
BRANCH  18  31
ATOM     30  C   UNL     1       1.384   2.006  19.369  0.00  0.00    +0.000 C 
ATOM     31  C   UNL     1       1.966   3.238  20.131  0.00  0.00    +0.000 C 
ATOM     32  C   UNL     1       0.770   4.097  20.587  0.00  0.00    +0.000 C 
ATOM     33  C   UNL     1       2.678   2.684  21.370  0.00  0.00    +0.000 C 
ENDBRANCH  18  31
ENDBRANCH   1  20
TORSDOF 5
ENDMDL
