MODEL 1
REMARK VINA RESULT:      -7.5      0.000      0.000
REMARK  Name = 
REMARK  6 active torsions:
REMARK  status: ('A' for Active; 'I' for Inactive)
REMARK    1  A    between atoms: C_1  and  C_2
REMARK    2  A    between atoms: C_2  and  C_3
REMARK    3  A    between atoms: C_4  and  S_5
REMARK    4  A    between atoms: S_5  and  C_6
REMARK    5  A    between atoms: N_12  and  O_13
REMARK    6  A    between atoms: O_13  and  C_14
REMARK                            x       y       z     vdW  Elec       q    Type
REMARK                         _______ _______ _______ _____ _____    ______ ____
ROOT
ATOM      1  C   UNL     1       1.877   3.562  19.423  0.00  0.00    +0.000 A 
ATOM      2  C   UNL     1       3.062   4.074  19.012  0.00  0.00    +0.000 A 
ATOM      3  N   UNL     1       3.789   3.392  18.031  0.00  0.00    +0.000 N 
ATOM      4  C   UNL     1       3.564   2.052  17.761  0.00  0.00    +0.000 A 
ATOM      5  O   UNL     1       4.300   1.296  17.124  0.00  0.00    +0.000 OA
ATOM      6  N   UNL     1       2.373   1.558  18.222  0.00  0.00    +0.000 N 
ATOM      7  C   UNL     1       1.389   2.385  18.654  0.00  0.00    +0.000 A 
ATOM      8  O   UNL     1       0.206   2.153  18.468  0.00  0.00    +0.000 OA
ATOM      9  H   UNL     1       2.092   0.688  17.809  0.00  0.00    +0.000 HD
ENDROOT
BRANCH   1  11
ATOM     10  C   UNL     1       1.196   3.010  21.751  0.00  0.00    +0.000 C 
ATOM     11  C   UNL     1       0.948   3.929  20.557  0.00  0.00    +0.000 C 
ENDBRANCH   1  11
BRANCH   2  12
ATOM     12  S   UNL     1       3.846   5.435  19.784  0.00  0.00    +0.000 S 
BRANCH  12  13
ATOM     13  C   UNL     1       2.779   6.812  19.418  0.00  0.00    +0.000 A 
ATOM     14  C   UNL     1       2.769   7.308  18.106  0.00  0.00    +0.000 A 
ATOM     15  C   UNL     1       2.047   8.461  17.788  0.00  0.00    +0.000 A 
ATOM     16  C   UNL     1       1.324   9.121  18.777  0.00  0.00    +0.000 A 
ATOM     17  C   UNL     1       1.271   8.596  20.067  0.00  0.00    +0.000 A 
ATOM     18  C   UNL     1       1.977   7.434  20.379  0.00  0.00    +0.000 A 
ENDBRANCH  12  13
ENDBRANCH   2  12
BRANCH   3  19
ATOM     19  O   UNL     1       5.014   3.983  17.584  0.00  0.00    +0.000 OA
BRANCH  19  20
ATOM     20  C   UNL     1       4.809   4.898  16.486  0.00  0.00    +0.000 C 
ATOM     21  C   UNL     1       5.749   6.102  16.510  0.00  0.00    +0.000 C 
ATOM     22  C   UNL     1       7.165   5.820  16.025  0.00  0.00    +0.000 C 
ATOM     23  C   UNL     1       7.227   5.046  14.714  0.00  0.00    +0.000 C 
ATOM     24  C   UNL     1       6.293   3.844  14.657  0.00  0.00    +0.000 C 
ATOM     25  C   UNL     1       4.884   4.136  15.157  0.00  0.00    +0.000 C 
ENDBRANCH  19  20
ENDBRANCH   3  19
TORSDOF 5
ENDMDL
MODEL 2
REMARK VINA RESULT:      -7.1      1.324      1.783
REMARK  Name = 
REMARK  6 active torsions:
REMARK  status: ('A' for Active; 'I' for Inactive)
REMARK    1  A    between atoms: C_1  and  C_2
REMARK    2  A    between atoms: C_2  and  C_3
REMARK    3  A    between atoms: C_4  and  S_5
REMARK    4  A    between atoms: S_5  and  C_6
REMARK    5  A    between atoms: N_12  and  O_13
REMARK    6  A    between atoms: O_13  and  C_14
REMARK                            x       y       z     vdW  Elec       q    Type
REMARK                         _______ _______ _______ _____ _____    ______ ____
ROOT
ATOM      1  C   UNL     1       1.766   3.843  19.414  0.00  0.00    +0.000 A 
ATOM      2  C   UNL     1       2.730   4.712  19.026  0.00  0.00    +0.000 A 
ATOM      3  N   UNL     1       3.432   4.458  17.842  0.00  0.00    +0.000 N 
ATOM      4  C   UNL     1       3.473   3.193  17.280  0.00  0.00    +0.000 A 
ATOM      5  O   UNL     1       4.252   2.800  16.409  0.00  0.00    +0.000 OA
ATOM      6  N   UNL     1       2.507   2.329  17.721  0.00  0.00    +0.000 N 
ATOM      7  C   UNL     1       1.441   2.772  18.433  0.00  0.00    +0.000 A 
ATOM      8  O   UNL     1       0.325   2.293  18.312  0.00  0.00    +0.000 OA
ATOM      9  H   UNL     1       2.367   1.524  17.138  0.00  0.00    +0.000 HD
ENDROOT
BRANCH   1  11
ATOM     10  C   UNL     1       1.622   2.700  21.618  0.00  0.00    +0.000 C 
ATOM     11  C   UNL     1       0.963   3.715  20.687  0.00  0.00    +0.000 C 
ENDBRANCH   1  11
BRANCH   2  12
ATOM     12  S   UNL     1       3.300   6.031  20.024  0.00  0.00    +0.000 S 
BRANCH  12  13
ATOM     13  C   UNL     1       2.281   7.409  19.541  0.00  0.00    +0.000 A 
ATOM     14  C   UNL     1       2.299   7.803  18.195  0.00  0.00    +0.000 A 
ATOM     15  C   UNL     1       1.617   8.950  17.782  0.00  0.00    +0.000 A 
ATOM     16  C   UNL     1       0.907   9.706  18.709  0.00  0.00    +0.000 A 
ATOM     17  C   UNL     1       0.825   9.284  20.035  0.00  0.00    +0.000 A 
ATOM     18  C   UNL     1       1.491   8.128  20.443  0.00  0.00    +0.000 A 
ENDBRANCH  12  13
ENDBRANCH   2  12
BRANCH   3  19
ATOM     19  O   UNL     1       4.412   5.420  17.435  0.00  0.00    +0.000 OA
BRANCH  19  20
ATOM     20  C   UNL     1       5.718   4.829  17.263  0.00  0.00    +0.000 C 
ATOM     21  C   UNL     1       6.662   5.672  16.409  0.00  0.00    +0.000 C 
ATOM     22  C   UNL     1       7.284   6.864  17.125  0.00  0.00    +0.000 C 
ATOM     23  C   UNL     1       7.863   6.529  18.495  0.00  0.00    +0.000 C 
ATOM     24  C   UNL     1       6.947   5.682  19.367  0.00  0.00    +0.000 C 
ATOM     25  C   UNL     1       6.321   4.500  18.635  0.00  0.00    +0.000 C 
ENDBRANCH  19  20
ENDBRANCH   3  19
TORSDOF 5
ENDMDL
MODEL 3
REMARK VINA RESULT:      -6.7      2.371      5.168
REMARK  Name = 
REMARK  6 active torsions:
REMARK  status: ('A' for Active; 'I' for Inactive)
REMARK    1  A    between atoms: C_1  and  C_2
REMARK    2  A    between atoms: C_2  and  C_3
REMARK    3  A    between atoms: C_4  and  S_5
REMARK    4  A    between atoms: S_5  and  C_6
REMARK    5  A    between atoms: N_12  and  O_13
REMARK    6  A    between atoms: O_13  and  C_14
REMARK                            x       y       z     vdW  Elec       q    Type
REMARK                         _______ _______ _______ _____ _____    ______ ____
ROOT
ATOM      1  C   UNL     1       3.494   3.073  19.737  0.00  0.00    +0.000 A 
ATOM      2  C   UNL     1       3.185   4.172  19.007  0.00  0.00    +0.000 A 
ATOM      3  N   UNL     1       2.106   4.968  19.408  0.00  0.00    +0.000 N 
ATOM      4  C   UNL     1       1.119   4.483  20.249  0.00  0.00    +0.000 A 
ATOM      5  O   UNL     1       0.013   4.988  20.455  0.00  0.00    +0.000 OA
ATOM      6  N   UNL     1       1.451   3.351  20.944  0.00  0.00    +0.000 N 
ATOM      7  C   UNL     1       2.735   2.917  21.008  0.00  0.00    +0.000 A 
ATOM      8  O   UNL     1       3.205   2.398  22.007  0.00  0.00    +0.000 OA
ATOM      9  H   UNL     1       0.861   3.154  21.732  0.00  0.00    +0.000 HD
ENDROOT
BRANCH   1  11
ATOM     10  C   UNL     1       3.895   1.009  18.409  0.00  0.00    +0.000 C 
ATOM     11  C   UNL     1       4.448   1.927  19.497  0.00  0.00    +0.000 C 
ENDBRANCH   1  11
BRANCH   2  12
ATOM     12  S   UNL     1       3.923   4.546  17.466  0.00  0.00    +0.000 S 
BRANCH  12  13
ATOM     13  C   UNL     1       5.399   5.442  17.901  0.00  0.00    +0.000 A 
ATOM     14  C   UNL     1       5.778   6.523  17.091  0.00  0.00    +0.000 A 
ATOM     15  C   UNL     1       6.988   7.185  17.310  0.00  0.00    +0.000 A 
ATOM     16  C   UNL     1       7.823   6.777  18.346  0.00  0.00    +0.000 A 
ATOM     17  C   UNL     1       7.423   5.751  19.199  0.00  0.00    +0.000 A 
ATOM     18  C   UNL     1       6.206   5.102  18.991  0.00  0.00    +0.000 A 
ENDBRANCH  12  13
ENDBRANCH   2  12
BRANCH   3  19
ATOM     19  O   UNL     1       1.835   6.148  18.643  0.00  0.00    +0.000 OA
BRANCH  19  20
ATOM     20  C   UNL     1       2.585   7.288  19.115  0.00  0.00    +0.000 C 
ATOM     21  C   UNL     1       2.739   8.392  18.071  0.00  0.00    +0.000 C 
ATOM     22  C   UNL     1       1.509   9.268  17.877  0.00  0.00    +0.000 C 
ATOM     23  C   UNL     1       0.892   9.766  19.178  0.00  0.00    +0.000 C 
ATOM     24  C   UNL     1       0.732   8.688  20.243  0.00  0.00    +0.000 C 
ATOM     25  C   UNL     1       1.966   7.810  20.418  0.00  0.00    +0.000 C 
ENDBRANCH  19  20
ENDBRANCH   3  19
TORSDOF 5
ENDMDL
MODEL 4
REMARK VINA RESULT:      -6.4      1.806      4.908
REMARK  Name = 
REMARK  6 active torsions:
REMARK  status: ('A' for Active; 'I' for Inactive)
REMARK    1  A    between atoms: C_1  and  C_2
REMARK    2  A    between atoms: C_2  and  C_3
REMARK    3  A    between atoms: C_4  and  S_5
REMARK    4  A    between atoms: S_5  and  C_6
REMARK    5  A    between atoms: N_12  and  O_13
REMARK    6  A    between atoms: O_13  and  C_14
REMARK                            x       y       z     vdW  Elec       q    Type
REMARK                         _______ _______ _______ _____ _____    ______ ____
ROOT
ATOM      1  C   UNL     1       6.443   5.106  18.321  0.00  0.00    +0.000 A 
ATOM      2  C   UNL     1       5.113   4.876  18.443  0.00  0.00    +0.000 A 
ATOM      3  N   UNL     1       4.439   4.240  17.394  0.00  0.00    +0.000 N 
ATOM      4  C   UNL     1       4.962   4.203  16.112  0.00  0.00    +0.000 A 
ATOM      5  O   UNL     1       4.356   3.912  15.079  0.00  0.00    +0.000 OA
ATOM      6  N   UNL     1       6.300   4.476  16.021  0.00  0.00    +0.000 N 
ATOM      7  C   UNL     1       7.089   4.501  17.125  0.00  0.00    +0.000 A 
ATOM      8  O   UNL     1       8.243   4.106  17.117  0.00  0.00    +0.000 OA
ATOM      9  H   UNL     1       6.728   4.195  15.158  0.00  0.00    +0.000 HD
ENDROOT
BRANCH   1  11
ATOM     10  C   UNL     1       7.904   7.119  18.363  0.00  0.00    +0.000 C 
ATOM     11  C   UNL     1       7.417   5.906  19.153  0.00  0.00    +0.000 C 
ENDBRANCH   1  11
BRANCH   2  12
ATOM     12  S   UNL     1       4.138   5.512  19.748  0.00  0.00    +0.000 S 
BRANCH  12  13
ATOM     13  C   UNL     1       3.299   6.904  19.022  0.00  0.00    +0.000 A 
ATOM     14  C   UNL     1       2.251   7.493  19.744  0.00  0.00    +0.000 A 
ATOM     15  C   UNL     1       1.478   8.507  19.174  0.00  0.00    +0.000 A 
ATOM     16  C   UNL     1       1.753   8.944  17.882  0.00  0.00    +0.000 A 
ATOM     17  C   UNL     1       2.836   8.415  17.183  0.00  0.00    +0.000 A 
ATOM     18  C   UNL     1       3.619   7.415  17.760  0.00  0.00    +0.000 A 
ENDBRANCH  12  13
ENDBRANCH   2  12
BRANCH   3  19
ATOM     19  O   UNL     1       3.045   3.968  17.573  0.00  0.00    +0.000 OA
BRANCH  19  20
ATOM     20  C   UNL     1       2.797   2.585  17.907  0.00  0.00    +0.000 C 
ATOM     21  C   UNL     1       3.724   2.043  18.993  0.00  0.00    +0.000 C 
ATOM     22  C   UNL     1       3.362   2.462  20.412  0.00  0.00    +0.000 C 
ATOM     23  C   UNL     1       1.886   2.288  20.751  0.00  0.00    +0.000 C 
ATOM     24  C   UNL     1       0.937   2.812  19.682  0.00  0.00    +0.000 C 
ATOM     25  C   UNL     1       1.318   2.397  18.265  0.00  0.00    +0.000 C 
ENDBRANCH  19  20
ENDBRANCH   3  19
TORSDOF 5
ENDMDL
MODEL 5
REMARK VINA RESULT:      -6.4      0.848      1.312
REMARK  Name = 
REMARK  6 active torsions:
REMARK  status: ('A' for Active; 'I' for Inactive)
REMARK    1  A    between atoms: C_1  and  C_2
REMARK    2  A    between atoms: C_2  and  C_3
REMARK    3  A    between atoms: C_4  and  S_5
REMARK    4  A    between atoms: S_5  and  C_6
REMARK    5  A    between atoms: N_12  and  O_13
REMARK    6  A    between atoms: O_13  and  C_14
REMARK                            x       y       z     vdW  Elec       q    Type
REMARK                         _______ _______ _______ _____ _____    ______ ____
ROOT
ATOM      1  C   UNL     1       1.772   3.811  19.659  0.00  0.00    +0.000 A 
ATOM      2  C   UNL     1       2.717   4.463  18.940  0.00  0.00    +0.000 A 
ATOM      3  N   UNL     1       3.120   3.927  17.712  0.00  0.00    +0.000 N 
ATOM      4  C   UNL     1       2.907   2.595  17.396  0.00  0.00    +0.000 A 
ATOM      5  O   UNL     1       3.438   1.962  16.481  0.00  0.00    +0.000 OA
ATOM      6  N   UNL     1       1.973   1.957  18.166  0.00  0.00    +0.000 N 
ATOM      7  C   UNL     1       1.136   2.652  18.975  0.00  0.00    +0.000 A 
ATOM      8  O   UNL     1      -0.024   2.322  19.162  0.00  0.00    +0.000 OA
ATOM      9  H   UNL     1       1.629   1.096  17.781  0.00  0.00    +0.000 HD
ENDROOT
BRANCH   1  11
ATOM     10  C   UNL     1       1.802   2.909  21.978  0.00  0.00    +0.000 C 
ATOM     11  C   UNL     1       1.250   4.002  21.064  0.00  0.00    +0.000 C 
ENDBRANCH   1  11
BRANCH   2  12
ATOM     12  S   UNL     1       3.620   5.832  19.548  0.00  0.00    +0.000 S 
BRANCH  12  13
ATOM     13  C   UNL     1       2.516   7.210  19.329  0.00  0.00    +0.000 A 
ATOM     14  C   UNL     1       2.428   7.789  18.055  0.00  0.00    +0.000 A 
ATOM     15  C   UNL     1       1.674   8.947  17.851  0.00  0.00    +0.000 A 
ATOM     16  C   UNL     1       0.995   9.528  18.918  0.00  0.00    +0.000 A 
ATOM     17  C   UNL     1       1.018   8.921  20.171  0.00  0.00    +0.000 A 
ATOM     18  C   UNL     1       1.757   7.755  20.370  0.00  0.00    +0.000 A 
ENDBRANCH  12  13
ENDBRANCH   2  12
BRANCH   3  19
ATOM     19  O   UNL     1       4.085   4.664  16.953  0.00  0.00    +0.000 OA
BRANCH  19  20
ATOM     20  C   UNL     1       5.350   3.975  16.862  0.00  0.00    +0.000 C 
ATOM     21  C   UNL     1       5.841   3.785  15.429  0.00  0.00    +0.000 C 
ATOM     22  C   UNL     1       6.459   5.024  14.793  0.00  0.00    +0.000 C 
ATOM     23  C   UNL     1       7.476   5.732  15.679  0.00  0.00    +0.000 C 
ATOM     24  C   UNL     1       7.018   5.928  17.118  0.00  0.00    +0.000 C 
ATOM     25  C   UNL     1       6.390   4.685  17.738  0.00  0.00    +0.000 C 
ENDBRANCH  19  20
ENDBRANCH   3  19
TORSDOF 5
ENDMDL
MODEL 6
REMARK VINA RESULT:      -6.3      8.974     12.537
REMARK  Name = 
REMARK  6 active torsions:
REMARK  status: ('A' for Active; 'I' for Inactive)
REMARK    1  A    between atoms: C_1  and  C_2
REMARK    2  A    between atoms: C_2  and  C_3
REMARK    3  A    between atoms: C_4  and  S_5
REMARK    4  A    between atoms: S_5  and  C_6
REMARK    5  A    between atoms: N_12  and  O_13
REMARK    6  A    between atoms: O_13  and  C_14
REMARK                            x       y       z     vdW  Elec       q    Type
REMARK                         _______ _______ _______ _____ _____    ______ ____
ROOT
ATOM      1  C   UNL     1      -2.369  14.235  23.724  0.00  0.00    +0.000 A 
ATOM      2  C   UNL     1      -2.948  13.505  22.740  0.00  0.00    +0.000 A 
ATOM      3  N   UNL     1      -4.197  12.921  22.979  0.00  0.00    +0.000 N 
ATOM      4  C   UNL     1      -4.669  12.716  24.265  0.00  0.00    +0.000 A 
ATOM      5  O   UNL     1      -5.609  11.991  24.597  0.00  0.00    +0.000 OA
ATOM      6  N   UNL     1      -4.037  13.442  25.239  0.00  0.00    +0.000 N 
ATOM      7  C   UNL     1      -3.216  14.474  24.924  0.00  0.00    +0.000 A 
ATOM      8  O   UNL     1      -3.145  15.488  25.600  0.00  0.00    +0.000 OA
ATOM      9  H   UNL     1      -4.536  13.501  26.108  0.00  0.00    +0.000 HD
ENDROOT
BRANCH   1  11
ATOM     10  C   UNL     1      -0.894  16.122  23.053  0.00  0.00    +0.000 C 
ATOM     11  C   UNL     1      -0.990  14.835  23.869  0.00  0.00    +0.000 C 
ENDBRANCH   1  11
BRANCH   2  12
ATOM     12  S   UNL     1      -2.135  13.071  21.254  0.00  0.00    +0.000 S 
BRANCH  12  13
ATOM     13  C   UNL     1      -1.183  11.631  21.686  0.00  0.00    +0.000 A 
ATOM     14  C   UNL     1      -0.435  11.007  20.678  0.00  0.00    +0.000 A 
ATOM     15  C   UNL     1       0.232   9.805  20.928  0.00  0.00    +0.000 A 
ATOM     16  C   UNL     1       0.162   9.224  22.191  0.00  0.00    +0.000 A 
ATOM     17  C   UNL     1      -0.520   9.873  23.218  0.00  0.00    +0.000 A 
ATOM     18  C   UNL     1      -1.170  11.082  22.972  0.00  0.00    +0.000 A 
ENDBRANCH  12  13
ENDBRANCH   2  12
BRANCH   3  19
ATOM     19  O   UNL     1      -4.804  12.196  21.904  0.00  0.00    +0.000 OA
BRANCH  19  20
ATOM     20  C   UNL     1      -5.877  12.937  21.284  0.00  0.00    +0.000 C 
ATOM     21  C   UNL     1      -5.599  13.317  19.832  0.00  0.00    +0.000 C 
ATOM     22  C   UNL     1      -5.785  12.187  18.827  0.00  0.00    +0.000 C 
ATOM     23  C   UNL     1      -7.086  11.414  18.998  0.00  0.00    +0.000 C 
ATOM     24  C   UNL     1      -7.396  11.028  20.439  0.00  0.00    +0.000 C 
ATOM     25  C   UNL     1      -7.194  12.164  21.435  0.00  0.00    +0.000 C 
ENDBRANCH  19  20
ENDBRANCH   3  19
TORSDOF 5
ENDMDL
MODEL 7
REMARK VINA RESULT:      -6.3      7.088      9.357
REMARK  Name = 
REMARK  6 active torsions:
REMARK  status: ('A' for Active; 'I' for Inactive)
REMARK    1  A    between atoms: C_1  and  C_2
REMARK    2  A    between atoms: C_2  and  C_3
REMARK    3  A    between atoms: C_4  and  S_5
REMARK    4  A    between atoms: S_5  and  C_6
REMARK    5  A    between atoms: N_12  and  O_13
REMARK    6  A    between atoms: O_13  and  C_14
REMARK                            x       y       z     vdW  Elec       q    Type
REMARK                         _______ _______ _______ _____ _____    ______ ____
ROOT
ATOM      1  C   UNL     1      -0.116  10.103  21.446  0.00  0.00    +0.000 A 
ATOM      2  C   UNL     1       0.074  11.148  20.605  0.00  0.00    +0.000 A 
ATOM      3  N   UNL     1      -0.064  12.448  21.102  0.00  0.00    +0.000 N 
ATOM      4  C   UNL     1      -0.762  12.709  22.270  0.00  0.00    +0.000 A 
ATOM      5  O   UNL     1      -1.166  13.808  22.657  0.00  0.00    +0.000 OA
ATOM      6  N   UNL     1      -0.968  11.624  23.079  0.00  0.00    +0.000 N 
ATOM      7  C   UNL     1      -0.299  10.461  22.879  0.00  0.00    +0.000 A 
ATOM      8  O   UNL     1       0.073   9.750  23.798  0.00  0.00    +0.000 OA
ATOM      9  H   UNL     1      -1.227  11.847  24.023  0.00  0.00    +0.000 HD
ENDROOT
BRANCH   1  11
ATOM     10  C   UNL     1       1.171   8.011  21.052  0.00  0.00    +0.000 C 
ATOM     11  C   UNL     1      -0.223   8.614  21.212  0.00  0.00    +0.000 C 
ENDBRANCH   1  11
BRANCH   2  12
ATOM     12  S   UNL     1       0.279  10.972  18.877  0.00  0.00    +0.000 S 
BRANCH  12  13
ATOM     13  C   UNL     1      -1.384  10.827  18.258  0.00  0.00    +0.000 A 
ATOM     14  C   UNL     1      -1.628   9.903  17.232  0.00  0.00    +0.000 A 
ATOM     15  C   UNL     1      -2.883   9.832  16.623  0.00  0.00    +0.000 A 
ATOM     16  C   UNL     1      -3.905  10.679  17.041  0.00  0.00    +0.000 A 
ATOM     17  C   UNL     1      -3.693  11.551  18.107  0.00  0.00    +0.000 A 
ATOM     18  C   UNL     1      -2.445  11.608  18.727  0.00  0.00    +0.000 A 
ENDBRANCH  12  13
ENDBRANCH   2  12
BRANCH   3  19
ATOM     19  O   UNL     1       0.190  13.531  20.201  0.00  0.00    +0.000 OA
BRANCH  19  20
ATOM     20  C   UNL     1       1.382  14.265  20.552  0.00  0.00    +0.000 C 
ATOM     21  C   UNL     1       2.659  13.682  19.951  0.00  0.00    +0.000 C 
ATOM     22  C   UNL     1       2.881  14.006  18.479  0.00  0.00    +0.000 C 
ATOM     23  C   UNL     1       2.680  15.476  18.132  0.00  0.00    +0.000 C 
ATOM     24  C   UNL     1       1.418  16.089  18.726  0.00  0.00    +0.000 C 
ATOM     25  C   UNL     1       1.202  15.746  20.195  0.00  0.00    +0.000 C 
ENDBRANCH  19  20
ENDBRANCH   3  19
TORSDOF 5
ENDMDL
MODEL 8
REMARK VINA RESULT:      -6.2      7.122      9.412
REMARK  Name = 
REMARK  6 active torsions:
REMARK  status: ('A' for Active; 'I' for Inactive)
REMARK    1  A    between atoms: C_1  and  C_2
REMARK    2  A    between atoms: C_2  and  C_3
REMARK    3  A    between atoms: C_4  and  S_5
REMARK    4  A    between atoms: S_5  and  C_6
REMARK    5  A    between atoms: N_12  and  O_13
REMARK    6  A    between atoms: O_13  and  C_14
REMARK                            x       y       z     vdW  Elec       q    Type
REMARK                         _______ _______ _______ _____ _____    ______ ____
ROOT
ATOM      1  C   UNL     1      -0.115  10.172  21.445  0.00  0.00    +0.000 A 
ATOM      2  C   UNL     1       0.084  11.236  20.629  0.00  0.00    +0.000 A 
ATOM      3  N   UNL     1      -0.076  12.525  21.150  0.00  0.00    +0.000 N 
ATOM      4  C   UNL     1      -0.801  12.756  22.307  0.00  0.00    +0.000 A 
ATOM      5  O   UNL     1      -1.222  13.843  22.707  0.00  0.00    +0.000 OA
ATOM      6  N   UNL     1      -1.014  11.653  23.090  0.00  0.00    +0.000 N 
ATOM      7  C   UNL     1      -0.331  10.500  22.880  0.00  0.00    +0.000 A 
ATOM      8  O   UNL     1       0.028   9.774  23.793  0.00  0.00    +0.000 OA
ATOM      9  H   UNL     1      -1.295  11.855  24.032  0.00  0.00    +0.000 HD
ENDROOT
BRANCH   1  11
ATOM     10  C   UNL     1       1.199   8.099  21.041  0.00  0.00    +0.000 C 
ATOM     11  C   UNL     1      -0.203   8.688  21.178  0.00  0.00    +0.000 C 
ENDBRANCH   1  11
BRANCH   2  12
ATOM     12  S   UNL     1       0.327  11.097  18.903  0.00  0.00    +0.000 S 
BRANCH  12  13
ATOM     13  C   UNL     1      -1.318  10.900  18.250  0.00  0.00    +0.000 A 
ATOM     14  C   UNL     1      -2.322  11.756  18.724  0.00  0.00    +0.000 A 
ATOM     15  C   UNL     1      -3.653  11.570  18.341  0.00  0.00    +0.000 A 
ATOM     16  C   UNL     1      -3.986  10.533  17.475  0.00  0.00    +0.000 A 
ATOM     17  C   UNL     1      -2.986   9.722  16.943  0.00  0.00    +0.000 A 
ATOM     18  C   UNL     1      -1.655   9.919  17.312  0.00  0.00    +0.000 A 
ENDBRANCH  12  13
ENDBRANCH   2  12
BRANCH   3  19
ATOM     19  O   UNL     1       0.187  13.628  20.276  0.00  0.00    +0.000 OA
BRANCH  19  20
ATOM     20  C   UNL     1       1.366  14.365  20.667  0.00  0.00    +0.000 C 
ATOM     21  C   UNL     1       2.672  13.699  20.240  0.00  0.00    +0.000 C 
ATOM     22  C   UNL     1       3.034  13.880  18.771  0.00  0.00    +0.000 C 
ATOM     23  C   UNL     1       2.911  15.316  18.276  0.00  0.00    +0.000 C 
ATOM     24  C   UNL     1       1.620  16.009  18.694  0.00  0.00    +0.000 C 
ATOM     25  C   UNL     1       1.263  15.810  20.162  0.00  0.00    +0.000 C 
ENDBRANCH  19  20
ENDBRANCH   3  19
TORSDOF 5
ENDMDL
MODEL 9
REMARK VINA RESULT:      -6.1      9.348     12.725
REMARK  Name = 
REMARK  6 active torsions:
REMARK  status: ('A' for Active; 'I' for Inactive)
REMARK    1  A    between atoms: C_1  and  C_2
REMARK    2  A    between atoms: C_2  and  C_3
REMARK    3  A    between atoms: C_4  and  S_5
REMARK    4  A    between atoms: S_5  and  C_6
REMARK    5  A    between atoms: N_12  and  O_13
REMARK    6  A    between atoms: O_13  and  C_14
REMARK                            x       y       z     vdW  Elec       q    Type
REMARK                         _______ _______ _______ _____ _____    ______ ____
ROOT
ATOM      1  C   UNL     1      -3.379  14.763  22.927  0.00  0.00    +0.000 A 
ATOM      2  C   UNL     1      -3.773  13.772  22.091  0.00  0.00    +0.000 A 
ATOM      3  N   UNL     1      -4.911  13.026  22.417  0.00  0.00    +0.000 N 
ATOM      4  C   UNL     1      -5.402  12.980  23.712  0.00  0.00    +0.000 A 
ATOM      5  O   UNL     1      -6.217  12.172  24.161  0.00  0.00    +0.000 OA
ATOM      6  N   UNL     1      -4.955  13.974  24.540  0.00  0.00    +0.000 N 
ATOM      7  C   UNL     1      -4.311  15.062  24.047  0.00  0.00    +0.000 A 
ATOM      8  O   UNL     1      -4.451  16.179  24.519  0.00  0.00    +0.000 OA
ATOM      9  H   UNL     1      -5.497  14.101  25.374  0.00  0.00    +0.000 HD
ENDROOT
BRANCH   1  11
ATOM     10  C   UNL     1      -1.146  15.042  23.988  0.00  0.00    +0.000 C 
ATOM     11  C   UNL     1      -2.134  15.618  22.975  0.00  0.00    +0.000 C 
ENDBRANCH   1  11
BRANCH   2  12
ATOM     12  S   UNL     1      -2.826  13.226  20.725  0.00  0.00    +0.000 S 
BRANCH  12  13
ATOM     13  C   UNL     1      -1.690  12.051  21.430  0.00  0.00    +0.000 A 
ATOM     14  C   UNL     1      -0.645  11.578  20.624  0.00  0.00    +0.000 A 
ATOM     15  C   UNL     1       0.203  10.566  21.080  0.00  0.00    +0.000 A 
ATOM     16  C   UNL     1       0.016  10.026  22.350  0.00  0.00    +0.000 A 
ATOM     17  C   UNL     1      -0.974  10.538  23.185  0.00  0.00    +0.000 A 
ATOM     18  C   UNL     1      -1.809  11.561  22.735  0.00  0.00    +0.000 A 
ENDBRANCH  12  13
ENDBRANCH   2  12
BRANCH   3  19
ATOM     19  O   UNL     1      -5.330  12.019  21.490  0.00  0.00    +0.000 OA
BRANCH  19  20
ATOM     20  C   UNL     1      -6.643  12.284  20.952  0.00  0.00    +0.000 C 
ATOM     21  C   UNL     1      -6.653  13.354  19.863  0.00  0.00    +0.000 C 
ATOM     22  C   UNL     1      -6.177  12.881  18.495  0.00  0.00    +0.000 C 
ATOM     23  C   UNL     1      -6.803  11.568  18.042  0.00  0.00    +0.000 C 
ATOM     24  C   UNL     1      -6.816  10.484  19.111  0.00  0.00    +0.000 C 
ATOM     25  C   UNL     1      -7.282  10.973  20.477  0.00  0.00    +0.000 C 
ENDBRANCH  19  20
ENDBRANCH   3  19
TORSDOF 5
ENDMDL
