MODEL 1
REMARK VINA RESULT:      -7.4      0.000      0.000
REMARK  Name = 
REMARK  8 active torsions:
REMARK  status: ('A' for Active; 'I' for Inactive)
REMARK    1  A    between atoms: C_2  and  C_3
REMARK    2  A    between atoms: C_3  and  C_4
REMARK    3  A    between atoms: C_4  and  S_5
REMARK    4  A    between atoms: S_5  and  C_6
REMARK    5  A    between atoms: C_6  and  C_7
REMARK    6  A    between atoms: N_14  and  C_15
REMARK    7  A    between atoms: C_15  and  C_16
REMARK    8  A    between atoms: C_16  and  C_17
REMARK                            x       y       z     vdW  Elec       q    Type
REMARK                         _______ _______ _______ _____ _____    ______ ____
ROOT
ATOM      1  O   UNL     1       7.754   5.575  20.213  0.00  0.00    +0.000 OA
ATOM      2  C   UNL     1       7.460   5.699  19.029  0.00  0.00    +0.000 C 
ATOM      3  N   UNL     1       7.794   6.812  18.280  0.00  0.00    +0.000 N 
ATOM      4  H   UNL     1       7.549   6.838  17.297  0.00  0.00    +0.000 HD
ENDROOT
BRANCH   2   5
ATOM      5  C   UNL     1       6.742   4.616  18.240  0.00  0.00    +0.000 C 
BRANCH   5   6
ATOM      6  C   UNL     1       6.480   5.042  16.795  0.00  0.00    +0.000 C 
BRANCH   6   7
ATOM      7  S   UNL     1       4.728   4.704  16.375  0.00  0.00    +0.000 S 
BRANCH   7   8
ATOM      8  C   UNL     1       3.915   6.012  17.351  0.00  0.00    +0.000 C 
BRANCH   8   9
ATOM      9  C   UNL     1       2.961   5.430  18.368  0.00  0.00    +0.000 A 
ATOM     10  C   UNL     1       2.749   6.066  19.604  0.00  0.00    +0.000 A 
ATOM     11  C   UNL     1       1.875   5.522  20.548  0.00  0.00    +0.000 A 
ATOM     12  C   UNL     1       1.203   4.331  20.274  0.00  0.00    +0.000 A 
ATOM     13  C   UNL     1       1.411   3.687  19.057  0.00  0.00    +0.000 A 
ATOM     14 CL   UNL     1       0.586   2.215  18.719  0.00  0.00    +0.000 Cl
ATOM     15  C   UNL     1       2.284   4.225  18.108  0.00  0.00    +0.000 A 
ENDBRANCH   8   9
ENDBRANCH   7   8
ENDBRANCH   6   7
ENDBRANCH   5   6
ENDBRANCH   2   5
BRANCH   3  16
ATOM     16  C   UNL     1       8.514   7.935  18.867  0.00  0.00    +0.000 C 
BRANCH  16  17
ATOM     17  C   UNL     1       8.305   9.248  18.104  0.00  0.00    +0.000 C 
BRANCH  17  18
ATOM     18  C   UNL     1       9.197  10.369  18.593  0.00  0.00    +0.000 A 
ATOM     19  C   UNL     1       9.893  11.171  17.672  0.00  0.00    +0.000 A 
ATOM     20  C   UNL     1      10.720  12.208  18.116  0.00  0.00    +0.000 A 
ATOM     21  C   UNL     1      10.861  12.450  19.479  0.00  0.00    +0.000 A 
ATOM     22 CL   UNL     1      11.880  13.723  20.023  0.00  0.00    +0.000 Cl
ATOM     23  C   UNL     1      10.178  11.661  20.405  0.00  0.00    +0.000 A 
ATOM     24  C   UNL     1       9.352  10.625  19.963  0.00  0.00    +0.000 A 
ENDBRANCH  17  18
ENDBRANCH  16  17
ENDBRANCH   3  16
TORSDOF 8
ENDMDL
MODEL 2
REMARK VINA RESULT:      -7.0      2.509      3.106
REMARK  Name = 
REMARK  8 active torsions:
REMARK  status: ('A' for Active; 'I' for Inactive)
REMARK    1  A    between atoms: C_2  and  C_3
REMARK    2  A    between atoms: C_3  and  C_4
REMARK    3  A    between atoms: C_4  and  S_5
REMARK    4  A    between atoms: S_5  and  C_6
REMARK    5  A    between atoms: C_6  and  C_7
REMARK    6  A    between atoms: N_14  and  C_15
REMARK    7  A    between atoms: C_15  and  C_16
REMARK    8  A    between atoms: C_16  and  C_17
REMARK                            x       y       z     vdW  Elec       q    Type
REMARK                         _______ _______ _______ _____ _____    ______ ____
ROOT
ATOM      1  O   UNL     1       7.062   7.532  16.833  0.00  0.00    +0.000 OA
ATOM      2  C   UNL     1       7.641   7.169  17.852  0.00  0.00    +0.000 C 
ATOM      3  N   UNL     1       8.394   8.023  18.638  0.00  0.00    +0.000 N 
ATOM      4  H   UNL     1       8.820   7.668  19.486  0.00  0.00    +0.000 HD
ENDROOT
BRANCH   2   5
ATOM      5  C   UNL     1       7.549   5.752  18.393  0.00  0.00    +0.000 C 
BRANCH   5   6
ATOM      6  C   UNL     1       6.286   5.540  19.228  0.00  0.00    +0.000 C 
BRANCH   6   7
ATOM      7  S   UNL     1       4.837   5.428  18.112  0.00  0.00    +0.000 S 
BRANCH   7   8
ATOM      8  C   UNL     1       3.491   5.545  19.336  0.00  0.00    +0.000 C 
BRANCH   8   9
ATOM      9  C   UNL     1       2.720   6.836  19.187  0.00  0.00    +0.000 A 
ATOM     10  C   UNL     1       2.700   7.527  17.963  0.00  0.00    +0.000 A 
ATOM     11  C   UNL     1       1.996   8.726  17.829  0.00  0.00    +0.000 A 
ATOM     12  C   UNL     1       1.305   9.257  18.918  0.00  0.00    +0.000 A 
ATOM     13  C   UNL     1       1.326   8.587  20.139  0.00  0.00    +0.000 A 
ATOM     14 CL   UNL     1       0.478   9.243  21.486  0.00  0.00    +0.000 Cl
ATOM     15  C   UNL     1       2.028   7.387  20.281  0.00  0.00    +0.000 A 
ENDBRANCH   8   9
ENDBRANCH   7   8
ENDBRANCH   6   7
ENDBRANCH   5   6
ENDBRANCH   2   5
BRANCH   3  16
ATOM     16  C   UNL     1       8.562   9.428  18.288  0.00  0.00    +0.000 C 
BRANCH  16  17
ATOM     17  C   UNL     1       9.262  10.240  19.383  0.00  0.00    +0.000 C 
BRANCH  17  18
ATOM     18  C   UNL     1       9.858  11.536  18.875  0.00  0.00    +0.000 A 
ATOM     19  C   UNL     1      10.622  11.547  17.696  0.00  0.00    +0.000 A 
ATOM     20  C   UNL     1      11.178  12.741  17.221  0.00  0.00    +0.000 A 
ATOM     21  C   UNL     1      10.977  13.927  17.920  0.00  0.00    +0.000 A 
ATOM     22 CL   UNL     1      11.662  15.392  17.336  0.00  0.00    +0.000 Cl
ATOM     23  C   UNL     1      10.222  13.931  19.093  0.00  0.00    +0.000 A 
ATOM     24  C   UNL     1       9.667  12.740  19.568  0.00  0.00    +0.000 A 
ENDBRANCH  17  18
ENDBRANCH  16  17
ENDBRANCH   3  16
TORSDOF 8
ENDMDL
MODEL 3
REMARK VINA RESULT:      -7.0      1.670      2.045
REMARK  Name = 
REMARK  8 active torsions:
REMARK  status: ('A' for Active; 'I' for Inactive)
REMARK    1  A    between atoms: C_2  and  C_3
REMARK    2  A    between atoms: C_3  and  C_4
REMARK    3  A    between atoms: C_4  and  S_5
REMARK    4  A    between atoms: S_5  and  C_6
REMARK    5  A    between atoms: C_6  and  C_7
REMARK    6  A    between atoms: N_14  and  C_15
REMARK    7  A    between atoms: C_15  and  C_16
REMARK    8  A    between atoms: C_16  and  C_17
REMARK                            x       y       z     vdW  Elec       q    Type
REMARK                         _______ _______ _______ _____ _____    ______ ____
ROOT
ATOM      1  O   UNL     1       7.289   6.102  19.084  0.00  0.00    +0.000 OA
ATOM      2  C   UNL     1       7.415   6.061  17.865  0.00  0.00    +0.000 C 
ATOM      3  N   UNL     1       7.569   7.192  17.083  0.00  0.00    +0.000 N 
ATOM      4  H   UNL     1       7.701   7.088  16.084  0.00  0.00    +0.000 HD
ENDROOT
BRANCH   2   5
ATOM      5  C   UNL     1       7.469   4.758  17.085  0.00  0.00    +0.000 C 
BRANCH   5   6
ATOM      6  C   UNL     1       6.676   4.841  15.780  0.00  0.00    +0.000 C 
BRANCH   6   7
ATOM      7  S   UNL     1       4.883   4.782  16.159  0.00  0.00    +0.000 S 
BRANCH   7   8
ATOM      8  C   UNL     1       4.884   3.516  17.471  0.00  0.00    +0.000 C 
BRANCH   8   9
ATOM      9  C   UNL     1       3.549   3.451  18.176  0.00  0.00    +0.000 A 
ATOM     10  C   UNL     1       2.365   3.819  17.514  0.00  0.00    +0.000 A 
ATOM     11  C   UNL     1       1.133   3.769  18.170  0.00  0.00    +0.000 A 
ATOM     12  C   UNL     1       1.064   3.355  19.500  0.00  0.00    +0.000 A 
ATOM     13  C   UNL     1       2.232   2.997  20.170  0.00  0.00    +0.000 A 
ATOM     14 CL   UNL     1       2.151   2.491  21.813  0.00  0.00    +0.000 Cl
ATOM     15  C   UNL     1       3.468   3.045  19.521  0.00  0.00    +0.000 A 
ENDBRANCH   8   9
ENDBRANCH   7   8
ENDBRANCH   6   7
ENDBRANCH   5   6
ENDBRANCH   2   5
BRANCH   3  16
ATOM     16  C   UNL     1       7.576   8.526  17.669  0.00  0.00    +0.000 C 
BRANCH  16  17
ATOM     17  C   UNL     1       8.810   8.795  18.537  0.00  0.00    +0.000 C 
BRANCH  17  18
ATOM     18  C   UNL     1       9.022  10.265  18.831  0.00  0.00    +0.000 A 
ATOM     19  C   UNL     1       9.439  10.677  20.109  0.00  0.00    +0.000 A 
ATOM     20  C   UNL     1       9.636  12.034  20.389  0.00  0.00    +0.000 A 
ATOM     21  C   UNL     1       9.415  12.986  19.399  0.00  0.00    +0.000 A 
ATOM     22 CL   UNL     1       9.655  14.653  19.746  0.00  0.00    +0.000 Cl
ATOM     23  C   UNL     1       9.000  12.594  18.127  0.00  0.00    +0.000 A 
ATOM     24  C   UNL     1       8.803  11.239  17.846  0.00  0.00    +0.000 A 
ENDBRANCH  17  18
ENDBRANCH  16  17
ENDBRANCH   3  16
TORSDOF 8
ENDMDL
MODEL 4
REMARK VINA RESULT:      -6.8      5.635      7.547
REMARK  Name = 
REMARK  8 active torsions:
REMARK  status: ('A' for Active; 'I' for Inactive)
REMARK    1  A    between atoms: C_2  and  C_3
REMARK    2  A    between atoms: C_3  and  C_4
REMARK    3  A    between atoms: C_4  and  S_5
REMARK    4  A    between atoms: S_5  and  C_6
REMARK    5  A    between atoms: C_6  and  C_7
REMARK    6  A    between atoms: N_14  and  C_15
REMARK    7  A    between atoms: C_15  and  C_16
REMARK    8  A    between atoms: C_16  and  C_17
REMARK                            x       y       z     vdW  Elec       q    Type
REMARK                         _______ _______ _______ _____ _____    ______ ____
ROOT
ATOM      1  O   UNL     1       2.032   4.934  21.262  0.00  0.00    +0.000 OA
ATOM      2  C   UNL     1       1.774   4.870  20.065  0.00  0.00    +0.000 C 
ATOM      3  N   UNL     1       1.978   5.922  19.191  0.00  0.00    +0.000 N 
ATOM      4  H   UNL     1       1.774   5.794  18.207  0.00  0.00    +0.000 HD
ENDROOT
BRANCH   2   5
ATOM      5  C   UNL     1       1.250   3.607  19.400  0.00  0.00    +0.000 C 
BRANCH   5   6
ATOM      6  C   UNL     1       1.846   3.407  18.006  0.00  0.00    +0.000 C 
BRANCH   6   7
ATOM      7  S   UNL     1       3.264   2.251  18.116  0.00  0.00    +0.000 S 
BRANCH   7   8
ATOM      8  C   UNL     1       4.601   3.432  18.492  0.00  0.00    +0.000 C 
BRANCH   8   9
ATOM      9  C   UNL     1       4.936   4.288  17.293  0.00  0.00    +0.000 A 
ATOM     10  C   UNL     1       4.873   5.691  17.368  0.00  0.00    +0.000 A 
ATOM     11  C   UNL     1       5.172   6.481  16.256  0.00  0.00    +0.000 A 
ATOM     12  C   UNL     1       5.533   5.883  15.049  0.00  0.00    +0.000 A 
ATOM     13  C   UNL     1       5.590   4.494  14.960  0.00  0.00    +0.000 A 
ATOM     14 CL   UNL     1       6.031   3.753  13.470  0.00  0.00    +0.000 Cl
ATOM     15  C   UNL     1       5.292   3.697  16.067  0.00  0.00    +0.000 A 
ENDBRANCH   8   9
ENDBRANCH   7   8
ENDBRANCH   6   7
ENDBRANCH   5   6
ENDBRANCH   2   5
BRANCH   3  16
ATOM     16  C   UNL     1       2.507   7.200  19.650  0.00  0.00    +0.000 C 
BRANCH  16  17
ATOM     17  C   UNL     1       1.768   8.404  19.057  0.00  0.00    +0.000 C 
BRANCH  17  18
ATOM     18  C   UNL     1       0.948   9.162  20.080  0.00  0.00    +0.000 A 
ATOM     19  C   UNL     1       0.759   8.632  21.368  0.00  0.00    +0.000 A 
ATOM     20  C   UNL     1       0.001   9.325  22.318  0.00  0.00    +0.000 A 
ATOM     21  C   UNL     1      -0.574  10.549  21.989  0.00  0.00    +0.000 A 
ATOM     22 CL   UNL     1      -1.506  11.399  23.157  0.00  0.00    +0.000 Cl
ATOM     23  C   UNL     1      -0.397  11.087  20.715  0.00  0.00    +0.000 A 
ATOM     24  C   UNL     1       0.359  10.395  19.765  0.00  0.00    +0.000 A 
ENDBRANCH  17  18
ENDBRANCH  16  17
ENDBRANCH   3  16
TORSDOF 8
ENDMDL
MODEL 5
REMARK VINA RESULT:      -6.8      2.303      2.694
REMARK  Name = 
REMARK  8 active torsions:
REMARK  status: ('A' for Active; 'I' for Inactive)
REMARK    1  A    between atoms: C_2  and  C_3
REMARK    2  A    between atoms: C_3  and  C_4
REMARK    3  A    between atoms: C_4  and  S_5
REMARK    4  A    between atoms: S_5  and  C_6
REMARK    5  A    between atoms: C_6  and  C_7
REMARK    6  A    between atoms: N_14  and  C_15
REMARK    7  A    between atoms: C_15  and  C_16
REMARK    8  A    between atoms: C_16  and  C_17
REMARK                            x       y       z     vdW  Elec       q    Type
REMARK                         _______ _______ _______ _____ _____    ______ ____
ROOT
ATOM      1  O   UNL     1       5.959   7.419  17.404  0.00  0.00    +0.000 OA
ATOM      2  C   UNL     1       7.010   6.885  17.742  0.00  0.00    +0.000 C 
ATOM      3  N   UNL     1       8.153   7.599  18.057  0.00  0.00    +0.000 N 
ATOM      4  H   UNL     1       8.980   7.099  18.360  0.00  0.00    +0.000 HD
ENDROOT
BRANCH   2   5
ATOM      5  C   UNL     1       7.158   5.381  17.904  0.00  0.00    +0.000 C 
BRANCH   5   6
ATOM      6  C   UNL     1       5.886   4.636  17.497  0.00  0.00    +0.000 C 
BRANCH   6   7
ATOM      7  S   UNL     1       4.920   4.224  18.999  0.00  0.00    +0.000 S 
BRANCH   7   8
ATOM      8  C   UNL     1       3.234   4.532  18.379  0.00  0.00    +0.000 C 
BRANCH   8   9
ATOM      9  C   UNL     1       2.648   5.791  18.974  0.00  0.00    +0.000 A 
ATOM     10  C   UNL     1       2.091   5.788  20.265  0.00  0.00    +0.000 A 
ATOM     11  C   UNL     1       1.539   6.949  20.809  0.00  0.00    +0.000 A 
ATOM     12  C   UNL     1       1.531   8.133  20.071  0.00  0.00    +0.000 A 
ATOM     13  C   UNL     1       2.071   8.146  18.787  0.00  0.00    +0.000 A 
ATOM     14 CL   UNL     1       2.057   9.604  17.873  0.00  0.00    +0.000 Cl
ATOM     15  C   UNL     1       2.624   6.988  18.236  0.00  0.00    +0.000 A 
ENDBRANCH   8   9
ENDBRANCH   7   8
ENDBRANCH   6   7
ENDBRANCH   5   6
ENDBRANCH   2   5
BRANCH   3  16
ATOM     16  C   UNL     1       8.182   9.055  17.989  0.00  0.00    +0.000 C 
BRANCH  16  17
ATOM     17  C   UNL     1       9.053   9.689  19.078  0.00  0.00    +0.000 C 
BRANCH  17  18
ATOM     18  C   UNL     1       9.635  11.027  18.672  0.00  0.00    +0.000 A 
ATOM     19  C   UNL     1       8.846  11.958  17.975  0.00  0.00    +0.000 A 
ATOM     20  C   UNL     1       9.377  13.195  17.595  0.00  0.00    +0.000 A 
ATOM     21  C   UNL     1      10.696  13.510  17.905  0.00  0.00    +0.000 A 
ATOM     22 CL   UNL     1      11.347  15.031  17.435  0.00  0.00    +0.000 Cl
ATOM     23  C   UNL     1      11.492  12.596  18.595  0.00  0.00    +0.000 A 
ATOM     24  C   UNL     1      10.963  11.360  18.975  0.00  0.00    +0.000 A 
ENDBRANCH  17  18
ENDBRANCH  16  17
ENDBRANCH   3  16
TORSDOF 8
ENDMDL
MODEL 6
REMARK VINA RESULT:      -6.8      1.889      2.302
REMARK  Name = 
REMARK  8 active torsions:
REMARK  status: ('A' for Active; 'I' for Inactive)
REMARK    1  A    between atoms: C_2  and  C_3
REMARK    2  A    between atoms: C_3  and  C_4
REMARK    3  A    between atoms: C_4  and  S_5
REMARK    4  A    between atoms: S_5  and  C_6
REMARK    5  A    between atoms: C_6  and  C_7
REMARK    6  A    between atoms: N_14  and  C_15
REMARK    7  A    between atoms: C_15  and  C_16
REMARK    8  A    between atoms: C_16  and  C_17
REMARK                            x       y       z     vdW  Elec       q    Type
REMARK                         _______ _______ _______ _____ _____    ______ ____
ROOT
ATOM      1  O   UNL     1       5.521   7.213  16.087  0.00  0.00    +0.000 OA
ATOM      2  C   UNL     1       6.580   6.617  16.254  0.00  0.00    +0.000 C 
ATOM      3  N   UNL     1       7.644   7.151  16.959  0.00  0.00    +0.000 N 
ATOM      4  H   UNL     1       8.480   6.594  17.089  0.00  0.00    +0.000 HD
ENDROOT
BRANCH   2   5
ATOM      5  C   UNL     1       6.820   5.203  15.751  0.00  0.00    +0.000 C 
BRANCH   5   6
ATOM      6  C   UNL     1       7.198   4.250  16.884  0.00  0.00    +0.000 C 
BRANCH   6   7
ATOM      7  S   UNL     1       5.890   4.289  18.167  0.00  0.00    +0.000 S 
BRANCH   7   8
ATOM      8  C   UNL     1       4.516   3.536  17.235  0.00  0.00    +0.000 C 
BRANCH   8   9
ATOM      9  C   UNL     1       3.252   3.480  18.060  0.00  0.00    +0.000 A 
ATOM     10  C   UNL     1       2.343   2.418  17.917  0.00  0.00    +0.000 A 
ATOM     11  C   UNL     1       1.169   2.373  18.673  0.00  0.00    +0.000 A 
ATOM     12  C   UNL     1       0.883   3.392  19.581  0.00  0.00    +0.000 A 
ATOM     13  C   UNL     1       1.772   4.454  19.726  0.00  0.00    +0.000 A 
ATOM     14 CL   UNL     1       1.417   5.715  20.843  0.00  0.00    +0.000 Cl
ATOM     15  C   UNL     1       2.947   4.507  18.973  0.00  0.00    +0.000 A 
ENDBRANCH   8   9
ENDBRANCH   7   8
ENDBRANCH   6   7
ENDBRANCH   5   6
ENDBRANCH   2   5
BRANCH   3  16
ATOM     16  C   UNL     1       7.576   8.485  17.543  0.00  0.00    +0.000 C 
BRANCH  16  17
ATOM     17  C   UNL     1       8.557   8.682  18.703  0.00  0.00    +0.000 C 
BRANCH  17  18
ATOM     18  C   UNL     1       9.039  10.111  18.839  0.00  0.00    +0.000 A 
ATOM     19  C   UNL     1       8.851  11.024  17.787  0.00  0.00    +0.000 A 
ATOM     20  C   UNL     1       9.295  12.345  17.904  0.00  0.00    +0.000 A 
ATOM     21  C   UNL     1       9.930  12.764  19.069  0.00  0.00    +0.000 A 
ATOM     22 CL   UNL     1      10.476  14.388  19.211  0.00  0.00    +0.000 Cl
ATOM     23  C   UNL     1      10.125  11.870  20.122  0.00  0.00    +0.000 A 
ATOM     24  C   UNL     1       9.683  10.550  20.006  0.00  0.00    +0.000 A 
ENDBRANCH  17  18
ENDBRANCH  16  17
ENDBRANCH   3  16
TORSDOF 8
ENDMDL
MODEL 7
REMARK VINA RESULT:      -6.7      1.889      2.197
REMARK  Name = 
REMARK  8 active torsions:
REMARK  status: ('A' for Active; 'I' for Inactive)
REMARK    1  A    between atoms: C_2  and  C_3
REMARK    2  A    between atoms: C_3  and  C_4
REMARK    3  A    between atoms: C_4  and  S_5
REMARK    4  A    between atoms: S_5  and  C_6
REMARK    5  A    between atoms: C_6  and  C_7
REMARK    6  A    between atoms: N_14  and  C_15
REMARK    7  A    between atoms: C_15  and  C_16
REMARK    8  A    between atoms: C_16  and  C_17
REMARK                            x       y       z     vdW  Elec       q    Type
REMARK                         _______ _______ _______ _____ _____    ______ ____
ROOT
ATOM      1  O   UNL     1       7.549   6.499  16.237  0.00  0.00    +0.000 OA
ATOM      2  C   UNL     1       6.824   6.928  17.129  0.00  0.00    +0.000 C 
ATOM      3  N   UNL     1       7.105   8.079  17.843  0.00  0.00    +0.000 N 
ATOM      4  H   UNL     1       6.449   8.397  18.546  0.00  0.00    +0.000 HD
ENDROOT
BRANCH   2   5
ATOM      5  C   UNL     1       5.508   6.270  17.511  0.00  0.00    +0.000 C 
BRANCH   5   6
ATOM      6  C   UNL     1       4.317   6.929  16.815  0.00  0.00    +0.000 C 
BRANCH   6   7
ATOM      7  S   UNL     1       2.935   7.090  18.008  0.00  0.00    +0.000 S 
BRANCH   7   8
ATOM      8  C   UNL     1       3.639   6.184  19.425  0.00  0.00    +0.000 C 
BRANCH   8   9
ATOM      9  C   UNL     1       2.964   4.846  19.616  0.00  0.00    +0.000 A 
ATOM     10  C   UNL     1       1.785   4.734  20.374  0.00  0.00    +0.000 A 
ATOM     11  C   UNL     1       1.168   3.495  20.559  0.00  0.00    +0.000 A 
ATOM     12  C   UNL     1       1.722   2.346  19.994  0.00  0.00    +0.000 A 
ATOM     13  C   UNL     1       2.895   2.443  19.249  0.00  0.00    +0.000 A 
ATOM     14 CL   UNL     1       3.583   1.025  18.556  0.00  0.00    +0.000 Cl
ATOM     15  C   UNL     1       3.518   3.678  19.060  0.00  0.00    +0.000 A 
ENDBRANCH   8   9
ENDBRANCH   7   8
ENDBRANCH   6   7
ENDBRANCH   5   6
ENDBRANCH   2   5
BRANCH   3  16
ATOM     16  C   UNL     1       8.310   8.858  17.585  0.00  0.00    +0.000 C 
BRANCH  16  17
ATOM     17  C   UNL     1       8.875   9.524  18.844  0.00  0.00    +0.000 C 
BRANCH  17  18
ATOM     18  C   UNL     1       9.495  10.878  18.574  0.00  0.00    +0.000 A 
ATOM     19  C   UNL     1       8.778  11.856  17.864  0.00  0.00    +0.000 A 
ATOM     20  C   UNL     1       9.345  13.109  17.608  0.00  0.00    +0.000 A 
ATOM     21  C   UNL     1      10.631  13.393  18.057  0.00  0.00    +0.000 A 
ATOM     22 CL   UNL     1      11.328  14.933  17.741  0.00  0.00    +0.000 Cl
ATOM     23  C   UNL     1      11.357  12.433  18.762  0.00  0.00    +0.000 A 
ATOM     24  C   UNL     1      10.791  11.181  19.017  0.00  0.00    +0.000 A 
ENDBRANCH  17  18
ENDBRANCH  16  17
ENDBRANCH   3  16
TORSDOF 8
ENDMDL
MODEL 8
REMARK VINA RESULT:      -6.7      5.468      7.401
REMARK  Name = 
REMARK  8 active torsions:
REMARK  status: ('A' for Active; 'I' for Inactive)
REMARK    1  A    between atoms: C_2  and  C_3
REMARK    2  A    between atoms: C_3  and  C_4
REMARK    3  A    between atoms: C_4  and  S_5
REMARK    4  A    between atoms: S_5  and  C_6
REMARK    5  A    between atoms: C_6  and  C_7
REMARK    6  A    between atoms: N_14  and  C_15
REMARK    7  A    between atoms: C_15  and  C_16
REMARK    8  A    between atoms: C_16  and  C_17
REMARK                            x       y       z     vdW  Elec       q    Type
REMARK                         _______ _______ _______ _____ _____    ______ ____
ROOT
ATOM      1  O   UNL     1       2.572   4.458  21.631  0.00  0.00    +0.000 OA
ATOM      2  C   UNL     1       1.758   4.363  20.718  0.00  0.00    +0.000 C 
ATOM      3  N   UNL     1       1.510   5.383  19.818  0.00  0.00    +0.000 N 
ATOM      4  H   UNL     1       0.848   5.229  19.067  0.00  0.00    +0.000 HD
ENDROOT
BRANCH   2   5
ATOM      5  C   UNL     1       0.969   3.092  20.445  0.00  0.00    +0.000 C 
BRANCH   5   6
ATOM      6  C   UNL     1       1.022   2.694  18.970  0.00  0.00    +0.000 C 
BRANCH   6   7
ATOM      7  S   UNL     1       2.752   2.293  18.515  0.00  0.00    +0.000 S 
BRANCH   7   8
ATOM      8  C   UNL     1       3.017   3.516  17.190  0.00  0.00    +0.000 C 
BRANCH   8   9
ATOM      9  C   UNL     1       4.455   3.977  17.144  0.00  0.00    +0.000 A 
ATOM     10  C   UNL     1       5.173   4.221  18.328  0.00  0.00    +0.000 A 
ATOM     11  C   UNL     1       6.499   4.658  18.284  0.00  0.00    +0.000 A 
ATOM     12  C   UNL     1       7.128   4.864  17.057  0.00  0.00    +0.000 A 
ATOM     13  C   UNL     1       6.425   4.634  15.876  0.00  0.00    +0.000 A 
ATOM     14 CL   UNL     1       7.198   4.892  14.360  0.00  0.00    +0.000 Cl
ATOM     15  C   UNL     1       5.098   4.198  15.912  0.00  0.00    +0.000 A 
ENDBRANCH   8   9
ENDBRANCH   7   8
ENDBRANCH   6   7
ENDBRANCH   5   6
ENDBRANCH   2   5
BRANCH   3  16
ATOM     16  C   UNL     1       2.203   6.662  19.908  0.00  0.00    +0.000 C 
BRANCH  16  17
ATOM     17  C   UNL     1       1.558   7.624  20.912  0.00  0.00    +0.000 C 
BRANCH  17  18
ATOM     18  C   UNL     1       0.977   8.862  20.262  0.00  0.00    +0.000 A 
ATOM     19  C   UNL     1       1.382   9.237  18.969  0.00  0.00    +0.000 A 
ATOM     20  C   UNL     1       0.851  10.381  18.363  0.00  0.00    +0.000 A 
ATOM     21  C   UNL     1      -0.084  11.157  19.041  0.00  0.00    +0.000 A 
ATOM     22 CL   UNL     1      -0.734  12.562  18.295  0.00  0.00    +0.000 Cl
ATOM     23  C   UNL     1      -0.494  10.798  20.325  0.00  0.00    +0.000 A 
ATOM     24  C   UNL     1       0.036   9.656  20.932  0.00  0.00    +0.000 A 
ENDBRANCH  17  18
ENDBRANCH  16  17
ENDBRANCH   3  16
TORSDOF 8
ENDMDL
MODEL 9
REMARK VINA RESULT:      -6.6      1.703      2.276
REMARK  Name = 
REMARK  8 active torsions:
REMARK  status: ('A' for Active; 'I' for Inactive)
REMARK    1  A    between atoms: C_2  and  C_3
REMARK    2  A    between atoms: C_3  and  C_4
REMARK    3  A    between atoms: C_4  and  S_5
REMARK    4  A    between atoms: S_5  and  C_6
REMARK    5  A    between atoms: C_6  and  C_7
REMARK    6  A    between atoms: N_14  and  C_15
REMARK    7  A    between atoms: C_15  and  C_16
REMARK    8  A    between atoms: C_16  and  C_17
REMARK                            x       y       z     vdW  Elec       q    Type
REMARK                         _______ _______ _______ _____ _____    ______ ____
ROOT
ATOM      1  O   UNL     1       7.358   6.224  18.721  0.00  0.00    +0.000 OA
ATOM      2  C   UNL     1       7.252   6.723  17.606  0.00  0.00    +0.000 C 
ATOM      3  N   UNL     1       7.729   7.984  17.295  0.00  0.00    +0.000 N 
ATOM      4  H   UNL     1       7.638   8.326  16.346  0.00  0.00    +0.000 HD
ENDROOT
BRANCH   2   5
ATOM      5  C   UNL     1       6.632   5.989  16.428  0.00  0.00    +0.000 C 
BRANCH   5   6
ATOM      6  C   UNL     1       5.155   5.672  16.667  0.00  0.00    +0.000 C 
BRANCH   6   7
ATOM      7  S   UNL     1       4.982   3.904  17.117  0.00  0.00    +0.000 S 
BRANCH   7   8
ATOM      8  C   UNL     1       3.194   3.685  16.839  0.00  0.00    +0.000 C 
BRANCH   8   9
ATOM      9  C   UNL     1       2.417   3.792  18.130  0.00  0.00    +0.000 A 
ATOM     10  C   UNL     1       1.722   2.685  18.648  0.00  0.00    +0.000 A 
ATOM     11  C   UNL     1       0.995   2.788  19.836  0.00  0.00    +0.000 A 
ATOM     12  C   UNL     1       0.946   4.001  20.524  0.00  0.00    +0.000 A 
ATOM     13  C   UNL     1       1.623   5.107  20.016  0.00  0.00    +0.000 A 
ATOM     14 CL   UNL     1       1.559   6.606  20.860  0.00  0.00    +0.000 Cl
ATOM     15  C   UNL     1       2.352   5.012  18.828  0.00  0.00    +0.000 A 
ENDBRANCH   8   9
ENDBRANCH   7   8
ENDBRANCH   6   7
ENDBRANCH   5   6
ENDBRANCH   2   5
BRANCH   3  16
ATOM     16  C   UNL     1       8.384   8.817  18.295  0.00  0.00    +0.000 C 
BRANCH  16  17
ATOM     17  C   UNL     1       8.902  10.142  17.727  0.00  0.00    +0.000 C 
BRANCH  17  18
ATOM     18  C   UNL     1       9.164  11.186  18.792  0.00  0.00    +0.000 A 
ATOM     19  C   UNL     1       9.531  10.794  20.091  0.00  0.00    +0.000 A 
ATOM     20  C   UNL     1       9.772  11.752  21.081  0.00  0.00    +0.000 A 
ATOM     21  C   UNL     1       9.646  13.106  20.783  0.00  0.00    +0.000 A 
ATOM     22 CL   UNL     1       9.942  14.282  22.002  0.00  0.00    +0.000 Cl
ATOM     23  C   UNL     1       9.281  13.510  19.500  0.00  0.00    +0.000 A 
ATOM     24  C   UNL     1       9.040  12.554  18.510  0.00  0.00    +0.000 A 
ENDBRANCH  17  18
ENDBRANCH  16  17
ENDBRANCH   3  16
TORSDOF 8
ENDMDL
