MODEL 1
REMARK VINA RESULT:      -8.4      0.000      0.000
REMARK  Name = 
REMARK  4 active torsions:
REMARK  status: ('A' for Active; 'I' for Inactive)
REMARK    1  A    between atoms: C_1  and  C_2
REMARK    2  A    between atoms: C_5  and  C_6
REMARK    3  A    between atoms: C_6  and  C_7
REMARK    4  A    between atoms: C_15  and  C_16
REMARK                            x       y       z     vdW  Elec       q    Type
REMARK                         _______ _______ _______ _____ _____    ______ ____
ROOT
ATOM      1  C   UNL     1       1.441   7.276  20.632  0.00  0.00    +0.000 C 
ATOM      2  O   UNL     1       2.213   8.226  20.473  0.00  0.00    +0.000 OA
ATOM      3  N   UNL     1       1.782   5.985  20.248  0.00  0.00    +0.000 N 
ATOM      4  C   UNL     1       0.885   4.808  20.346  0.00  0.00    +0.000 C 
ATOM      5  C   UNL     1       1.586   3.562  20.932  0.00  0.00    +0.000 C 
ATOM      6  C   UNL     1       2.942   3.468  20.353  0.00  0.00    +0.000 A 
ATOM      7  N   UNL     1       3.785   2.411  20.401  0.00  0.00    +0.000 N 
ATOM      8  N   UNL     1       4.960   2.656  19.803  0.00  0.00    +0.000 NA
ATOM      9  C   UNL     1       4.887   3.943  19.399  0.00  0.00    +0.000 A 
ATOM     10  C   UNL     1       3.605   4.482  19.703  0.00  0.00    +0.000 A 
ATOM     11  C   UNL     1       3.022   5.827  19.451  0.00  0.00    +0.000 C 
ATOM     12  H   UNL     1       3.645   1.501  20.827  0.00  0.00    +0.000 HD
ENDROOT
BRANCH   9  13
ATOM     13  C   UNL     1       5.988   4.635  18.694  0.00  0.00    +0.000 C 
ATOM     14  O   UNL     1       6.918   5.128  19.338  0.00  0.00    +0.000 OA
ATOM     15  N   UNL     1       5.960   4.694  17.297  0.00  0.00    +0.000 N 
ATOM     16  C   UNL     1       4.966   4.037  16.441  0.00  0.00    +0.000 C 
ATOM     17  C   UNL     1       5.584   3.554  15.125  0.00  0.00    +0.000 C 
ATOM     18  O   UNL     1       6.321   4.591  14.464  0.00  0.00    +0.000 OA
ATOM     19  C   UNL     1       7.374   5.072  15.314  0.00  0.00    +0.000 C 
ATOM     20  C   UNL     1       6.804   5.664  16.603  0.00  0.00    +0.000 C 
ENDBRANCH   9  13
BRANCH   1  21
ATOM     21  C   UNL     1       0.079   7.525  21.267  0.00  0.00    +0.000 C 
BRANCH  21  26
ATOM     22  C   UNL     1      -1.309  13.065  22.459  0.00  0.00    +0.000 C 
ATOM     23  C   UNL     1      -0.941  11.648  22.139  0.00  0.00    +0.000 A 
ATOM     24  C   UNL     1      -0.745  11.237  20.817  0.00  0.00    +0.000 A 
ATOM     25  C   UNL     1      -0.408   9.912  20.527  0.00  0.00    +0.000 A 
ATOM     26  C   UNL     1      -0.240   8.975  21.554  0.00  0.00    +0.000 A 
ATOM     27  C   UNL     1      -0.463   9.385  22.877  0.00  0.00    +0.000 A 
ATOM     28  C   UNL     1      -0.804  10.709  23.167  0.00  0.00    +0.000 A 
ENDBRANCH  21  26
ENDBRANCH   1  21
TORSDOF 3
ENDMDL
MODEL 2
REMARK VINA RESULT:      -8.0      2.358      3.276
REMARK  Name = 
REMARK  4 active torsions:
REMARK  status: ('A' for Active; 'I' for Inactive)
REMARK    1  A    between atoms: C_1  and  C_2
REMARK    2  A    between atoms: C_5  and  C_6
REMARK    3  A    between atoms: C_6  and  C_7
REMARK    4  A    between atoms: C_15  and  C_16
REMARK                            x       y       z     vdW  Elec       q    Type
REMARK                         _______ _______ _______ _____ _____    ______ ____
ROOT
ATOM      1  C   UNL     1       1.753   9.570  18.403  0.00  0.00    +0.000 C 
ATOM      2  O   UNL     1       2.423   9.734  17.379  0.00  0.00    +0.000 OA
ATOM      3  N   UNL     1       1.595   8.316  18.979  0.00  0.00    +0.000 N 
ATOM      4  C   UNL     1       0.755   8.030  20.167  0.00  0.00    +0.000 C 
ATOM      5  C   UNL     1       1.458   7.123  21.200  0.00  0.00    +0.000 C 
ATOM      6  C   UNL     1       2.181   6.057  20.477  0.00  0.00    +0.000 A 
ATOM      7  N   UNL     1       2.712   4.925  20.995  0.00  0.00    +0.000 N 
ATOM      8  N   UNL     1       3.333   4.173  20.075  0.00  0.00    +0.000 NA
ATOM      9  C   UNL     1       3.241   4.878  18.926  0.00  0.00    +0.000 A 
ATOM     10  C   UNL     1       2.486   6.066  19.137  0.00  0.00    +0.000 A 
ATOM     11  C   UNL     1       2.088   7.153  18.202  0.00  0.00    +0.000 C 
ATOM     12  H   UNL     1       2.707   4.600  21.956  0.00  0.00    +0.000 HD
ENDROOT
BRANCH   9  13
ATOM     13  C   UNL     1       3.811   4.413  17.642  0.00  0.00    +0.000 C 
ATOM     14  O   UNL     1       3.158   3.659  16.915  0.00  0.00    +0.000 OA
ATOM     15  N   UNL     1       5.081   4.864  17.268  0.00  0.00    +0.000 N 
ATOM     16  C   UNL     1       5.880   5.851  18.003  0.00  0.00    +0.000 C 
ATOM     17  C   UNL     1       6.700   6.733  17.055  0.00  0.00    +0.000 C 
ATOM     18  O   UNL     1       7.458   5.956  16.119  0.00  0.00    +0.000 OA
ATOM     19  C   UNL     1       6.584   5.131  15.333  0.00  0.00    +0.000 C 
ATOM     20  C   UNL     1       5.815   4.154  16.223  0.00  0.00    +0.000 C 
ENDBRANCH   9  13
BRANCH   1  21
ATOM     21  C   UNL     1       1.082  10.774  19.052  0.00  0.00    +0.000 C 
BRANCH  21  26
ATOM     22  C   UNL     1      -4.608  11.413  17.930  0.00  0.00    +0.000 C 
ATOM     23  C   UNL     1      -3.142  11.247  18.199  0.00  0.00    +0.000 A 
ATOM     24  C   UNL     1      -2.376  10.330  17.472  0.00  0.00    +0.000 A 
ATOM     25  C   UNL     1      -1.012  10.178  17.734  0.00  0.00    +0.000 A 
ATOM     26  C   UNL     1      -0.381  10.951  18.716  0.00  0.00    +0.000 A 
ATOM     27  C   UNL     1      -1.158  11.851  19.461  0.00  0.00    +0.000 A 
ATOM     28  C   UNL     1      -2.523  12.001  19.201  0.00  0.00    +0.000 A 
ENDBRANCH  21  26
ENDBRANCH   1  21
TORSDOF 3
ENDMDL
MODEL 3
REMARK VINA RESULT:      -7.8      3.750     10.037
REMARK  Name = 
REMARK  4 active torsions:
REMARK  status: ('A' for Active; 'I' for Inactive)
REMARK    1  A    between atoms: C_1  and  C_2
REMARK    2  A    between atoms: C_5  and  C_6
REMARK    3  A    between atoms: C_6  and  C_7
REMARK    4  A    between atoms: C_15  and  C_16
REMARK                            x       y       z     vdW  Elec       q    Type
REMARK                         _______ _______ _______ _____ _____    ______ ____
ROOT
ATOM      1  C   UNL     1       1.964   7.938  19.370  0.00  0.00    +0.000 C 
ATOM      2  O   UNL     1       1.699   7.294  20.390  0.00  0.00    +0.000 OA
ATOM      3  N   UNL     1       1.508   9.238  19.189  0.00  0.00    +0.000 N 
ATOM      4  C   UNL     1       1.727  10.049  17.967  0.00  0.00    +0.000 C 
ATOM      5  C   UNL     1       2.173  11.496  18.275  0.00  0.00    +0.000 C 
ATOM      6  C   UNL     1       1.385  11.999  19.418  0.00  0.00    +0.000 A 
ATOM      7  N   UNL     1       1.280  13.279  19.846  0.00  0.00    +0.000 N 
ATOM      8  N   UNL     1       0.507  13.401  20.935  0.00  0.00    +0.000 NA
ATOM      9  C   UNL     1       0.142  12.139  21.250  0.00  0.00    +0.000 A 
ATOM     10  C   UNL     1       0.655  11.224  20.288  0.00  0.00    +0.000 A 
ATOM     11  C   UNL     1       0.522   9.747  20.172  0.00  0.00    +0.000 C 
ATOM     12  H   UNL     1       1.707  14.116  19.465  0.00  0.00    +0.000 HD
ENDROOT
BRANCH   9  13
ATOM     13  C   UNL     1      -0.718  11.809  22.409  0.00  0.00    +0.000 C 
ATOM     14  O   UNL     1      -0.335  10.984  23.244  0.00  0.00    +0.000 OA
ATOM     15  N   UNL     1      -1.945  12.465  22.544  0.00  0.00    +0.000 N 
ATOM     16  C   UNL     1      -2.430  13.542  21.675  0.00  0.00    +0.000 C 
ATOM     17  C   UNL     1      -3.256  14.570  22.455  0.00  0.00    +0.000 C 
ATOM     18  O   UNL     1      -4.285  13.951  23.238  0.00  0.00    +0.000 OA
ATOM     19  C   UNL     1      -3.710  13.023  24.171  0.00  0.00    +0.000 C 
ATOM     20  C   UNL     1      -2.959  11.912  23.438  0.00  0.00    +0.000 C 
ENDBRANCH   9  13
BRANCH   1  21
ATOM     21  C   UNL     1       2.810   7.291  18.281  0.00  0.00    +0.000 C 
BRANCH  21  26
ATOM     22  C   UNL     1       3.468   1.500  18.555  0.00  0.00    +0.000 C 
ATOM     23  C   UNL     1       3.280   2.986  18.488  0.00  0.00    +0.000 A 
ATOM     24  C   UNL     1       2.144   3.542  17.891  0.00  0.00    +0.000 A 
ATOM     25  C   UNL     1       1.980   4.928  17.829  0.00  0.00    +0.000 A 
ATOM     26  C   UNL     1       2.939   5.788  18.377  0.00  0.00    +0.000 A 
ATOM     27  C   UNL     1       4.091   5.228  18.951  0.00  0.00    +0.000 A 
ATOM     28  C   UNL     1       4.256   3.841  19.010  0.00  0.00    +0.000 A 
ENDBRANCH  21  26
ENDBRANCH   1  21
TORSDOF 3
ENDMDL
MODEL 4
REMARK VINA RESULT:      -7.7      4.441      9.590
REMARK  Name = 
REMARK  4 active torsions:
REMARK  status: ('A' for Active; 'I' for Inactive)
REMARK    1  A    between atoms: C_1  and  C_2
REMARK    2  A    between atoms: C_5  and  C_6
REMARK    3  A    between atoms: C_6  and  C_7
REMARK    4  A    between atoms: C_15  and  C_16
REMARK                            x       y       z     vdW  Elec       q    Type
REMARK                         _______ _______ _______ _____ _____    ______ ____
ROOT
ATOM      1  C   UNL     1       1.010   8.370  20.577  0.00  0.00    +0.000 C 
ATOM      2  O   UNL     1       0.220   8.220  21.514  0.00  0.00    +0.000 OA
ATOM      3  N   UNL     1       0.822   9.353  19.613  0.00  0.00    +0.000 N 
ATOM      4  C   UNL     1       1.688   9.551  18.426  0.00  0.00    +0.000 C 
ATOM      5  C   UNL     1       2.052  11.033  18.184  0.00  0.00    +0.000 C 
ATOM      6  C   UNL     1       0.851  11.859  18.424  0.00  0.00    +0.000 A 
ATOM      7  N   UNL     1       0.664  13.156  18.089  0.00  0.00    +0.000 N 
ATOM      8  N   UNL     1      -0.532  13.626  18.475  0.00  0.00    +0.000 NA
ATOM      9  C   UNL     1      -1.117  12.600  19.131  0.00  0.00    +0.000 A 
ATOM     10  C   UNL     1      -0.280  11.449  19.091  0.00  0.00    +0.000 A 
ATOM     11  C   UNL     1      -0.471  10.079  19.638  0.00  0.00    +0.000 C 
ATOM     12  H   UNL     1       1.297  13.790  17.614  0.00  0.00    +0.000 HD
ENDROOT
BRANCH   9  13
ATOM     13  C   UNL     1      -2.462  12.690  19.741  0.00  0.00    +0.000 C 
ATOM     14  O   UNL     1      -2.613  13.282  20.814  0.00  0.00    +0.000 OA
ATOM     15  N   UNL     1      -3.545  12.116  19.069  0.00  0.00    +0.000 N 
ATOM     16  C   UNL     1      -3.485  11.500  17.739  0.00  0.00    +0.000 C 
ATOM     17  C   UNL     1      -4.776  11.737  16.947  0.00  0.00    +0.000 C 
ATOM     18  O   UNL     1      -5.942  11.378  17.700  0.00  0.00    +0.000 OA
ATOM     19  C   UNL     1      -6.005  12.140  18.916  0.00  0.00    +0.000 C 
ATOM     20  C   UNL     1      -4.786  11.859  19.795  0.00  0.00    +0.000 C 
ENDBRANCH   9  13
BRANCH   1  21
ATOM     21  C   UNL     1       2.222   7.453  20.473  0.00  0.00    +0.000 C 
BRANCH  21  26
ATOM     22  C   UNL     1       1.235   2.044  18.521  0.00  0.00    +0.000 C 
ATOM     23  C   UNL     1       1.482   3.441  19.006  0.00  0.00    +0.000 A 
ATOM     24  C   UNL     1       1.969   4.426  18.142  0.00  0.00    +0.000 A 
ATOM     25  C   UNL     1       2.202   5.725  18.605  0.00  0.00    +0.000 A 
ATOM     26  C   UNL     1       1.935   6.069  19.935  0.00  0.00    +0.000 A 
ATOM     27  C   UNL     1       1.471   5.071  20.805  0.00  0.00    +0.000 A 
ATOM     28  C   UNL     1       1.243   3.771  20.344  0.00  0.00    +0.000 A 
ENDBRANCH  21  26
ENDBRANCH   1  21
TORSDOF 3
ENDMDL
MODEL 5
REMARK VINA RESULT:      -7.6      4.362      9.964
REMARK  Name = 
REMARK  4 active torsions:
REMARK  status: ('A' for Active; 'I' for Inactive)
REMARK    1  A    between atoms: C_1  and  C_2
REMARK    2  A    between atoms: C_5  and  C_6
REMARK    3  A    between atoms: C_6  and  C_7
REMARK    4  A    between atoms: C_15  and  C_16
REMARK                            x       y       z     vdW  Elec       q    Type
REMARK                         _______ _______ _______ _____ _____    ______ ____
ROOT
ATOM      1  C   UNL     1       1.190   8.370  20.487  0.00  0.00    +0.000 C 
ATOM      2  O   UNL     1       0.470   8.204  21.476  0.00  0.00    +0.000 OA
ATOM      3  N   UNL     1       0.940   9.378  19.563  0.00  0.00    +0.000 N 
ATOM      4  C   UNL     1       1.717   9.599  18.320  0.00  0.00    +0.000 C 
ATOM      5  C   UNL     1       2.075  11.084  18.087  0.00  0.00    +0.000 C 
ATOM      6  C   UNL     1       0.902  11.912  18.435  0.00  0.00    +0.000 A 
ATOM      7  N   UNL     1       0.702  13.218  18.145  0.00  0.00    +0.000 N 
ATOM      8  N   UNL     1      -0.458  13.686  18.630  0.00  0.00    +0.000 NA
ATOM      9  C   UNL     1      -1.001  12.649  19.303  0.00  0.00    +0.000 A 
ATOM     10  C   UNL     1      -0.180  11.493  19.173  0.00  0.00    +0.000 A 
ATOM     11  C   UNL     1      -0.341  10.112  19.700  0.00  0.00    +0.000 C 
ATOM     12  H   UNL     1       1.303  13.859  17.640  0.00  0.00    +0.000 HD
ENDROOT
BRANCH   9  13
ATOM     13  C   UNL     1      -2.297  12.733  20.013  0.00  0.00    +0.000 C 
ATOM     14  O   UNL     1      -3.310  12.241  19.507  0.00  0.00    +0.000 OA
ATOM     15  N   UNL     1      -2.338  13.352  21.267  0.00  0.00    +0.000 N 
ATOM     16  C   UNL     1      -1.172  13.855  22.001  0.00  0.00    +0.000 C 
ATOM     17  C   UNL     1      -1.338  13.678  23.514  0.00  0.00    +0.000 C 
ATOM     18  O   UNL     1      -2.587  14.201  23.983  0.00  0.00    +0.000 OA
ATOM     19  C   UNL     1      -3.681  13.545  23.324  0.00  0.00    +0.000 C 
ATOM     20  C   UNL     1      -3.623  13.778  21.814  0.00  0.00    +0.000 C 
ENDBRANCH   9  13
BRANCH   1  21
ATOM     21  C   UNL     1       2.383   7.448  20.272  0.00  0.00    +0.000 C 
BRANCH  21  26
ATOM     22  C   UNL     1       0.915   2.056  18.594  0.00  0.00    +0.000 C 
ATOM     23  C   UNL     1       1.299   3.434  19.042  0.00  0.00    +0.000 A 
ATOM     24  C   UNL     1       1.180   3.815  20.382  0.00  0.00    +0.000 A 
ATOM     25  C   UNL     1       1.536   5.104  20.789  0.00  0.00    +0.000 A 
ATOM     26  C   UNL     1       2.035   6.033  19.868  0.00  0.00    +0.000 A 
ATOM     27  C   UNL     1       2.128   5.656  18.520  0.00  0.00    +0.000 A 
ATOM     28  C   UNL     1       1.769   4.368  18.112  0.00  0.00    +0.000 A 
ENDBRANCH  21  26
ENDBRANCH   1  21
TORSDOF 3
ENDMDL
MODEL 6
REMARK VINA RESULT:      -7.5      1.587      2.039
REMARK  Name = 
REMARK  4 active torsions:
REMARK  status: ('A' for Active; 'I' for Inactive)
REMARK    1  A    between atoms: C_1  and  C_2
REMARK    2  A    between atoms: C_5  and  C_6
REMARK    3  A    between atoms: C_6  and  C_7
REMARK    4  A    between atoms: C_15  and  C_16
REMARK                            x       y       z     vdW  Elec       q    Type
REMARK                         _______ _______ _______ _____ _____    ______ ____
ROOT
ATOM      1  C   UNL     1       1.916   7.641  19.799  0.00  0.00    +0.000 C 
ATOM      2  O   UNL     1       2.381   8.258  18.837  0.00  0.00    +0.000 OA
ATOM      3  N   UNL     1       1.966   6.254  19.869  0.00  0.00    +0.000 N 
ATOM      4  C   UNL     1       1.372   5.440  20.956  0.00  0.00    +0.000 C 
ATOM      5  C   UNL     1       2.319   4.330  21.465  0.00  0.00    +0.000 C 
ATOM      6  C   UNL     1       2.991   3.713  20.303  0.00  0.00    +0.000 A 
ATOM      7  N   UNL     1       3.696   2.560  20.277  0.00  0.00    +0.000 N 
ATOM      8  N   UNL     1       4.209   2.290  19.067  0.00  0.00    +0.000 NA
ATOM      9  C   UNL     1       3.859   3.342  18.296  0.00  0.00    +0.000 A 
ATOM     10  C   UNL     1       3.056   4.253  19.040  0.00  0.00    +0.000 A 
ATOM     11  C   UNL     1       2.411   5.535  18.651  0.00  0.00    +0.000 C 
ATOM     12  H   UNL     1       3.886   1.910  21.033  0.00  0.00    +0.000 HD
ENDROOT
BRANCH   9  13
ATOM     13  C   UNL     1       4.234   3.462  16.870  0.00  0.00    +0.000 C 
ATOM     14  O   UNL     1       3.466   3.050  15.995  0.00  0.00    +0.000 OA
ATOM     15  N   UNL     1       5.451   4.069  16.543  0.00  0.00    +0.000 N 
ATOM     16  C   UNL     1       6.369   4.695  17.500  0.00  0.00    +0.000 C 
ATOM     17  C   UNL     1       7.073   5.913  16.894  0.00  0.00    +0.000 C 
ATOM     18  O   UNL     1       7.674   5.613  15.628  0.00  0.00    +0.000 OA
ATOM     19  C   UNL     1       6.678   5.152  14.701  0.00  0.00    +0.000 C 
ATOM     20  C   UNL     1       6.014   3.873  15.209  0.00  0.00    +0.000 C 
ENDBRANCH   9  13
BRANCH   1  21
ATOM     21  C   UNL     1       1.270   8.417  20.939  0.00  0.00    +0.000 C 
BRANCH  21  26
ATOM     22  C   UNL     1      -1.261  13.495  19.578  0.00  0.00    +0.000 C 
ATOM     23  C   UNL     1      -0.612  12.185  19.909  0.00  0.00    +0.000 A 
ATOM     24  C   UNL     1      -1.036  10.998  19.302  0.00  0.00    +0.000 A 
ATOM     25  C   UNL     1      -0.428   9.781  19.621  0.00  0.00    +0.000 A 
ATOM     26  C   UNL     1       0.627   9.726  20.540  0.00  0.00    +0.000 A 
ATOM     27  C   UNL     1       1.031  10.915  21.166  0.00  0.00    +0.000 A 
ATOM     28  C   UNL     1       0.421  12.132  20.850  0.00  0.00    +0.000 A 
ENDBRANCH  21  26
ENDBRANCH   1  21
TORSDOF 3
ENDMDL
MODEL 7
REMARK VINA RESULT:      -7.4      4.148      9.940
REMARK  Name = 
REMARK  4 active torsions:
REMARK  status: ('A' for Active; 'I' for Inactive)
REMARK    1  A    between atoms: C_1  and  C_2
REMARK    2  A    between atoms: C_5  and  C_6
REMARK    3  A    between atoms: C_6  and  C_7
REMARK    4  A    between atoms: C_15  and  C_16
REMARK                            x       y       z     vdW  Elec       q    Type
REMARK                         _______ _______ _______ _____ _____    ______ ____
ROOT
ATOM      1  C   UNL     1       1.690   8.240  20.277  0.00  0.00    +0.000 C 
ATOM      2  O   UNL     1       1.409   7.891  21.427  0.00  0.00    +0.000 OA
ATOM      3  N   UNL     1       1.222   9.433  19.741  0.00  0.00    +0.000 N 
ATOM      4  C   UNL     1       1.460   9.887  18.350  0.00  0.00    +0.000 C 
ATOM      5  C   UNL     1       1.878  11.372  18.263  0.00  0.00    +0.000 C 
ATOM      6  C   UNL     1       1.055  12.150  19.210  0.00  0.00    +0.000 A 
ATOM      7  N   UNL     1       0.922  13.495  19.272  0.00  0.00    +0.000 N 
ATOM      8  N   UNL     1       0.120  13.893  20.271  0.00  0.00    +0.000 NA
ATOM      9  C   UNL     1      -0.236  12.756  20.909  0.00  0.00    +0.000 A 
ATOM     10  C   UNL     1       0.314  11.625  20.242  0.00  0.00    +0.000 A 
ATOM     11  C   UNL     1       0.204  10.169  20.529  0.00  0.00    +0.000 C 
ATOM     12  H   UNL     1       1.347  14.206  18.688  0.00  0.00    +0.000 HD
ENDROOT
BRANCH   9  13
ATOM     13  C   UNL     1      -1.120  12.735  22.096  0.00  0.00    +0.000 C 
ATOM     14  O   UNL     1      -0.630  12.757  23.229  0.00  0.00    +0.000 OA
ATOM     15  N   UNL     1      -2.504  12.716  21.903  0.00  0.00    +0.000 N 
ATOM     16  C   UNL     1      -3.180  12.811  20.604  0.00  0.00    +0.000 C 
ATOM     17  C   UNL     1      -4.500  13.581  20.708  0.00  0.00    +0.000 C 
ATOM     18  O   UNL     1      -5.335  13.078  21.759  0.00  0.00    +0.000 OA
ATOM     19  C   UNL     1      -4.655  13.165  23.021  0.00  0.00    +0.000 C 
ATOM     20  C   UNL     1      -3.377  12.325  23.007  0.00  0.00    +0.000 C 
ENDBRANCH   9  13
BRANCH   1  21
ATOM     21  C   UNL     1       2.573   7.340  19.422  0.00  0.00    +0.000 C 
BRANCH  21  26
ATOM     22  C   UNL     1       0.682   1.843  18.920  0.00  0.00    +0.000 C 
ATOM     23  C   UNL     1       1.176   3.251  19.066  0.00  0.00    +0.000 A 
ATOM     24  C   UNL     1       1.190   3.883  20.313  0.00  0.00    +0.000 A 
ATOM     25  C   UNL     1       1.647   5.197  20.439  0.00  0.00    +0.000 A 
ATOM     26  C   UNL     1       2.117   5.901  19.323  0.00  0.00    +0.000 A 
ATOM     27  C   UNL     1       2.078   5.273  18.069  0.00  0.00    +0.000 A 
ATOM     28  C   UNL     1       1.617   3.959  17.943  0.00  0.00    +0.000 A 
ENDBRANCH  21  26
ENDBRANCH   1  21
TORSDOF 3
ENDMDL
MODEL 8
REMARK VINA RESULT:      -7.4      5.315     10.925
REMARK  Name = 
REMARK  4 active torsions:
REMARK  status: ('A' for Active; 'I' for Inactive)
REMARK    1  A    between atoms: C_1  and  C_2
REMARK    2  A    between atoms: C_5  and  C_6
REMARK    3  A    between atoms: C_6  and  C_7
REMARK    4  A    between atoms: C_15  and  C_16
REMARK                            x       y       z     vdW  Elec       q    Type
REMARK                         _______ _______ _______ _____ _____    ______ ____
ROOT
ATOM      1  C   UNL     1       0.498  10.815  18.834  0.00  0.00    +0.000 C 
ATOM      2  O   UNL     1       0.828  11.559  19.762  0.00  0.00    +0.000 OA
ATOM      3  N   UNL     1      -0.834  10.629  18.486  0.00  0.00    +0.000 N 
ATOM      4  C   UNL     1      -1.312   9.704  17.430  0.00  0.00    +0.000 C 
ATOM      5  C   UNL     1      -2.377  10.338  16.508  0.00  0.00    +0.000 C 
ATOM      6  C   UNL     1      -3.310  11.127  17.339  0.00  0.00    +0.000 A 
ATOM      7  N   UNL     1      -4.511  11.631  16.974  0.00  0.00    +0.000 N 
ATOM      8  N   UNL     1      -5.101  12.331  17.955  0.00  0.00    +0.000 NA
ATOM      9  C   UNL     1      -4.217  12.318  18.976  0.00  0.00    +0.000 A 
ATOM     10  C   UNL     1      -3.079  11.534  18.632  0.00  0.00    +0.000 A 
ATOM     11  C   UNL     1      -1.853  11.195  19.402  0.00  0.00    +0.000 C 
ATOM     12  H   UNL     1      -4.991  11.557  16.083  0.00  0.00    +0.000 HD
ENDROOT
BRANCH   9  13
ATOM     13  C   UNL     1      -4.463  12.991  20.270  0.00  0.00    +0.000 C 
ATOM     14  O   UNL     1      -3.753  13.939  20.616  0.00  0.00    +0.000 OA
ATOM     15  N   UNL     1      -5.523  12.547  21.068  0.00  0.00    +0.000 N 
ATOM     16  C   UNL     1      -6.492  11.513  20.689  0.00  0.00    +0.000 C 
ATOM     17  C   UNL     1      -7.886  11.811  21.253  0.00  0.00    +0.000 C 
ATOM     18  O   UNL     1      -7.849  12.083  22.660  0.00  0.00    +0.000 OA
ATOM     19  C   UNL     1      -6.997  13.208  22.929  0.00  0.00    +0.000 C 
ATOM     20  C   UNL     1      -5.564  12.922  22.479  0.00  0.00    +0.000 C 
ENDBRANCH   9  13
BRANCH   1  21
ATOM     21  C   UNL     1       1.578  10.081  18.050  0.00  0.00    +0.000 C 
BRANCH  21  26
ATOM     22  C   UNL     1       3.007   4.796  20.069  0.00  0.00    +0.000 C 
ATOM     23  C   UNL     1       2.643   6.162  19.568  0.00  0.00    +0.000 A 
ATOM     24  C   UNL     1       1.934   7.058  20.373  0.00  0.00    +0.000 A 
ATOM     25  C   UNL     1       1.594   8.327  19.895  0.00  0.00    +0.000 A 
ATOM     26  C   UNL     1       1.973   8.733  18.609  0.00  0.00    +0.000 A 
ATOM     27  C   UNL     1       2.662   7.821  17.795  0.00  0.00    +0.000 A 
ATOM     28  C   UNL     1       2.998   6.550  18.272  0.00  0.00    +0.000 A 
ENDBRANCH  21  26
ENDBRANCH   1  21
TORSDOF 3
ENDMDL
MODEL 9
REMARK VINA RESULT:      -7.4      2.056      9.049
REMARK  Name = 
REMARK  4 active torsions:
REMARK  status: ('A' for Active; 'I' for Inactive)
REMARK    1  A    between atoms: C_1  and  C_2
REMARK    2  A    between atoms: C_5  and  C_6
REMARK    3  A    between atoms: C_6  and  C_7
REMARK    4  A    between atoms: C_15  and  C_16
REMARK                            x       y       z     vdW  Elec       q    Type
REMARK                         _______ _______ _______ _____ _____    ______ ____
ROOT
ATOM      1  C   UNL     1       5.654   6.415  16.313  0.00  0.00    +0.000 C 
ATOM      2  O   UNL     1       5.181   7.276  15.566  0.00  0.00    +0.000 OA
ATOM      3  N   UNL     1       5.195   6.243  17.613  0.00  0.00    +0.000 N 
ATOM      4  C   UNL     1       5.756   5.278  18.589  0.00  0.00    +0.000 C 
ATOM      5  C   UNL     1       4.668   4.485  19.348  0.00  0.00    +0.000 C 
ATOM      6  C   UNL     1       3.572   5.409  19.702  0.00  0.00    +0.000 A 
ATOM      7  N   UNL     1       2.559   5.189  20.572  0.00  0.00    +0.000 N 
ATOM      8  N   UNL     1       1.706   6.221  20.648  0.00  0.00    +0.000 NA
ATOM      9  C   UNL     1       2.163   7.121  19.751  0.00  0.00    +0.000 A 
ATOM     10  C   UNL     1       3.367   6.653  19.153  0.00  0.00    +0.000 A 
ATOM     11  C   UNL     1       4.260   7.269  18.136  0.00  0.00    +0.000 C 
ATOM     12  H   UNL     1       2.371   4.369  21.137  0.00  0.00    +0.000 HD
ENDROOT
BRANCH   9  13
ATOM     13  C   UNL     1       1.502   8.421  19.498  0.00  0.00    +0.000 C 
ATOM     14  O   UNL     1       1.239   8.764  18.342  0.00  0.00    +0.000 OA
ATOM     15  N   UNL     1       1.167   9.228  20.590  0.00  0.00    +0.000 N 
ATOM     16  C   UNL     1       1.328   8.855  22.000  0.00  0.00    +0.000 C 
ATOM     17  C   UNL     1       0.208   9.436  22.870  0.00  0.00    +0.000 C 
ATOM     18  O   UNL     1       0.038  10.843  22.659  0.00  0.00    +0.000 OA
ATOM     19  C   UNL     1      -0.270  11.107  21.282  0.00  0.00    +0.000 C 
ATOM     20  C   UNL     1       0.867  10.641  20.373  0.00  0.00    +0.000 C 
ENDBRANCH   9  13
BRANCH   1  21
ATOM     21  C   UNL     1       6.771   5.516  15.797  0.00  0.00    +0.000 C 
BRANCH  21  26
ATOM     22  C   UNL     1       5.522   2.425  11.009  0.00  0.00    +0.000 C 
ATOM     23  C   UNL     1       5.850   3.233  12.228  0.00  0.00    +0.000 A 
ATOM     24  C   UNL     1       7.032   3.977  12.302  0.00  0.00    +0.000 A 
ATOM     25  C   UNL     1       7.332   4.723  13.444  0.00  0.00    +0.000 A 
ATOM     26  C   UNL     1       6.449   4.756  14.531  0.00  0.00    +0.000 A 
ATOM     27  C   UNL     1       5.277   3.987  14.464  0.00  0.00    +0.000 A 
ATOM     28  C   UNL     1       4.979   3.237  13.323  0.00  0.00    +0.000 A 
ENDBRANCH  21  26
ENDBRANCH   1  21
TORSDOF 3
ENDMDL
