MODEL 1
REMARK VINA RESULT:      -6.9      0.000      0.000
REMARK  Name = 
REMARK  15 active torsions:
REMARK  status: ('A' for Active; 'I' for Inactive)
REMARK    1  A    between atoms: C_1  and  C_2
REMARK    2  A    between atoms: C_2  and  C_3
REMARK    3  A    between atoms: C_2  and  C_4
REMARK    4  A    between atoms: C_4  and  S_5
REMARK    5  A    between atoms: C_4  and  C_6
REMARK    6  A    between atoms: N_8  and  C_9
REMARK    7  A    between atoms: C_9  and  C_10
REMARK    8  A    between atoms: C_9  and  C_11
REMARK    9  A    between atoms: C_9  and  C_12
REMARK   10  A    between atoms: N_14  and  CA_15
REMARK   11  A    between atoms: CA_15  and  CB_16
REMARK   12  A    between atoms: CA_15  and  C_24
REMARK   13  A    between atoms: CB_16  and  CG_17
REMARK   14  A    between atoms: CZ_20  and  OH_21
REMARK   15  A    between atoms: C_24  and  OXT_26
REMARK                            x       y       z     vdW  Elec       q    Type
REMARK                         _______ _______ _______ _____ _____    ______ ____
ROOT
ATOM      1  C   UNK A   0       5.671   6.006  17.586  0.00  0.00    +0.000 C 
ATOM      2  O   UNK A   0       5.140   7.122  17.609  0.00  0.00    +0.000 OA
ATOM      3  N   TYR A   1       5.049   4.901  18.114  0.00  0.00    +0.000 N 
ATOM      4  H   TYR A   1       5.536   4.010  18.167  0.00  0.00    +0.000 HD
ENDROOT
BRANCH   1   5
ATOM      5  C   UNK A   0       7.130   5.825  17.055  0.00  0.00    +0.000 C 
ATOM      6  C   UNK A   0       7.778   4.557  17.627  0.00  0.00    +0.000 C 
ATOM      7  C   UNK A   0       7.875   7.098  17.483  0.00  0.00    +0.000 C 
BRANCH   5  10
ATOM      8  C   UNK A   0       6.519   4.631  14.909  0.00  0.00    +0.000 C 
ATOM      9  O   UNK A   0       6.053   3.672  15.517  0.00  0.00    +0.000 OA
ATOM     10  N   UNK A   0       7.047   5.724  15.575  0.00  0.00    +0.000 N 
ATOM     11  H   UNK A   0       7.522   6.445  15.041  0.00  0.00    +0.000 HD
BRANCH   8  12
ATOM     12  C   UNK A   0       6.526   4.712  13.365  0.00  0.00    +0.000 C 
BRANCH  12  14
ATOM     13  C   UNK A   0       7.099   2.831  11.638  0.00  0.00    +0.000 C 
ATOM     14  C   UNK A   0       6.111   3.372  12.682  0.00  0.00    +0.000 C 
ATOM     15  C   UNK A   0       4.717   3.427  12.036  0.00  0.00    +0.000 C 
ENDBRANCH  12  14
BRANCH  12  16
ATOM     16  S   UNK A   0       8.153   5.363  12.813  0.00  0.00    +0.000 S 
ATOM     17  H   UNK A   0       7.679   6.466  12.214  0.00  0.00    +0.000 HD
ENDBRANCH  12  16
ENDBRANCH   8  12
ENDBRANCH   5  10
ENDBRANCH   1   5
BRANCH   3  18
ATOM     18  CA  TYR A   1       3.713   4.909  18.722  0.00  0.00    +0.000 C 
BRANCH  18  19
ATOM     19  C   TYR A   1       3.247   3.455  18.887  0.00  0.00    +0.000 C 
ATOM     20  O   TYR A   1       2.104   3.148  19.227  0.00  0.00    +0.000 OA
BRANCH  19  21
ATOM     21  OXT TYR A   1       4.167   2.513  18.579  0.00  0.00    +0.000 OA
ATOM     22  HXT TYR A   1       3.907   1.874  17.889  0.00  0.00    +0.000 HD
ENDBRANCH  19  21
ENDBRANCH  18  19
BRANCH  18  23
ATOM     23  CB  TYR A   1       2.668   5.742  17.967  0.00  0.00    +0.000 C 
BRANCH  23  24
ATOM     24  CG  TYR A   1       2.237   7.031  18.624  0.00  0.00    +0.000 A 
ATOM     25  CD1 TYR A   1       1.971   8.172  17.852  0.00  0.00    +0.000 A 
ATOM     26  CE1 TYR A   1       1.387   9.296  18.435  0.00  0.00    +0.000 A 
ATOM     27  CZ  TYR A   1       1.103   9.292  19.794  0.00  0.00    +0.000 A 
ATOM     28  CE2 TYR A   1       1.445   8.208  20.590  0.00  0.00    +0.000 A 
ATOM     29  CD2 TYR A   1       2.009   7.077  20.006  0.00  0.00    +0.000 A 
BRANCH  27  30
ATOM     30  OH  TYR A   1       0.454  10.338  20.385  0.00  0.00    +0.000 OA
ATOM     31  HH  TYR A   1       0.574  10.267  21.346  0.00  0.00    +0.000 HD
ENDBRANCH  27  30
ENDBRANCH  23  24
ENDBRANCH  18  23
ENDBRANCH   3  18
TORSDOF 11
ENDMDL
MODEL 2
REMARK VINA RESULT:      -6.8      2.985      5.476
REMARK  Name = 
REMARK  15 active torsions:
REMARK  status: ('A' for Active; 'I' for Inactive)
REMARK    1  A    between atoms: C_1  and  C_2
REMARK    2  A    between atoms: C_2  and  C_3
REMARK    3  A    between atoms: C_2  and  C_4
REMARK    4  A    between atoms: C_4  and  S_5
REMARK    5  A    between atoms: C_4  and  C_6
REMARK    6  A    between atoms: N_8  and  C_9
REMARK    7  A    between atoms: C_9  and  C_10
REMARK    8  A    between atoms: C_9  and  C_11
REMARK    9  A    between atoms: C_9  and  C_12
REMARK   10  A    between atoms: N_14  and  CA_15
REMARK   11  A    between atoms: CA_15  and  CB_16
REMARK   12  A    between atoms: CA_15  and  C_24
REMARK   13  A    between atoms: CB_16  and  CG_17
REMARK   14  A    between atoms: CZ_20  and  OH_21
REMARK   15  A    between atoms: C_24  and  OXT_26
REMARK                            x       y       z     vdW  Elec       q    Type
REMARK                         _______ _______ _______ _____ _____    ______ ____
ROOT
ATOM      1  C   UNK A   0       2.330   7.239  19.058  0.00  0.00    +0.000 C 
ATOM      2  O   UNK A   0       2.685   8.050  18.195  0.00  0.00    +0.000 OA
ATOM      3  N   TYR A   1       1.660   7.638  20.189  0.00  0.00    +0.000 N 
ATOM      4  H   TYR A   1       1.453   6.971  20.930  0.00  0.00    +0.000 HD
ENDROOT
BRANCH   1   5
ATOM      5  C   UNK A   0       2.730   5.732  18.953  0.00  0.00    +0.000 C 
ATOM      6  C   UNK A   0       1.870   4.998  17.915  0.00  0.00    +0.000 C 
ATOM      7  C   UNK A   0       2.538   5.165  20.366  0.00  0.00    +0.000 C 
BRANCH   5  10
ATOM      8  C   UNK A   0       4.880   4.513  18.409  0.00  0.00    +0.000 C 
ATOM      9  O   UNK A   0       4.362   3.415  18.592  0.00  0.00    +0.000 OA
ATOM     10  N   UNK A   0       4.158   5.686  18.546  0.00  0.00    +0.000 N 
ATOM     11  H   UNK A   0       4.646   6.574  18.493  0.00  0.00    +0.000 HD
BRANCH   8  12
ATOM     12  C   UNK A   0       6.356   4.673  17.980  0.00  0.00    +0.000 C 
BRANCH  12  14
ATOM     13  C   UNK A   0       7.518   6.949  17.416  0.00  0.00    +0.000 C 
ATOM     14  C   UNK A   0       7.004   5.993  18.503  0.00  0.00    +0.000 C 
ATOM     15  C   UNK A   0       8.144   5.753  19.506  0.00  0.00    +0.000 C 
ENDBRANCH  12  14
BRANCH  12  16
ATOM     16  S   UNK A   0       6.473   4.449  16.160  0.00  0.00    +0.000 S 
ATOM     17  H   UNK A   0       7.735   4.885  16.035  0.00  0.00    +0.000 HD
ENDBRANCH  12  16
ENDBRANCH   8  12
ENDBRANCH   5  10
ENDBRANCH   1   5
BRANCH   3  18
ATOM     18  CA  TYR A   1       1.275   9.023  20.484  0.00  0.00    +0.000 C 
BRANCH  18  19
ATOM     19  C   TYR A   1       0.998   9.140  21.990  0.00  0.00    +0.000 C 
ATOM     20  O   TYR A   1       1.850   9.490  22.806  0.00  0.00    +0.000 OA
BRANCH  19  21
ATOM     21  OXT TYR A   1      -0.275   8.881  22.367  0.00  0.00    +0.000 OA
ATOM     22  HXT TYR A   1      -0.614   9.412  23.112  0.00  0.00    +0.000 HD
ENDBRANCH  19  21
ENDBRANCH  18  19
BRANCH  18  23
ATOM     23  CB  TYR A   1       0.090   9.550  19.662  0.00  0.00    +0.000 C 
BRANCH  23  24
ATOM     24  CG  TYR A   1      -0.005  11.049  19.508  0.00  0.00    +0.000 A 
ATOM     25  CD1 TYR A   1       1.021  11.767  18.876  0.00  0.00    +0.000 A 
ATOM     26  CE1 TYR A   1       0.845  13.114  18.560  0.00  0.00    +0.000 A 
ATOM     27  CZ  TYR A   1      -0.340  13.749  18.908  0.00  0.00    +0.000 A 
ATOM     28  CE2 TYR A   1      -1.327  13.078  19.616  0.00  0.00    +0.000 A 
ATOM     29  CD2 TYR A   1      -1.162  11.728  19.914  0.00  0.00    +0.000 A 
BRANCH  27  30
ATOM     30  OH  TYR A   1      -0.585  15.042  18.541  0.00  0.00    +0.000 OA
ATOM     31  HH  TYR A   1      -1.497  15.096  18.212  0.00  0.00    +0.000 HD
ENDBRANCH  27  30
ENDBRANCH  23  24
ENDBRANCH  18  23
ENDBRANCH   3  18
TORSDOF 11
ENDMDL
MODEL 3
REMARK VINA RESULT:      -6.8      2.592      7.989
REMARK  Name = 
REMARK  15 active torsions:
REMARK  status: ('A' for Active; 'I' for Inactive)
REMARK    1  A    between atoms: C_1  and  C_2
REMARK    2  A    between atoms: C_2  and  C_3
REMARK    3  A    between atoms: C_2  and  C_4
REMARK    4  A    between atoms: C_4  and  S_5
REMARK    5  A    between atoms: C_4  and  C_6
REMARK    6  A    between atoms: N_8  and  C_9
REMARK    7  A    between atoms: C_9  and  C_10
REMARK    8  A    between atoms: C_9  and  C_11
REMARK    9  A    between atoms: C_9  and  C_12
REMARK   10  A    between atoms: N_14  and  CA_15
REMARK   11  A    between atoms: CA_15  and  CB_16
REMARK   12  A    between atoms: CA_15  and  C_24
REMARK   13  A    between atoms: CB_16  and  CG_17
REMARK   14  A    between atoms: CZ_20  and  OH_21
REMARK   15  A    between atoms: C_24  and  OXT_26
REMARK                            x       y       z     vdW  Elec       q    Type
REMARK                         _______ _______ _______ _____ _____    ______ ____
ROOT
ATOM      1  C   UNK A   0       3.818   4.409  17.764  0.00  0.00    +0.000 C 
ATOM      2  O   UNK A   0       3.563   3.673  16.804  0.00  0.00    +0.000 OA
ATOM      3  N   TYR A   1       5.063   4.963  17.935  0.00  0.00    +0.000 N 
ATOM      4  H   TYR A   1       5.282   5.492  18.776  0.00  0.00    +0.000 HD
ENDROOT
BRANCH   1   5
ATOM      5  C   UNK A   0       2.763   4.649  18.891  0.00  0.00    +0.000 C 
ATOM      6  C   UNK A   0       3.224   4.043  20.224  0.00  0.00    +0.000 C 
ATOM      7  C   UNK A   0       1.471   3.998  18.378  0.00  0.00    +0.000 C 
BRANCH   5  10
ATOM      8  C   UNK A   0       1.872   6.716  20.048  0.00  0.00    +0.000 C 
ATOM      9  O   UNK A   0       1.324   6.051  20.922  0.00  0.00    +0.000 OA
ATOM     10  N   UNK A   0       2.603   6.119  19.035  0.00  0.00    +0.000 N 
ATOM     11  H   UNK A   0       2.948   6.691  18.272  0.00  0.00    +0.000 HD
BRANCH   8  12
ATOM     12  C   UNK A   0       1.820   8.260  20.024  0.00  0.00    +0.000 C 
BRANCH  12  14
ATOM     13  C   UNK A   0      -0.199   9.920  20.149  0.00  0.00    +0.000 C 
ATOM     14  C   UNK A   0       0.638   8.844  20.857  0.00  0.00    +0.000 C 
ATOM     15  C   UNK A   0       1.074   9.401  22.222  0.00  0.00    +0.000 C 
ENDBRANCH  12  14
BRANCH  12  16
ATOM     16  S   UNK A   0       1.860   8.828  18.277  0.00  0.00    +0.000 S 
ATOM     17  H   UNK A   0       3.023   8.241  17.954  0.00  0.00    +0.000 HD
ENDBRANCH  12  16
ENDBRANCH   8  12
ENDBRANCH   5  10
ENDBRANCH   1   5
BRANCH   3  18
ATOM     18  CA  TYR A   1       6.192   4.777  17.015  0.00  0.00    +0.000 C 
BRANCH  18  19
ATOM     19  C   TYR A   1       7.497   4.925  17.811  0.00  0.00    +0.000 C 
ATOM     20  O   TYR A   1       8.401   4.091  17.783  0.00  0.00    +0.000 OA
BRANCH  19  21
ATOM     21  OXT TYR A   1       7.618   6.072  18.517  0.00  0.00    +0.000 OA
ATOM     22  HXT TYR A   1       8.352   6.100  19.159  0.00  0.00    +0.000 HD
ENDBRANCH  19  21
ENDBRANCH  18  19
BRANCH  18  23
ATOM     23  CB  TYR A   1       6.182   5.703  15.791  0.00  0.00    +0.000 C 
BRANCH  23  24
ATOM     24  CG  TYR A   1       6.349   5.038  14.446  0.00  0.00    +0.000 A 
ATOM     25  CD1 TYR A   1       7.466   5.318  13.645  0.00  0.00    +0.000 A 
ATOM     26  CE1 TYR A   1       7.719   4.562  12.501  0.00  0.00    +0.000 A 
ATOM     27  CZ  TYR A   1       6.837   3.552  12.139  0.00  0.00    +0.000 A 
ATOM     28  CE2 TYR A   1       5.678   3.324  12.868  0.00  0.00    +0.000 A 
ATOM     29  CD2 TYR A   1       5.435   4.063  14.022  0.00  0.00    +0.000 A 
BRANCH  27  30
ATOM     30  OH  TYR A   1       7.094   2.735  11.076  0.00  0.00    +0.000 OA
ATOM     31  HH  TYR A   1       7.232   3.292  10.292  0.00  0.00    +0.000 HD
ENDBRANCH  27  30
ENDBRANCH  23  24
ENDBRANCH  18  23
ENDBRANCH   3  18
TORSDOF 11
ENDMDL
MODEL 4
REMARK VINA RESULT:      -6.7      2.657      7.506
REMARK  Name = 
REMARK  15 active torsions:
REMARK  status: ('A' for Active; 'I' for Inactive)
REMARK    1  A    between atoms: C_1  and  C_2
REMARK    2  A    between atoms: C_2  and  C_3
REMARK    3  A    between atoms: C_2  and  C_4
REMARK    4  A    between atoms: C_4  and  S_5
REMARK    5  A    between atoms: C_4  and  C_6
REMARK    6  A    between atoms: N_8  and  C_9
REMARK    7  A    between atoms: C_9  and  C_10
REMARK    8  A    between atoms: C_9  and  C_11
REMARK    9  A    between atoms: C_9  and  C_12
REMARK   10  A    between atoms: N_14  and  CA_15
REMARK   11  A    between atoms: CA_15  and  CB_16
REMARK   12  A    between atoms: CA_15  and  C_24
REMARK   13  A    between atoms: CB_16  and  CG_17
REMARK   14  A    between atoms: CZ_20  and  OH_21
REMARK   15  A    between atoms: C_24  and  OXT_26
REMARK                            x       y       z     vdW  Elec       q    Type
REMARK                         _______ _______ _______ _____ _____    ______ ____
ROOT
ATOM      1  C   UNK A   0       3.994   4.274  19.114  0.00  0.00    +0.000 C 
ATOM      2  O   UNK A   0       4.204   3.204  18.531  0.00  0.00    +0.000 OA
ATOM      3  N   TYR A   1       4.919   5.290  19.109  0.00  0.00    +0.000 N 
ATOM      4  H   TYR A   1       4.769   6.128  19.665  0.00  0.00    +0.000 HD
ENDROOT
BRANCH   1   5
ATOM      5  C   UNK A   0       2.709   4.475  19.980  0.00  0.00    +0.000 C 
ATOM      6  C   UNK A   0       2.849   3.797  21.350  0.00  0.00    +0.000 C 
ATOM      7  C   UNK A   0       1.566   3.872  19.151  0.00  0.00    +0.000 C 
BRANCH   5  10
ATOM      8  C   UNK A   0       2.246   6.811  19.122  0.00  0.00    +0.000 C 
ATOM      9  O   UNK A   0       2.100   6.412  17.970  0.00  0.00    +0.000 OA
ATOM     10  N   UNK A   0       2.527   5.939  20.160  0.00  0.00    +0.000 N 
ATOM     11  H   UNK A   0       2.750   6.317  21.075  0.00  0.00    +0.000 HD
BRANCH   8  12
ATOM     12  C   UNK A   0       2.098   8.299  19.510  0.00  0.00    +0.000 C 
BRANCH  12  14
ATOM     13  C   UNK A   0      -0.041   9.660  20.157  0.00  0.00    +0.000 C 
ATOM     14  C   UNK A   0       0.951   8.551  20.537  0.00  0.00    +0.000 C 
ATOM     15  C   UNK A   0       1.463   8.835  21.959  0.00  0.00    +0.000 C 
ENDBRANCH  12  14
BRANCH  12  16
ATOM     16  S   UNK A   0       1.964   9.301  17.975  0.00  0.00    +0.000 S 
ATOM     17  H   UNK A   0       3.159   8.961  17.468  0.00  0.00    +0.000 HD
ENDBRANCH  12  16
ENDBRANCH   8  12
ENDBRANCH   5  10
ENDBRANCH   1   5
BRANCH   3  18
ATOM     18  CA  TYR A   1       6.210   5.237  18.412  0.00  0.00    +0.000 C 
BRANCH  18  19
ATOM     19  C   TYR A   1       7.304   5.710  19.381  0.00  0.00    +0.000 C 
ATOM     20  O   TYR A   1       7.481   5.211  20.492  0.00  0.00    +0.000 OA
BRANCH  19  21
ATOM     21  OXT TYR A   1       8.109   6.690  18.912  0.00  0.00    +0.000 OA
ATOM     22  HXT TYR A   1       8.487   6.541  18.025  0.00  0.00    +0.000 HD
ENDBRANCH  19  21
ENDBRANCH  18  19
BRANCH  18  23
ATOM     23  CB  TYR A   1       6.261   6.024  17.095  0.00  0.00    +0.000 C 
BRANCH  23  24
ATOM     24  CG  TYR A   1       6.321   5.204  15.828  0.00  0.00    +0.000 A 
ATOM     25  CD1 TYR A   1       5.241   4.392  15.452  0.00  0.00    +0.000 A 
ATOM     26  CE1 TYR A   1       5.215   3.793  14.193  0.00  0.00    +0.000 A 
ATOM     27  CZ  TYR A   1       6.284   3.978  13.326  0.00  0.00    +0.000 A 
ATOM     28  CE2 TYR A   1       7.402   4.702  13.717  0.00  0.00    +0.000 A 
ATOM     29  CD2 TYR A   1       7.420   5.317  14.965  0.00  0.00    +0.000 A 
BRANCH  27  30
ATOM     30  OH  TYR A   1       6.259   3.480  12.054  0.00  0.00    +0.000 OA
ATOM     31  HH  TYR A   1       6.471   4.203  11.441  0.00  0.00    +0.000 HD
ENDBRANCH  27  30
ENDBRANCH  23  24
ENDBRANCH  18  23
ENDBRANCH   3  18
TORSDOF 11
ENDMDL
MODEL 5
REMARK VINA RESULT:      -6.7      2.614      7.803
REMARK  Name = 
REMARK  15 active torsions:
REMARK  status: ('A' for Active; 'I' for Inactive)
REMARK    1  A    between atoms: C_1  and  C_2
REMARK    2  A    between atoms: C_2  and  C_3
REMARK    3  A    between atoms: C_2  and  C_4
REMARK    4  A    between atoms: C_4  and  S_5
REMARK    5  A    between atoms: C_4  and  C_6
REMARK    6  A    between atoms: N_8  and  C_9
REMARK    7  A    between atoms: C_9  and  C_10
REMARK    8  A    between atoms: C_9  and  C_11
REMARK    9  A    between atoms: C_9  and  C_12
REMARK   10  A    between atoms: N_14  and  CA_15
REMARK   11  A    between atoms: CA_15  and  CB_16
REMARK   12  A    between atoms: CA_15  and  C_24
REMARK   13  A    between atoms: CB_16  and  CG_17
REMARK   14  A    between atoms: CZ_20  and  OH_21
REMARK   15  A    between atoms: C_24  and  OXT_26
REMARK                            x       y       z     vdW  Elec       q    Type
REMARK                         _______ _______ _______ _____ _____    ______ ____
ROOT
ATOM      1  C   UNK A   0       4.789   4.326  18.729  0.00  0.00    +0.000 C 
ATOM      2  O   UNK A   0       5.513   3.476  19.261  0.00  0.00    +0.000 OA
ATOM      3  N   TYR A   1       5.278   5.202  17.790  0.00  0.00    +0.000 N 
ATOM      4  H   TYR A   1       4.693   5.951  17.428  0.00  0.00    +0.000 HD
ENDROOT
BRANCH   1   5
ATOM      5  C   UNK A   0       3.307   4.515  19.186  0.00  0.00    +0.000 C 
ATOM      6  C   UNK A   0       3.037   3.788  20.511  0.00  0.00    +0.000 C 
ATOM      7  C   UNK A   0       2.457   3.957  18.037  0.00  0.00    +0.000 C 
BRANCH   5  10
ATOM      8  C   UNK A   0       2.003   6.511  20.034  0.00  0.00    +0.000 C 
ATOM      9  O   UNK A   0       1.158   5.796  20.566  0.00  0.00    +0.000 OA
ATOM     10  N   UNK A   0       3.086   5.974  19.359  0.00  0.00    +0.000 N 
ATOM     11  H   UNK A   0       3.701   6.593  18.841  0.00  0.00    +0.000 HD
BRANCH   8  12
ATOM     12  C   UNK A   0       1.946   8.054  20.102  0.00  0.00    +0.000 C 
BRANCH  12  14
ATOM     13  C   UNK A   0      -0.090   9.677  20.365  0.00  0.00    +0.000 C 
ATOM     14  C   UNK A   0       0.784   8.583  20.998  0.00  0.00    +0.000 C 
ATOM     15  C   UNK A   0       1.257   9.087  22.371  0.00  0.00    +0.000 C 
ENDBRANCH  12  14
BRANCH  12  16
ATOM     16  S   UNK A   0       1.939   8.722  18.390  0.00  0.00    +0.000 S 
ATOM     17  H   UNK A   0       1.192   7.747  17.850  0.00  0.00    +0.000 HD
ENDBRANCH  12  16
ENDBRANCH   8  12
ENDBRANCH   5  10
ENDBRANCH   1   5
BRANCH   3  18
ATOM     18  CA  TYR A   1       6.663   5.215  17.304  0.00  0.00    +0.000 C 
BRANCH  18  19
ATOM     19  C   TYR A   1       7.552   5.843  18.388  0.00  0.00    +0.000 C 
ATOM     20  O   TYR A   1       7.742   7.055  18.485  0.00  0.00    +0.000 OA
BRANCH  19  21
ATOM     21  OXT TYR A   1       8.082   4.974  19.279  0.00  0.00    +0.000 OA
ATOM     22  HXT TYR A   1       9.040   4.810  19.195  0.00  0.00    +0.000 HD
ENDBRANCH  19  21
ENDBRANCH  18  19
BRANCH  18  23
ATOM     23  CB  TYR A   1       6.863   5.913  15.953  0.00  0.00    +0.000 C 
BRANCH  23  24
ATOM     24  CG  TYR A   1       6.530   5.102  14.724  0.00  0.00    +0.000 A 
ATOM     25  CD1 TYR A   1       7.483   4.917  13.711  0.00  0.00    +0.000 A 
ATOM     26  CE1 TYR A   1       7.245   4.011  12.677  0.00  0.00    +0.000 A 
ATOM     27  CZ  TYR A   1       6.041   3.320  12.637  0.00  0.00    +0.000 A 
ATOM     28  CE2 TYR A   1       5.050   3.561  13.578  0.00  0.00    +0.000 A 
ATOM     29  CD2 TYR A   1       5.294   4.448  14.623  0.00  0.00    +0.000 A 
BRANCH  27  30
ATOM     30  OH  TYR A   1       5.805   2.364  11.691  0.00  0.00    +0.000 OA
ATOM     31  HH  TYR A   1       6.279   2.615  10.882  0.00  0.00    +0.000 HD
ENDBRANCH  27  30
ENDBRANCH  23  24
ENDBRANCH  18  23
ENDBRANCH   3  18
TORSDOF 11
ENDMDL
MODEL 6
REMARK VINA RESULT:      -6.7      2.963      5.450
REMARK  Name = 
REMARK  15 active torsions:
REMARK  status: ('A' for Active; 'I' for Inactive)
REMARK    1  A    between atoms: C_1  and  C_2
REMARK    2  A    between atoms: C_2  and  C_3
REMARK    3  A    between atoms: C_2  and  C_4
REMARK    4  A    between atoms: C_4  and  S_5
REMARK    5  A    between atoms: C_4  and  C_6
REMARK    6  A    between atoms: N_8  and  C_9
REMARK    7  A    between atoms: C_9  and  C_10
REMARK    8  A    between atoms: C_9  and  C_11
REMARK    9  A    between atoms: C_9  and  C_12
REMARK   10  A    between atoms: N_14  and  CA_15
REMARK   11  A    between atoms: CA_15  and  CB_16
REMARK   12  A    between atoms: CA_15  and  C_24
REMARK   13  A    between atoms: CB_16  and  CG_17
REMARK   14  A    between atoms: CZ_20  and  OH_21
REMARK   15  A    between atoms: C_24  and  OXT_26
REMARK                            x       y       z     vdW  Elec       q    Type
REMARK                         _______ _______ _______ _____ _____    ______ ____
ROOT
ATOM      1  C   UNK A   0       2.358   7.265  19.103  0.00  0.00    +0.000 C 
ATOM      2  O   UNK A   0       2.756   8.079  18.261  0.00  0.00    +0.000 OA
ATOM      3  N   TYR A   1       1.658   7.664  20.216  0.00  0.00    +0.000 N 
ATOM      4  H   TYR A   1       1.416   6.994  20.942  0.00  0.00    +0.000 HD
ENDROOT
BRANCH   1   5
ATOM      5  C   UNK A   0       2.734   5.752  18.993  0.00  0.00    +0.000 C 
ATOM      6  C   UNK A   0       1.885   5.043  17.929  0.00  0.00    +0.000 C 
ATOM      7  C   UNK A   0       2.499   5.177  20.397  0.00  0.00    +0.000 C 
BRANCH   5  10
ATOM      8  C   UNK A   0       4.829   4.506  18.313  0.00  0.00    +0.000 C 
ATOM      9  O   UNK A   0       4.244   3.427  18.307  0.00  0.00    +0.000 OA
ATOM     10  N   UNK A   0       4.170   5.685  18.618  0.00  0.00    +0.000 N 
ATOM     11  H   UNK A   0       4.708   6.539  18.720  0.00  0.00    +0.000 HD
BRANCH   8  12
ATOM     12  C   UNK A   0       6.325   4.642  17.952  0.00  0.00    +0.000 C 
BRANCH  12  14
ATOM     13  C   UNK A   0       7.461   6.929  17.381  0.00  0.00    +0.000 C 
ATOM     14  C   UNK A   0       6.961   5.969  18.470  0.00  0.00    +0.000 C 
ATOM     15  C   UNK A   0       8.107   5.743  19.470  0.00  0.00    +0.000 C 
ENDBRANCH  12  14
BRANCH  12  16
ATOM     16  S   UNK A   0       6.525   4.370  16.145  0.00  0.00    +0.000 S 
ATOM     17  H   UNK A   0       6.086   5.578  15.761  0.00  0.00    +0.000 HD
ENDBRANCH  12  16
ENDBRANCH   8  12
ENDBRANCH   5  10
ENDBRANCH   1   5
BRANCH   3  18
ATOM     18  CA  TYR A   1       1.289   9.053  20.514  0.00  0.00    +0.000 C 
BRANCH  18  19
ATOM     19  C   TYR A   1       0.810   9.126  21.971  0.00  0.00    +0.000 C 
ATOM     20  O   TYR A   1       1.523   9.514  22.896  0.00  0.00    +0.000 OA
BRANCH  19  21
ATOM     21  OXT TYR A   1      -0.482   8.782  22.174  0.00  0.00    +0.000 OA
ATOM     22  HXT TYR A   1      -0.664   8.275  22.989  0.00  0.00    +0.000 HD
ENDBRANCH  19  21
ENDBRANCH  18  19
BRANCH  18  23
ATOM     23  CB  TYR A   1       0.252   9.661  19.560  0.00  0.00    +0.000 C 
BRANCH  23  24
ATOM     24  CG  TYR A   1       0.478  11.096  19.150  0.00  0.00    +0.000 A 
ATOM     25  CD1 TYR A   1      -0.508  12.068  19.381  0.00  0.00    +0.000 A 
ATOM     26  CE1 TYR A   1      -0.224  13.419  19.185  0.00  0.00    +0.000 A 
ATOM     27  CZ  TYR A   1       1.032  13.794  18.725  0.00  0.00    +0.000 A 
ATOM     28  CE2 TYR A   1       1.987  12.841  18.404  0.00  0.00    +0.000 A 
ATOM     29  CD2 TYR A   1       1.713  11.493  18.619  0.00  0.00    +0.000 A 
BRANCH  27  30
ATOM     30  OH  TYR A   1       1.376  15.110  18.603  0.00  0.00    +0.000 OA
ATOM     31  HH  TYR A   1       1.842  15.224  17.758  0.00  0.00    +0.000 HD
ENDBRANCH  27  30
ENDBRANCH  23  24
ENDBRANCH  18  23
ENDBRANCH   3  18
TORSDOF 11
ENDMDL
MODEL 7
REMARK VINA RESULT:      -6.6      2.696      8.323
REMARK  Name = 
REMARK  15 active torsions:
REMARK  status: ('A' for Active; 'I' for Inactive)
REMARK    1  A    between atoms: C_1  and  C_2
REMARK    2  A    between atoms: C_2  and  C_3
REMARK    3  A    between atoms: C_2  and  C_4
REMARK    4  A    between atoms: C_4  and  S_5
REMARK    5  A    between atoms: C_4  and  C_6
REMARK    6  A    between atoms: N_8  and  C_9
REMARK    7  A    between atoms: C_9  and  C_10
REMARK    8  A    between atoms: C_9  and  C_11
REMARK    9  A    between atoms: C_9  and  C_12
REMARK   10  A    between atoms: N_14  and  CA_15
REMARK   11  A    between atoms: CA_15  and  CB_16
REMARK   12  A    between atoms: CA_15  and  C_24
REMARK   13  A    between atoms: CB_16  and  CG_17
REMARK   14  A    between atoms: CZ_20  and  OH_21
REMARK   15  A    between atoms: C_24  and  OXT_26
REMARK                            x       y       z     vdW  Elec       q    Type
REMARK                         _______ _______ _______ _____ _____    ______ ____
ROOT
ATOM      1  C   UNK A   0       4.414   5.640  17.430  0.00  0.00    +0.000 C 
ATOM      2  O   UNK A   0       4.760   6.728  16.956  0.00  0.00    +0.000 OA
ATOM      3  N   TYR A   1       4.938   4.456  16.973  0.00  0.00    +0.000 N 
ATOM      4  H   TYR A   1       4.578   3.566  17.311  0.00  0.00    +0.000 HD
ENDROOT
BRANCH   1   5
ATOM      5  C   UNK A   0       3.274   5.558  18.497  0.00  0.00    +0.000 C 
ATOM      6  C   UNK A   0       3.772   4.909  19.795  0.00  0.00    +0.000 C 
ATOM      7  C   UNK A   0       2.159   4.739  17.832  0.00  0.00    +0.000 C 
BRANCH   5  10
ATOM      8  C   UNK A   0       2.003   7.299  19.823  0.00  0.00    +0.000 C 
ATOM      9  O   UNK A   0       1.603   6.464  20.630  0.00  0.00    +0.000 OA
ATOM     10  N   UNK A   0       2.829   6.949  18.769  0.00  0.00    +0.000 N 
ATOM     11  H   UNK A   0       3.048   7.645  18.062  0.00  0.00    +0.000 HD
BRANCH   8  12
ATOM     12  C   UNK A   0       1.647   8.799  19.936  0.00  0.00    +0.000 C 
BRANCH  12  14
ATOM     13  C   UNK A   0      -0.483  10.221  20.471  0.00  0.00    +0.000 C 
ATOM     14  C   UNK A   0       0.444   9.071  20.890  0.00  0.00    +0.000 C 
ATOM     15  C   UNK A   0       0.869   9.308  22.349  0.00  0.00    +0.000 C 
ENDBRANCH  12  14
BRANCH  12  16
ATOM     16  S   UNK A   0       1.434   9.485  18.245  0.00  0.00    +0.000 S 
ATOM     17  H   UNK A   0       2.733   9.725  18.013  0.00  0.00    +0.000 HD
ENDBRANCH  12  16
ENDBRANCH   8  12
ENDBRANCH   5  10
ENDBRANCH   1   5
BRANCH   3  18
ATOM     18  CA  TYR A   1       5.958   4.346  15.923  0.00  0.00    +0.000 C 
BRANCH  18  19
ATOM     19  C   TYR A   1       7.261   4.970  16.445  0.00  0.00    +0.000 C 
ATOM     20  O   TYR A   1       8.013   4.397  17.233  0.00  0.00    +0.000 OA
BRANCH  19  21
ATOM     21  OXT TYR A   1       7.565   6.186  15.938  0.00  0.00    +0.000 OA
ATOM     22  HXT TYR A   1       8.516   6.380  15.838  0.00  0.00    +0.000 HD
ENDBRANCH  19  21
ENDBRANCH  18  19
BRANCH  18  23
ATOM     23  CB  TYR A   1       5.557   4.955  14.572  0.00  0.00    +0.000 C 
BRANCH  23  24
ATOM     24  CG  TYR A   1       5.814   4.104  13.352  0.00  0.00    +0.000 A 
ATOM     25  CD1 TYR A   1       7.117   3.942  12.857  0.00  0.00    +0.000 A 
ATOM     26  CE1 TYR A   1       7.378   3.006  11.857  0.00  0.00    +0.000 A 
ATOM     27  CZ  TYR A   1       6.333   2.259  11.329  0.00  0.00    +0.000 A 
ATOM     28  CE2 TYR A   1       5.026   2.473  11.741  0.00  0.00    +0.000 A 
ATOM     29  CD2 TYR A   1       4.765   3.392  12.754  0.00  0.00    +0.000 A 
BRANCH  27  30
ATOM     30  OH  TYR A   1       6.560   1.274  10.411  0.00  0.00    +0.000 OA
ATOM     31  HH  TYR A   1       5.705   0.997  10.045  0.00  0.00    +0.000 HD
ENDBRANCH  27  30
ENDBRANCH  23  24
ENDBRANCH  18  23
ENDBRANCH   3  18
TORSDOF 11
ENDMDL
MODEL 8
REMARK VINA RESULT:      -6.6      3.713      8.508
REMARK  Name = 
REMARK  15 active torsions:
REMARK  status: ('A' for Active; 'I' for Inactive)
REMARK    1  A    between atoms: C_1  and  C_2
REMARK    2  A    between atoms: C_2  and  C_3
REMARK    3  A    between atoms: C_2  and  C_4
REMARK    4  A    between atoms: C_4  and  S_5
REMARK    5  A    between atoms: C_4  and  C_6
REMARK    6  A    between atoms: N_8  and  C_9
REMARK    7  A    between atoms: C_9  and  C_10
REMARK    8  A    between atoms: C_9  and  C_11
REMARK    9  A    between atoms: C_9  and  C_12
REMARK   10  A    between atoms: N_14  and  CA_15
REMARK   11  A    between atoms: CA_15  and  CB_16
REMARK   12  A    between atoms: CA_15  and  C_24
REMARK   13  A    between atoms: CB_16  and  CG_17
REMARK   14  A    between atoms: CZ_20  and  OH_21
REMARK   15  A    between atoms: C_24  and  OXT_26
REMARK                            x       y       z     vdW  Elec       q    Type
REMARK                         _______ _______ _______ _____ _____    ______ ____
ROOT
ATOM      1  C   UNK A   0       1.668   8.087  20.038  0.00  0.00    +0.000 C 
ATOM      2  O   UNK A   0       1.872   8.513  18.895  0.00  0.00    +0.000 OA
ATOM      3  N   TYR A   1       1.935   6.783  20.379  0.00  0.00    +0.000 N 
ATOM      4  H   TYR A   1       1.678   6.426  21.296  0.00  0.00    +0.000 HD
ENDROOT
BRANCH   1   5
ATOM      5  C   UNK A   0       0.987   8.988  21.118  0.00  0.00    +0.000 C 
ATOM      6  C   UNK A   0       1.859   9.104  22.376  0.00  0.00    +0.000 C 
ATOM      7  C   UNK A   0      -0.362   8.316  21.410  0.00  0.00    +0.000 C 
BRANCH   5  10
ATOM      8  C   UNK A   0       0.259  11.411  21.189  0.00  0.00    +0.000 C 
ATOM      9  O   UNK A   0      -0.075  11.327  22.368  0.00  0.00    +0.000 OA
ATOM     10  N   UNK A   0       0.798  10.331  20.511  0.00  0.00    +0.000 N 
ATOM     11  H   UNK A   0       0.959  10.406  19.512  0.00  0.00    +0.000 HD
BRANCH   8  12
ATOM     12  C   UNK A   0       0.138  12.724  20.384  0.00  0.00    +0.000 C 
BRANCH  12  14
ATOM     13  C   UNK A   0      -2.350  13.394  20.835  0.00  0.00    +0.000 C 
ATOM     14  C   UNK A   0      -1.293  12.959  19.809  0.00  0.00    +0.000 C 
ATOM     15  C   UNK A   0      -1.844  11.747  19.041  0.00  0.00    +0.000 C 
ENDBRANCH  12  14
BRANCH  12  16
ATOM     16  S   UNK A   0       1.471  12.767  19.119  0.00  0.00    +0.000 S 
ATOM     17  H   UNK A   0       1.126  11.628  18.498  0.00  0.00    +0.000 HD
ENDBRANCH  12  16
ENDBRANCH   8  12
ENDBRANCH   5  10
ENDBRANCH   1   5
BRANCH   3  18
ATOM     18  CA  TYR A   1       2.501   5.783  19.466  0.00  0.00    +0.000 C 
BRANCH  18  19
ATOM     19  C   TYR A   1       1.647   4.509  19.552  0.00  0.00    +0.000 C 
ATOM     20  O   TYR A   1       1.074   4.150  20.581  0.00  0.00    +0.000 OA
BRANCH  19  21
ATOM     21  OXT TYR A   1       1.518   3.819  18.397  0.00  0.00    +0.000 OA
ATOM     22  HXT TYR A   1       1.442   2.850  18.486  0.00  0.00    +0.000 HD
ENDBRANCH  19  21
ENDBRANCH  18  19
BRANCH  18  23
ATOM     23  CB  TYR A   1       3.986   5.470  19.696  0.00  0.00    +0.000 C 
BRANCH  23  24
ATOM     24  CG  TYR A   1       4.853   5.392  18.463  0.00  0.00    +0.000 A 
ATOM     25  CD1 TYR A   1       4.456   6.018  17.272  0.00  0.00    +0.000 A 
ATOM     26  CE1 TYR A   1       5.342   6.114  16.198  0.00  0.00    +0.000 A 
ATOM     27  CZ  TYR A   1       6.608   5.554  16.305  0.00  0.00    +0.000 A 
ATOM     28  CE2 TYR A   1       6.983   4.851  17.440  0.00  0.00    +0.000 A 
ATOM     29  CD2 TYR A   1       6.109   4.772  18.521  0.00  0.00    +0.000 A 
BRANCH  27  30
ATOM     30  OH  TYR A   1       7.533   5.700  15.310  0.00  0.00    +0.000 OA
ATOM     31  HH  TYR A   1       7.206   5.236  14.522  0.00  0.00    +0.000 HD
ENDBRANCH  27  30
ENDBRANCH  23  24
ENDBRANCH  18  23
ENDBRANCH   3  18
TORSDOF 11
ENDMDL
MODEL 9
REMARK VINA RESULT:      -6.6      2.784      4.682
REMARK  Name = 
REMARK  15 active torsions:
REMARK  status: ('A' for Active; 'I' for Inactive)
REMARK    1  A    between atoms: C_1  and  C_2
REMARK    2  A    between atoms: C_2  and  C_3
REMARK    3  A    between atoms: C_2  and  C_4
REMARK    4  A    between atoms: C_4  and  S_5
REMARK    5  A    between atoms: C_4  and  C_6
REMARK    6  A    between atoms: N_8  and  C_9
REMARK    7  A    between atoms: C_9  and  C_10
REMARK    8  A    between atoms: C_9  and  C_11
REMARK    9  A    between atoms: C_9  and  C_12
REMARK   10  A    between atoms: N_14  and  CA_15
REMARK   11  A    between atoms: CA_15  and  CB_16
REMARK   12  A    between atoms: CA_15  and  C_24
REMARK   13  A    between atoms: CB_16  and  CG_17
REMARK   14  A    between atoms: CZ_20  and  OH_21
REMARK   15  A    between atoms: C_24  and  OXT_26
REMARK                            x       y       z     vdW  Elec       q    Type
REMARK                         _______ _______ _______ _____ _____    ______ ____
ROOT
ATOM      1  C   UNK A   0       2.275   4.527  18.985  0.00  0.00    +0.000 C 
ATOM      2  O   UNK A   0       1.272   4.502  18.262  0.00  0.00    +0.000 OA
ATOM      3  N   TYR A   1       2.697   5.684  19.592  0.00  0.00    +0.000 N 
ATOM      4  H   TYR A   1       3.572   5.707  20.110  0.00  0.00    +0.000 HD
ENDROOT
BRANCH   1   5
ATOM      5  C   UNK A   0       3.176   3.260  19.146  0.00  0.00    +0.000 C 
ATOM      6  C   UNK A   0       2.749   2.146  18.180  0.00  0.00    +0.000 C 
ATOM      7  C   UNK A   0       3.021   2.841  20.615  0.00  0.00    +0.000 C 
BRANCH   5  10
ATOM      8  C   UNK A   0       4.956   4.289  17.671  0.00  0.00    +0.000 C 
ATOM      9  O   UNK A   0       4.143   4.557  16.792  0.00  0.00    +0.000 OA
ATOM     10  N   UNK A   0       4.572   3.675  18.851  0.00  0.00    +0.000 N 
ATOM     11  H   UNK A   0       5.286   3.371  19.505  0.00  0.00    +0.000 HD
BRANCH   8  12
ATOM     12  C   UNK A   0       6.457   4.640  17.550  0.00  0.00    +0.000 C 
BRANCH  12  14
ATOM     13  C   UNK A   0       7.371   7.091  17.466  0.00  0.00    +0.000 C 
ATOM     14  C   UNK A   0       6.845   5.935  18.329  0.00  0.00    +0.000 C 
ATOM     15  C   UNK A   0       7.859   5.681  19.457  0.00  0.00    +0.000 C 
ENDBRANCH  12  14
BRANCH  12  16
ATOM     16  S   UNK A   0       6.915   4.670  15.771  0.00  0.00    +0.000 S 
ATOM     17  H   UNK A   0       6.671   5.974  15.573  0.00  0.00    +0.000 HD
ENDBRANCH  12  16
ENDBRANCH   8  12
ENDBRANCH   5  10
ENDBRANCH   1   5
BRANCH   3  18
ATOM     18  CA  TYR A   1       2.014   6.979  19.482  0.00  0.00    +0.000 C 
BRANCH  18  19
ATOM     19  C   TYR A   1       2.447   7.646  18.168  0.00  0.00    +0.000 C 
ATOM     20  O   TYR A   1       1.716   8.394  17.519  0.00  0.00    +0.000 OA
BRANCH  19  21
ATOM     21  OXT TYR A   1       3.721   7.401  17.786  0.00  0.00    +0.000 OA
ATOM     22  HXT TYR A   1       3.916   7.542  16.841  0.00  0.00    +0.000 HD
ENDBRANCH  19  21
ENDBRANCH  18  19
BRANCH  18  23
ATOM     23  CB  TYR A   1       2.226   7.920  20.676  0.00  0.00    +0.000 C 
BRANCH  23  24
ATOM     24  CG  TYR A   1       1.064   8.814  21.039  0.00  0.00    +0.000 A 
ATOM     25  CD1 TYR A   1       0.428   8.686  22.283  0.00  0.00    +0.000 A 
ATOM     26  CE1 TYR A   1      -0.509   9.634  22.695  0.00  0.00    +0.000 A 
ATOM     27  CZ  TYR A   1      -0.834  10.686  21.849  0.00  0.00    +0.000 A 
ATOM     28  CE2 TYR A   1      -0.285  10.775  20.578  0.00  0.00    +0.000 A 
ATOM     29  CD2 TYR A   1       0.666   9.842  20.174  0.00  0.00    +0.000 A 
BRANCH  27  30
ATOM     30  OH  TYR A   1      -1.682  11.679  22.249  0.00  0.00    +0.000 OA
ATOM     31  HH  TYR A   1      -1.804  11.605  23.210  0.00  0.00    +0.000 HD
ENDBRANCH  27  30
ENDBRANCH  23  24
ENDBRANCH  18  23
ENDBRANCH   3  18
TORSDOF 11
ENDMDL
