MODEL 1
REMARK VINA RESULT:      -6.5      0.000      0.000
REMARK  Name = 
REMARK  11 active torsions:
REMARK  status: ('A' for Active; 'I' for Inactive)
REMARK    1  A    between atoms: C_1  and  O_2
REMARK    2  A    between atoms: O_2  and  C_3
REMARK    3  A    between atoms: C_5  and  O_6
REMARK    4  A    between atoms: O_6  and  C_7
REMARK    5  A    between atoms: C_8  and  C_9
REMARK    6  A    between atoms: N_11  and  C_12
REMARK    7  A    between atoms: C_12  and  C_13
REMARK    8  A    between atoms: C_13  and  C_14
REMARK    9  A    between atoms: C_14  and  N_15
REMARK   10  A    between atoms: C_22  and  O_23
REMARK   11  A    between atoms: O_23  and  C_24
REMARK                            x       y       z     vdW  Elec       q    Type
REMARK                         _______ _______ _______ _____ _____    ______ ____
ROOT
ATOM      1  C   UNL     1       1.964   6.031  20.387  0.00  0.00    +0.000 C 
ATOM      2  O   UNL     1       1.092   5.232  20.727  0.00  0.00    +0.000 OA
ATOM      3  N   UNL     1       3.238   5.616  20.062  0.00  0.00    +0.000 N 
ATOM      4  H   UNL     1       3.879   6.310  19.692  0.00  0.00    +0.000 HD
ENDROOT
BRANCH   1   8
ATOM      5  C   UNL     1       0.920  10.227  20.390  0.00  0.00    +0.000 A 
ATOM      6  C   UNL     1       1.355   9.628  19.194  0.00  0.00    +0.000 A 
ATOM      7  C   UNL     1       1.713   8.271  19.130  0.00  0.00    +0.000 A 
ATOM      8  C   UNL     1       1.651   7.497  20.300  0.00  0.00    +0.000 A 
ATOM      9  C   UNL     1       1.275   8.120  21.505  0.00  0.00    +0.000 A 
ATOM     10  C   UNL     1       0.921   9.475  21.569  0.00  0.00    +0.000 A 
BRANCH   5  12
ATOM     11  C   UNL     1      -0.492  11.909  19.495  0.00  0.00    +0.000 C 
ATOM     12  O   UNL     1       0.526  11.537  20.422  0.00  0.00    +0.000 OA
ENDBRANCH   5  12
BRANCH   7  13
ATOM     13  O   UNL     1       2.096   7.661  17.961  0.00  0.00    +0.000 OA
ATOM     14  C   UNL     1       3.453   7.820  17.552  0.00  0.00    +0.000 C 
ENDBRANCH   7  13
BRANCH  10  15
ATOM     15  O   UNL     1       0.590   9.866  22.838  0.00  0.00    +0.000 OA
ATOM     16  C   UNL     1      -0.769  10.127  23.151  0.00  0.00    +0.000 C 
ENDBRANCH  10  15
ENDBRANCH   1   8
BRANCH   3  17
ATOM     17  C   UNL     1       3.597   4.212  19.996  0.00  0.00    +0.000 C 
BRANCH  17  18
ATOM     18  C   UNL     1       4.948   4.009  19.311  0.00  0.00    +0.000 C 
BRANCH  18  19
ATOM     19  C   UNL     1       5.752   5.315  19.233  0.00  0.00    +0.000 C 
BRANCH  19  20
ATOM     20  N   UNL     1       7.132   5.107  18.756  0.00  0.00    +0.000 NA
ATOM     21  C   UNL     1       7.951   6.342  18.727  0.00  0.00    +0.000 C 
ATOM     22  C   UNL     1       7.615   7.308  17.578  0.00  0.00    +0.000 C 
ATOM     23  O   UNL     1       7.672   6.655  16.304  0.00  0.00    +0.000 OA
ATOM     24  C   UNL     1       6.798   5.520  16.279  0.00  0.00    +0.000 C 
ATOM     25  C   UNL     1       7.154   4.522  17.395  0.00  0.00    +0.000 C 
ENDBRANCH  19  20
ENDBRANCH  18  19
ENDBRANCH  17  18
ENDBRANCH   3  17
TORSDOF 8
ENDMDL
MODEL 2
REMARK VINA RESULT:      -6.5      3.808      6.692
REMARK  Name = 
REMARK  11 active torsions:
REMARK  status: ('A' for Active; 'I' for Inactive)
REMARK    1  A    between atoms: C_1  and  O_2
REMARK    2  A    between atoms: O_2  and  C_3
REMARK    3  A    between atoms: C_5  and  O_6
REMARK    4  A    between atoms: O_6  and  C_7
REMARK    5  A    between atoms: C_8  and  C_9
REMARK    6  A    between atoms: N_11  and  C_12
REMARK    7  A    between atoms: C_12  and  C_13
REMARK    8  A    between atoms: C_13  and  C_14
REMARK    9  A    between atoms: C_14  and  N_15
REMARK   10  A    between atoms: C_22  and  O_23
REMARK   11  A    between atoms: O_23  and  C_24
REMARK                            x       y       z     vdW  Elec       q    Type
REMARK                         _______ _______ _______ _____ _____    ______ ____
ROOT
ATOM      1  C   UNL     1       6.954   6.274  18.128  0.00  0.00    +0.000 C 
ATOM      2  O   UNL     1       7.787   5.783  18.888  0.00  0.00    +0.000 OA
ATOM      3  N   UNL     1       7.149   7.505  17.539  0.00  0.00    +0.000 N 
ATOM      4  H   UNL     1       6.474   7.808  16.845  0.00  0.00    +0.000 HD
ENDROOT
BRANCH   1   8
ATOM      5  C   UNL     1       3.219   4.201  17.462  0.00  0.00    +0.000 A 
ATOM      6  C   UNL     1       4.329   3.892  16.656  0.00  0.00    +0.000 A 
ATOM      7  C   UNL     1       5.567   4.534  16.819  0.00  0.00    +0.000 A 
ATOM      8  C   UNL     1       5.692   5.526  17.806  0.00  0.00    +0.000 A 
ATOM      9  C   UNL     1       4.559   5.872  18.565  0.00  0.00    +0.000 A 
ATOM     10  C   UNL     1       3.322   5.233  18.398  0.00  0.00    +0.000 A 
BRANCH   5  12
ATOM     11  C   UNL     1       1.845   2.406  18.180  0.00  0.00    +0.000 C 
ATOM     12  O   UNL     1       2.034   3.528  17.321  0.00  0.00    +0.000 OA
ENDBRANCH   5  12
BRANCH   7  13
ATOM     13  O   UNL     1       6.673   4.212  16.071  0.00  0.00    +0.000 OA
ATOM     14  C   UNL     1       6.654   4.561  14.689  0.00  0.00    +0.000 C 
ENDBRANCH   7  13
BRANCH  10  15
ATOM     15  O   UNL     1       2.364   5.729  19.241  0.00  0.00    +0.000 OA
ATOM     16  C   UNL     1       2.294   7.129  19.463  0.00  0.00    +0.000 C 
ENDBRANCH  10  15
ENDBRANCH   1   8
BRANCH   3  17
ATOM     17  C   UNL     1       8.389   8.243  17.691  0.00  0.00    +0.000 C 
BRANCH  17  18
ATOM     18  C   UNL     1       8.138   9.668  18.185  0.00  0.00    +0.000 C 
BRANCH  18  19
ATOM     19  C   UNL     1       9.182  10.107  19.221  0.00  0.00    +0.000 C 
BRANCH  19  20
ATOM     20  N   UNL     1       9.301  11.573  19.326  0.00  0.00    +0.000 NA
ATOM     21  C   UNL     1       9.579  12.248  18.036  0.00  0.00    +0.000 C 
ATOM     22  C   UNL     1      11.021  12.089  17.525  0.00  0.00    +0.000 C 
ATOM     23  O   UNL     1      11.978  12.502  18.509  0.00  0.00    +0.000 OA
ATOM     24  C   UNL     1      11.793  11.777  19.730  0.00  0.00    +0.000 C 
ATOM     25  C   UNL     1      10.367  11.966  20.277  0.00  0.00    +0.000 C 
ENDBRANCH  19  20
ENDBRANCH  18  19
ENDBRANCH  17  18
ENDBRANCH   3  17
TORSDOF 8
ENDMDL
MODEL 3
REMARK VINA RESULT:      -6.4      3.765      6.680
REMARK  Name = 
REMARK  11 active torsions:
REMARK  status: ('A' for Active; 'I' for Inactive)
REMARK    1  A    between atoms: C_1  and  O_2
REMARK    2  A    between atoms: O_2  and  C_3
REMARK    3  A    between atoms: C_5  and  O_6
REMARK    4  A    between atoms: O_6  and  C_7
REMARK    5  A    between atoms: C_8  and  C_9
REMARK    6  A    between atoms: N_11  and  C_12
REMARK    7  A    between atoms: C_12  and  C_13
REMARK    8  A    between atoms: C_13  and  C_14
REMARK    9  A    between atoms: C_14  and  N_15
REMARK   10  A    between atoms: C_22  and  O_23
REMARK   11  A    between atoms: O_23  and  C_24
REMARK                            x       y       z     vdW  Elec       q    Type
REMARK                         _______ _______ _______ _____ _____    ______ ____
ROOT
ATOM      1  C   UNL     1       6.851   6.110  18.347  0.00  0.00    +0.000 C 
ATOM      2  O   UNL     1       7.723   5.697  19.110  0.00  0.00    +0.000 OA
ATOM      3  N   UNL     1       7.010   7.275  17.628  0.00  0.00    +0.000 N 
ATOM      4  H   UNL     1       6.300   7.506  16.941  0.00  0.00    +0.000 HD
ENDROOT
BRANCH   1   8
ATOM      5  C   UNL     1       3.167   3.857  18.114  0.00  0.00    +0.000 A 
ATOM      6  C   UNL     1       3.985   3.956  16.975  0.00  0.00    +0.000 A 
ATOM      7  C   UNL     1       5.190   4.677  16.985  0.00  0.00    +0.000 A 
ATOM      8  C   UNL     1       5.578   5.333  18.165  0.00  0.00    +0.000 A 
ATOM      9  C   UNL     1       4.722   5.280  19.281  0.00  0.00    +0.000 A 
ATOM     10  C   UNL     1       3.518   4.563  19.269  0.00  0.00    +0.000 A 
BRANCH   5  12
ATOM     11  C   UNL     1       2.098   1.833  18.736  0.00  0.00    +0.000 C 
ATOM     12  O   UNL     1       2.022   3.107  18.100  0.00  0.00    +0.000 OA
ENDBRANCH   5  12
BRANCH   7  13
ATOM     13  O   UNL     1       6.022   4.745  15.894  0.00  0.00    +0.000 OA
ATOM     14  C   UNL     1       5.496   4.316  14.640  0.00  0.00    +0.000 C 
ENDBRANCH   7  13
BRANCH  10  15
ATOM     15  O   UNL     1       2.849   4.651  20.460  0.00  0.00    +0.000 OA
ATOM     16  C   UNL     1       1.777   5.571  20.587  0.00  0.00    +0.000 C 
ENDBRANCH  10  15
ENDBRANCH   1   8
BRANCH   3  17
ATOM     17  C   UNL     1       8.253   8.024  17.643  0.00  0.00    +0.000 C 
BRANCH  17  18
ATOM     18  C   UNL     1       8.012   9.507  17.926  0.00  0.00    +0.000 C 
BRANCH  18  19
ATOM     19  C   UNL     1       9.060  10.084  18.889  0.00  0.00    +0.000 C 
BRANCH  19  20
ATOM     20  N   UNL     1       9.373  11.497  18.611  0.00  0.00    +0.000 NA
ATOM     21  C   UNL     1      10.688  11.706  17.960  0.00  0.00    +0.000 C 
ATOM     22  C   UNL     1      11.899  11.539  18.892  0.00  0.00    +0.000 C 
ATOM     23  O   UNL     1      11.792  12.373  20.053  0.00  0.00    +0.000 OA
ATOM     24  C   UNL     1      10.574  12.104  20.757  0.00  0.00    +0.000 C 
ATOM     25  C   UNL     1       9.350  12.313  19.848  0.00  0.00    +0.000 C 
ENDBRANCH  19  20
ENDBRANCH  18  19
ENDBRANCH  17  18
ENDBRANCH   3  17
TORSDOF 8
ENDMDL
MODEL 4
REMARK VINA RESULT:      -6.3      2.668      7.626
REMARK  Name = 
REMARK  11 active torsions:
REMARK  status: ('A' for Active; 'I' for Inactive)
REMARK    1  A    between atoms: C_1  and  O_2
REMARK    2  A    between atoms: O_2  and  C_3
REMARK    3  A    between atoms: C_5  and  O_6
REMARK    4  A    between atoms: O_6  and  C_7
REMARK    5  A    between atoms: C_8  and  C_9
REMARK    6  A    between atoms: N_11  and  C_12
REMARK    7  A    between atoms: C_12  and  C_13
REMARK    8  A    between atoms: C_13  and  C_14
REMARK    9  A    between atoms: C_14  and  N_15
REMARK   10  A    between atoms: C_22  and  O_23
REMARK   11  A    between atoms: O_23  and  C_24
REMARK                            x       y       z     vdW  Elec       q    Type
REMARK                         _______ _______ _______ _____ _____    ______ ____
ROOT
ATOM      1  C   UNL     1       2.360   7.344  18.703  0.00  0.00    +0.000 C 
ATOM      2  O   UNL     1       2.220   7.666  19.882  0.00  0.00    +0.000 OA
ATOM      3  N   UNL     1       2.249   8.264  17.684  0.00  0.00    +0.000 N 
ATOM      4  H   UNL     1       2.477   7.957  16.744  0.00  0.00    +0.000 HD
ENDROOT
BRANCH   1   8
ATOM      5  C   UNL     1       3.126   3.164  17.901  0.00  0.00    +0.000 A 
ATOM      6  C   UNL     1       3.913   4.141  17.265  0.00  0.00    +0.000 A 
ATOM      7  C   UNL     1       3.710   5.514  17.479  0.00  0.00    +0.000 A 
ATOM      8  C   UNL     1       2.679   5.921  18.342  0.00  0.00    +0.000 A 
ATOM      9  C   UNL     1       1.857   4.938  18.926  0.00  0.00    +0.000 A 
ATOM     10  C   UNL     1       2.058   3.568  18.707  0.00  0.00    +0.000 A 
BRANCH   5  12
ATOM     11  C   UNL     1       4.122   1.184  18.746  0.00  0.00    +0.000 C 
ATOM     12  O   UNL     1       3.372   1.830  17.719  0.00  0.00    +0.000 OA
ENDBRANCH   5  12
BRANCH   7  13
ATOM     13  O   UNL     1       4.498   6.479  16.902  0.00  0.00    +0.000 OA
ATOM     14  C   UNL     1       5.277   6.098  15.770  0.00  0.00    +0.000 C 
ENDBRANCH   7  13
BRANCH  10  15
ATOM     15  O   UNL     1       1.143   2.797  19.373  0.00  0.00    +0.000 OA
ATOM     16  C   UNL     1       1.190   2.734  20.790  0.00  0.00    +0.000 C 
ENDBRANCH  10  15
ENDBRANCH   1   8
BRANCH   3  17
ATOM     17  C   UNL     1       2.069   9.681  17.942  0.00  0.00    +0.000 C 
BRANCH  17  18
ATOM     18  C   UNL     1       0.589  10.047  18.062  0.00  0.00    +0.000 C 
BRANCH  18  19
ATOM     19  C   UNL     1       0.341  11.069  19.181  0.00  0.00    +0.000 C 
BRANCH  19  20
ATOM     20  N   UNL     1      -0.803  10.709  20.038  0.00  0.00    +0.000 NA
ATOM     21  C   UNL     1      -1.295  11.823  20.883  0.00  0.00    +0.000 C 
ATOM     22  C   UNL     1      -0.400  12.160  22.087  0.00  0.00    +0.000 C 
ATOM     23  O   UNL     1      -0.147  11.006  22.898  0.00  0.00    +0.000 OA
ATOM     24  C   UNL     1       0.434   9.956  22.117  0.00  0.00    +0.000 C 
ATOM     25  C   UNL     1      -0.476   9.576  20.936  0.00  0.00    +0.000 C 
ENDBRANCH  19  20
ENDBRANCH  18  19
ENDBRANCH  17  18
ENDBRANCH   3  17
TORSDOF 8
ENDMDL
MODEL 5
REMARK VINA RESULT:      -6.3      5.200      7.063
REMARK  Name = 
REMARK  11 active torsions:
REMARK  status: ('A' for Active; 'I' for Inactive)
REMARK    1  A    between atoms: C_1  and  O_2
REMARK    2  A    between atoms: O_2  and  C_3
REMARK    3  A    between atoms: C_5  and  O_6
REMARK    4  A    between atoms: O_6  and  C_7
REMARK    5  A    between atoms: C_8  and  C_9
REMARK    6  A    between atoms: N_11  and  C_12
REMARK    7  A    between atoms: C_12  and  C_13
REMARK    8  A    between atoms: C_13  and  C_14
REMARK    9  A    between atoms: C_14  and  N_15
REMARK   10  A    between atoms: C_22  and  O_23
REMARK   11  A    between atoms: O_23  and  C_24
REMARK                            x       y       z     vdW  Elec       q    Type
REMARK                         _______ _______ _______ _____ _____    ______ ____
ROOT
ATOM      1  C   UNL     1       6.999   6.033  18.091  0.00  0.00    +0.000 C 
ATOM      2  O   UNL     1       7.900   5.681  18.850  0.00  0.00    +0.000 OA
ATOM      3  N   UNL     1       7.062   7.221  17.396  0.00  0.00    +0.000 N 
ATOM      4  H   UNL     1       6.337   7.405  16.709  0.00  0.00    +0.000 HD
ENDROOT
BRANCH   1   8
ATOM      5  C   UNL     1       3.613   3.365  17.750  0.00  0.00    +0.000 A 
ATOM      6  C   UNL     1       4.039   4.082  16.618  0.00  0.00    +0.000 A 
ATOM      7  C   UNL     1       5.128   4.968  16.665  0.00  0.00    +0.000 A 
ATOM      8  C   UNL     1       5.799   5.153  17.886  0.00  0.00    +0.000 A 
ATOM      9  C   UNL     1       5.326   4.479  19.027  0.00  0.00    +0.000 A 
ATOM     10  C   UNL     1       4.236   3.599  18.979  0.00  0.00    +0.000 A 
BRANCH   5  12
ATOM     11  C   UNL     1       1.384   2.829  18.358  0.00  0.00    +0.000 C 
ATOM     12  O   UNL     1       2.582   2.468  17.672  0.00  0.00    +0.000 OA
ENDBRANCH   5  12
BRANCH   7  13
ATOM     13  O   UNL     1       5.585   5.640  15.559  0.00  0.00    +0.000 OA
ATOM     14  C   UNL     1       6.348   4.898  14.609  0.00  0.00    +0.000 C 
ENDBRANCH   7  13
BRANCH  10  15
ATOM     15  O   UNL     1       3.952   3.057  20.204  0.00  0.00    +0.000 OA
ATOM     16  C   UNL     1       4.573   1.839  20.583  0.00  0.00    +0.000 C 
ENDBRANCH  10  15
ENDBRANCH   1   8
BRANCH   3  17
ATOM     17  C   UNL     1       8.235   8.074  17.433  0.00  0.00    +0.000 C 
BRANCH  17  18
ATOM     18  C   UNL     1       7.905   9.462  17.980  0.00  0.00    +0.000 C 
BRANCH  18  19
ATOM     19  C   UNL     1       9.036  10.015  18.859  0.00  0.00    +0.000 C 
BRANCH  19  20
ATOM     20  N   UNL     1       9.329  11.433  18.585  0.00  0.00    +0.000 NA
ATOM     21  C   UNL     1      10.641  11.661  17.932  0.00  0.00    +0.000 C 
ATOM     22  C   UNL     1      11.856  11.509  18.863  0.00  0.00    +0.000 C 
ATOM     23  O   UNL     1      11.739  12.337  20.026  0.00  0.00    +0.000 OA
ATOM     24  C   UNL     1      10.525  12.050  20.731  0.00  0.00    +0.000 C 
ATOM     25  C   UNL     1       9.298  12.246  19.824  0.00  0.00    +0.000 C 
ENDBRANCH  19  20
ENDBRANCH  18  19
ENDBRANCH  17  18
ENDBRANCH   3  17
TORSDOF 8
ENDMDL
MODEL 6
REMARK VINA RESULT:      -6.3      3.756      6.561
REMARK  Name = 
REMARK  11 active torsions:
REMARK  status: ('A' for Active; 'I' for Inactive)
REMARK    1  A    between atoms: C_1  and  O_2
REMARK    2  A    between atoms: O_2  and  C_3
REMARK    3  A    between atoms: C_5  and  O_6
REMARK    4  A    between atoms: O_6  and  C_7
REMARK    5  A    between atoms: C_8  and  C_9
REMARK    6  A    between atoms: N_11  and  C_12
REMARK    7  A    between atoms: C_12  and  C_13
REMARK    8  A    between atoms: C_13  and  C_14
REMARK    9  A    between atoms: C_14  and  N_15
REMARK   10  A    between atoms: C_22  and  O_23
REMARK   11  A    between atoms: O_23  and  C_24
REMARK                            x       y       z     vdW  Elec       q    Type
REMARK                         _______ _______ _______ _____ _____    ______ ____
ROOT
ATOM      1  C   UNL     1       6.799   5.641  17.749  0.00  0.00    +0.000 C 
ATOM      2  O   UNL     1       7.778   4.932  17.523  0.00  0.00    +0.000 OA
ATOM      3  N   UNL     1       6.932   6.965  18.110  0.00  0.00    +0.000 N 
ATOM      4  H   UNL     1       6.086   7.521  18.182  0.00  0.00    +0.000 HD
ENDROOT
BRANCH   1   8
ATOM      5  C   UNL     1       2.754   4.117  17.644  0.00  0.00    +0.000 A 
ATOM      6  C   UNL     1       3.692   3.639  16.713  0.00  0.00    +0.000 A 
ATOM      7  C   UNL     1       5.019   4.098  16.691  0.00  0.00    +0.000 A 
ATOM      8  C   UNL     1       5.413   5.077  17.619  0.00  0.00    +0.000 A 
ATOM      9  C   UNL     1       4.450   5.595  18.506  0.00  0.00    +0.000 A 
ATOM     10  C   UNL     1       3.125   5.139  18.523  0.00  0.00    +0.000 A 
BRANCH   5  12
ATOM     11  C   UNL     1       1.257   2.527  18.569  0.00  0.00    +0.000 C 
ATOM     12  O   UNL     1       1.478   3.621  17.682  0.00  0.00    +0.000 OA
ENDBRANCH   5  12
BRANCH   7  13
ATOM     13  O   UNL     1       5.959   3.608  15.819  0.00  0.00    +0.000 OA
ATOM     14  C   UNL     1       5.907   4.071  14.471  0.00  0.00    +0.000 C 
ENDBRANCH   7  13
BRANCH  10  15
ATOM     15  O   UNL     1       2.367   5.781  19.465  0.00  0.00    +0.000 OA
ATOM     16  C   UNL     1       2.353   7.200  19.493  0.00  0.00    +0.000 C 
ENDBRANCH  10  15
ENDBRANCH   1   8
BRANCH   3  17
ATOM     17  C   UNL     1       8.222   7.629  18.138  0.00  0.00    +0.000 C 
BRANCH  17  18
ATOM     18  C   UNL     1       8.088   9.129  17.878  0.00  0.00    +0.000 C 
BRANCH  18  19
ATOM     19  C   UNL     1       8.955   9.956  18.838  0.00  0.00    +0.000 C 
BRANCH  19  20
ATOM     20  N   UNL     1       9.747  10.988  18.145  0.00  0.00    +0.000 NA
ATOM     21  C   UNL     1      11.057  11.269  18.780  0.00  0.00    +0.000 C 
ATOM     22  C   UNL     1      10.979  12.089  20.078  0.00  0.00    +0.000 C 
ATOM     23  O   UNL     1      10.257  13.312  19.888  0.00  0.00    +0.000 OA
ATOM     24  C   UNL     1       8.944  13.050  19.377  0.00  0.00    +0.000 C 
ATOM     25  C   UNL     1       9.010  12.270  18.053  0.00  0.00    +0.000 C 
ENDBRANCH  19  20
ENDBRANCH  18  19
ENDBRANCH  17  18
ENDBRANCH   3  17
TORSDOF 8
ENDMDL
MODEL 7
REMARK VINA RESULT:      -6.2      3.755      6.713
REMARK  Name = 
REMARK  11 active torsions:
REMARK  status: ('A' for Active; 'I' for Inactive)
REMARK    1  A    between atoms: C_1  and  O_2
REMARK    2  A    between atoms: O_2  and  C_3
REMARK    3  A    between atoms: C_5  and  O_6
REMARK    4  A    between atoms: O_6  and  C_7
REMARK    5  A    between atoms: C_8  and  C_9
REMARK    6  A    between atoms: N_11  and  C_12
REMARK    7  A    between atoms: C_12  and  C_13
REMARK    8  A    between atoms: C_13  and  C_14
REMARK    9  A    between atoms: C_14  and  N_15
REMARK   10  A    between atoms: C_22  and  O_23
REMARK   11  A    between atoms: O_23  and  C_24
REMARK                            x       y       z     vdW  Elec       q    Type
REMARK                         _______ _______ _______ _____ _____    ______ ____
ROOT
ATOM      1  C   UNL     1       6.211   5.991  17.147  0.00  0.00    +0.000 C 
ATOM      2  O   UNL     1       6.924   5.473  16.289  0.00  0.00    +0.000 OA
ATOM      3  N   UNL     1       6.633   7.081  17.877  0.00  0.00    +0.000 N 
ATOM      4  H   UNL     1       5.961   7.524  18.495  0.00  0.00    +0.000 HD
ENDROOT
BRANCH   1   8
ATOM      5  C   UNL     1       2.334   4.184  17.781  0.00  0.00    +0.000 A 
ATOM      6  C   UNL     1       2.465   5.581  17.876  0.00  0.00    +0.000 A 
ATOM      7  C   UNL     1       3.697   6.227  17.686  0.00  0.00    +0.000 A 
ATOM      8  C   UNL     1       4.835   5.450  17.411  0.00  0.00    +0.000 A 
ATOM      9  C   UNL     1       4.707   4.049  17.380  0.00  0.00    +0.000 A 
ATOM     10  C   UNL     1       3.477   3.405  17.574  0.00  0.00    +0.000 A 
BRANCH   5  12
ATOM     11  C   UNL     1       0.799   3.094  19.223  0.00  0.00    +0.000 C 
ATOM     12  O   UNL     1       1.115   3.576  17.919  0.00  0.00    +0.000 OA
ENDBRANCH   5  12
BRANCH   7  13
ATOM     13  O   UNL     1       3.832   7.593  17.730  0.00  0.00    +0.000 OA
ATOM     14  C   UNL     1       2.640   8.366  17.847  0.00  0.00    +0.000 C 
ENDBRANCH   7  13
BRANCH  10  15
ATOM     15  O   UNL     1       3.587   2.042  17.501  0.00  0.00    +0.000 OA
ATOM     16  C   UNL     1       3.852   1.304  18.683  0.00  0.00    +0.000 C 
ENDBRANCH  10  15
ENDBRANCH   1   8
BRANCH   3  17
ATOM     17  C   UNL     1       7.892   7.749  17.606  0.00  0.00    +0.000 C 
BRANCH  17  18
ATOM     18  C   UNL     1       7.768   9.265  17.751  0.00  0.00    +0.000 C 
BRANCH  18  19
ATOM     19  C   UNL     1       8.856   9.843  18.668  0.00  0.00    +0.000 C 
BRANCH  19  20
ATOM     20  N   UNL     1       9.651  10.899  18.014  0.00  0.00    +0.000 NA
ATOM     21  C   UNL     1      10.969  11.138  18.648  0.00  0.00    +0.000 C 
ATOM     22  C   UNL     1      10.911  11.899  19.983  0.00  0.00    +0.000 C 
ATOM     23  O   UNL     1      10.199  13.136  19.856  0.00  0.00    +0.000 OA
ATOM     24  C   UNL     1       8.879  12.909  19.348  0.00  0.00    +0.000 C 
ATOM     25  C   UNL     1       8.924  12.190  17.988  0.00  0.00    +0.000 C 
ENDBRANCH  19  20
ENDBRANCH  18  19
ENDBRANCH  17  18
ENDBRANCH   3  17
TORSDOF 8
ENDMDL
MODEL 8
REMARK VINA RESULT:      -6.2      3.790      6.606
REMARK  Name = 
REMARK  11 active torsions:
REMARK  status: ('A' for Active; 'I' for Inactive)
REMARK    1  A    between atoms: C_1  and  O_2
REMARK    2  A    between atoms: O_2  and  C_3
REMARK    3  A    between atoms: C_5  and  O_6
REMARK    4  A    between atoms: O_6  and  C_7
REMARK    5  A    between atoms: C_8  and  C_9
REMARK    6  A    between atoms: N_11  and  C_12
REMARK    7  A    between atoms: C_12  and  C_13
REMARK    8  A    between atoms: C_13  and  C_14
REMARK    9  A    between atoms: C_14  and  N_15
REMARK   10  A    between atoms: C_22  and  O_23
REMARK   11  A    between atoms: O_23  and  C_24
REMARK                            x       y       z     vdW  Elec       q    Type
REMARK                         _______ _______ _______ _____ _____    ______ ____
ROOT
ATOM      1  C   UNL     1       6.759   6.619  16.969  0.00  0.00    +0.000 C 
ATOM      2  O   UNL     1       7.454   6.314  16.002  0.00  0.00    +0.000 OA
ATOM      3  N   UNL     1       7.165   7.568  17.882  0.00  0.00    +0.000 N 
ATOM      4  H   UNL     1       6.504   7.848  18.598  0.00  0.00    +0.000 HD
ENDROOT
BRANCH   1   8
ATOM      5  C   UNL     1       2.844   4.954  17.747  0.00  0.00    +0.000 A 
ATOM      6  C   UNL     1       3.821   4.153  17.129  0.00  0.00    +0.000 A 
ATOM      7  C   UNL     1       5.108   4.637  16.844  0.00  0.00    +0.000 A 
ATOM      8  C   UNL     1       5.421   5.966  17.173  0.00  0.00    +0.000 A 
ATOM      9  C   UNL     1       4.418   6.779  17.734  0.00  0.00    +0.000 A 
ATOM     10  C   UNL     1       3.132   6.296  18.013  0.00  0.00    +0.000 A 
BRANCH   5  12
ATOM     11  C   UNL     1       1.538   3.036  18.235  0.00  0.00    +0.000 C 
ATOM     12  O   UNL     1       1.611   4.450  18.062  0.00  0.00    +0.000 OA
ENDBRANCH   5  12
BRANCH   7  13
ATOM     13  O   UNL     1       6.087   3.854  16.283  0.00  0.00    +0.000 OA
ATOM     14  C   UNL     1       6.027   3.639  14.875  0.00  0.00    +0.000 C 
ENDBRANCH   7  13
BRANCH  10  15
ATOM     15  O   UNL     1       2.323   7.258  18.556  0.00  0.00    +0.000 OA
ATOM     16  C   UNL     1       2.170   8.497  17.880  0.00  0.00    +0.000 C 
ENDBRANCH  10  15
ENDBRANCH   1   8
BRANCH   3  17
ATOM     17  C   UNL     1       8.381   8.339  17.699  0.00  0.00    +0.000 C 
BRANCH  17  18
ATOM     18  C   UNL     1       8.207   9.783  18.172  0.00  0.00    +0.000 C 
BRANCH  18  19
ATOM     19  C   UNL     1       9.254  10.169  19.227  0.00  0.00    +0.000 C 
BRANCH  19  20
ATOM     20  N   UNL     1       9.366  11.628  19.411  0.00  0.00    +0.000 NA
ATOM     21  C   UNL     1       9.615  12.375  18.155  0.00  0.00    +0.000 C 
ATOM     22  C   UNL     1      11.047  12.254  17.609  0.00  0.00    +0.000 C 
ATOM     23  O   UNL     1      12.022  12.618  18.594  0.00  0.00    +0.000 OA
ATOM     24  C   UNL     1      11.865  11.825  19.777  0.00  0.00    +0.000 C 
ATOM     25  C   UNL     1      10.449  11.975  20.361  0.00  0.00    +0.000 C 
ENDBRANCH  19  20
ENDBRANCH  18  19
ENDBRANCH  17  18
ENDBRANCH   3  17
TORSDOF 8
ENDMDL
MODEL 9
REMARK VINA RESULT:      -6.2      3.772      6.591
REMARK  Name = 
REMARK  11 active torsions:
REMARK  status: ('A' for Active; 'I' for Inactive)
REMARK    1  A    between atoms: C_1  and  O_2
REMARK    2  A    between atoms: O_2  and  C_3
REMARK    3  A    between atoms: C_5  and  O_6
REMARK    4  A    between atoms: O_6  and  C_7
REMARK    5  A    between atoms: C_8  and  C_9
REMARK    6  A    between atoms: N_11  and  C_12
REMARK    7  A    between atoms: C_12  and  C_13
REMARK    8  A    between atoms: C_13  and  C_14
REMARK    9  A    between atoms: C_14  and  N_15
REMARK   10  A    between atoms: C_22  and  O_23
REMARK   11  A    between atoms: O_23  and  C_24
REMARK                            x       y       z     vdW  Elec       q    Type
REMARK                         _______ _______ _______ _____ _____    ______ ____
ROOT
ATOM      1  C   UNL     1       6.019   6.609  17.143  0.00  0.00    +0.000 C 
ATOM      2  O   UNL     1       6.471   6.241  16.060  0.00  0.00    +0.000 OA
ATOM      3  N   UNL     1       6.622   7.607  17.878  0.00  0.00    +0.000 N 
ATOM      4  H   UNL     1       6.144   7.935  18.710  0.00  0.00    +0.000 HD
ENDROOT
BRANCH   1   8
ATOM      5  C   UNL     1       2.537   4.545  18.664  0.00  0.00    +0.000 A 
ATOM      6  C   UNL     1       2.438   5.909  18.335  0.00  0.00    +0.000 A 
ATOM      7  C   UNL     1       3.533   6.636  17.842  0.00  0.00    +0.000 A 
ATOM      8  C   UNL     1       4.768   5.983  17.691  0.00  0.00    +0.000 A 
ATOM      9  C   UNL     1       4.873   4.635  18.081  0.00  0.00    +0.000 A 
ATOM     10  C   UNL     1       3.780   3.912  18.577  0.00  0.00    +0.000 A 
BRANCH   5  12
ATOM     11  C   UNL     1       1.060   4.049  20.453  0.00  0.00    +0.000 C 
ATOM     12  O   UNL     1       1.445   3.841  19.095  0.00  0.00    +0.000 OA
ENDBRANCH   5  12
BRANCH   7  13
ATOM     13  O   UNL     1       3.442   7.956  17.474  0.00  0.00    +0.000 OA
ATOM     14  C   UNL     1       2.251   8.655  17.830  0.00  0.00    +0.000 C 
ENDBRANCH   7  13
BRANCH  10  15
ATOM     15  O   UNL     1       4.111   2.621  18.892  0.00  0.00    +0.000 OA
ATOM     16  C   UNL     1       3.582   1.560  18.113  0.00  0.00    +0.000 C 
ENDBRANCH  10  15
ENDBRANCH   1   8
BRANCH   3  17
ATOM     17  C   UNL     1       7.759   8.354  17.372  0.00  0.00    +0.000 C 
BRANCH  17  18
ATOM     18  C   UNL     1       8.472   9.118  18.489  0.00  0.00    +0.000 C 
BRANCH  18  19
ATOM     19  C   UNL     1       9.123  10.409  17.973  0.00  0.00    +0.000 C 
BRANCH  19  20
ATOM     20  N   UNL     1       9.108  11.493  18.972  0.00  0.00    +0.000 NA
ATOM     21  C   UNL     1       9.234  12.850  18.389  0.00  0.00    +0.000 C 
ATOM     22  C   UNL     1      10.647  13.212  17.903  0.00  0.00    +0.000 C 
ATOM     23  O   UNL     1      11.624  13.032  18.936  0.00  0.00    +0.000 OA
ATOM     24  C   UNL     1      11.590  11.690  19.435  0.00  0.00    +0.000 C 
ATOM     25  C   UNL     1      10.193  11.331  19.969  0.00  0.00    +0.000 C 
ENDBRANCH  19  20
ENDBRANCH  18  19
ENDBRANCH  17  18
ENDBRANCH   3  17
TORSDOF 8
ENDMDL
