MODEL 1
REMARK VINA RESULT:      -8.3      0.000      0.000
REMARK  Name = 
REMARK  5 active torsions:
REMARK  status: ('A' for Active; 'I' for Inactive)
REMARK    1  A    between atoms: C_1  and  C_2
REMARK    2  A    between atoms: C_7  and  N_8
REMARK    3  A    between atoms: C_9  and  C_11
REMARK    4  A    between atoms: C_11  and  N_12
REMARK    5  A    between atoms: N_20  and  C_21
REMARK                            x       y       z     vdW  Elec       q    Type
REMARK                         _______ _______ _______ _____ _____    ______ ____
ROOT
ATOM      1  N   UNL     1       1.299   9.254  19.299  0.00  0.00    +0.000 N 
ATOM      2  C   UNL     1       1.300  10.460  18.573  0.00  0.00    +0.000 C 
ATOM      3  O   UNL     1       1.671  10.588  17.415  0.00  0.00    +0.000 OA
ATOM      4  C   UNL     1       0.753  11.562  19.528  0.00  0.00    +0.000 C 
ATOM      5  S   UNL     1       2.208  12.583  19.976  0.00  0.00    +0.000 S 
ATOM      6  C   UNL     1       1.181  14.025  20.147  0.00  0.00    +0.000 C 
ATOM      7  C   UNL     1       0.024  13.822  19.194  0.00  0.00    +0.000 C 
ATOM      8  O   UNL     1      -0.583  14.796  18.763  0.00  0.00    +0.000 OA
ATOM      9  N   UNL     1      -0.282  12.457  19.005  0.00  0.00    +0.000 N 
ATOM     10  C   UNL     1       0.342  10.772  20.743  0.00  0.00    +0.000 A 
ATOM     11  C   UNL     1      -0.335  11.224  21.874  0.00  0.00    +0.000 A 
ATOM     12  C   UNL     1      -0.652  10.300  22.855  0.00  0.00    +0.000 A 
ATOM     13  C   UNL     1      -0.318   8.946  22.688  0.00  0.00    +0.000 A 
ATOM     14  C   UNL     1       0.348   8.495  21.531  0.00  0.00    +0.000 A 
ATOM     15  C   UNL     1       0.688   9.425  20.564  0.00  0.00    +0.000 A 
ENDROOT
BRANCH   9  16
ATOM     16  C   UNL     1      -1.587  11.993  18.560  0.00  0.00    +0.000 A 
ATOM     17  C   UNL     1      -1.776  11.445  17.280  0.00  0.00    +0.000 A 
ATOM     18  C   UNL     1      -3.051  11.166  16.762  0.00  0.00    +0.000 A 
ATOM     19  C   UNL     1      -4.173  11.419  17.525  0.00  0.00    +0.000 A 
ATOM     20  F   UNL     1      -5.393  11.211  17.015  0.00  0.00    +0.000 F 
ATOM     21  C   UNL     1      -4.037  11.894  18.816  0.00  0.00    +0.000 A 
ATOM     22  C   UNL     1      -2.755  12.155  19.331  0.00  0.00    +0.000 A 
ENDBRANCH   9  16
BRANCH   1  23
ATOM     23  C   UNL     1       1.459   8.001  18.599  0.00  0.00    +0.000 C 
BRANCH  23  25
ATOM     24  N   UNL     1       3.534   7.061  17.496  0.00  0.00    +0.000 N 
ATOM     25  C   UNL     1       2.773   7.213  18.652  0.00  0.00    +0.000 C 
ATOM     26  O   UNL     1       3.019   6.655  19.728  0.00  0.00    +0.000 OA
ATOM     27  H   UNL     1       3.085   7.267  16.609  0.00  0.00    +0.000 HD
BRANCH  24  34
ATOM     28  C   UNL     1       3.821   4.050  17.217  0.00  0.00    +0.000 C 
ATOM     29  C   UNL     1       4.964   5.021  17.337  0.00  0.00    +0.000 A 
ATOM     30  C   UNL     1       6.268   4.457  17.336  0.00  0.00    +0.000 A 
ATOM     31  C   UNL     1       7.408   5.250  17.448  0.00  0.00    +0.000 A 
ATOM     32  C   UNL     1       7.266   6.621  17.530  0.00  0.00    +0.000 A 
ATOM     33  C   UNL     1       5.992   7.194  17.520  0.00  0.00    +0.000 A 
ATOM     34  C   UNL     1       4.817   6.421  17.454  0.00  0.00    +0.000 A 
ENDBRANCH  24  34
ENDBRANCH  23  25
ENDBRANCH   1  23
TORSDOF 4
ENDMDL
MODEL 2
REMARK VINA RESULT:      -8.2      2.877      4.581
REMARK  Name = 
REMARK  5 active torsions:
REMARK  status: ('A' for Active; 'I' for Inactive)
REMARK    1  A    between atoms: C_1  and  C_2
REMARK    2  A    between atoms: C_7  and  N_8
REMARK    3  A    between atoms: C_9  and  C_11
REMARK    4  A    between atoms: C_11  and  N_12
REMARK    5  A    between atoms: N_20  and  C_21
REMARK                            x       y       z     vdW  Elec       q    Type
REMARK                         _______ _______ _______ _____ _____    ______ ____
ROOT
ATOM      1  N   UNL     1       0.792   9.885  19.740  0.00  0.00    +0.000 N 
ATOM      2  C   UNL     1       1.014  10.572  20.949  0.00  0.00    +0.000 C 
ATOM      3  O   UNL     1       2.016  10.475  21.642  0.00  0.00    +0.000 OA
ATOM      4  C   UNL     1      -0.250  11.443  21.211  0.00  0.00    +0.000 C 
ATOM      5  S   UNL     1      -1.132  10.620  22.590  0.00  0.00    +0.000 S 
ATOM      6  C   UNL     1      -1.768  12.181  23.156  0.00  0.00    +0.000 C 
ATOM      7  C   UNL     1      -0.742  13.215  22.750  0.00  0.00    +0.000 C 
ATOM      8  O   UNL     1      -0.671  14.272  23.367  0.00  0.00    +0.000 OA
ATOM      9  N   UNL     1      -0.039  12.844  21.583  0.00  0.00    +0.000 N 
ATOM     10  C   UNL     1      -1.056  11.244  19.953  0.00  0.00    +0.000 A 
ATOM     11  C   UNL     1      -2.231  11.889  19.575  0.00  0.00    +0.000 A 
ATOM     12  C   UNL     1      -2.775  11.577  18.340  0.00  0.00    +0.000 A 
ATOM     13  C   UNL     1      -2.135  10.656  17.495  0.00  0.00    +0.000 A 
ATOM     14  C   UNL     1      -0.935  10.026  17.879  0.00  0.00    +0.000 A 
ATOM     15  C   UNL     1      -0.407  10.318  19.124  0.00  0.00    +0.000 A 
ENDROOT
BRANCH   9  16
ATOM     16  C   UNL     1       0.623  13.809  20.718  0.00  0.00    +0.000 A 
ATOM     17  C   UNL     1      -0.108  14.700  19.914  0.00  0.00    +0.000 A 
ATOM     18  C   UNL     1       0.500  15.505  18.938  0.00  0.00    +0.000 A 
ATOM     19  C   UNL     1       1.866  15.446  18.754  0.00  0.00    +0.000 A 
ATOM     20  F   UNL     1       2.446  16.166  17.785  0.00  0.00    +0.000 F 
ATOM     21  C   UNL     1       2.639  14.635  19.564  0.00  0.00    +0.000 A 
ATOM     22  C   UNL     1       2.021  13.845  20.550  0.00  0.00    +0.000 A 
ENDBRANCH   9  16
BRANCH   1  23
ATOM     23  C   UNL     1       1.898   9.238  19.075  0.00  0.00    +0.000 C 
BRANCH  23  25
ATOM     24  N   UNL     1       2.322   6.968  20.109  0.00  0.00    +0.000 N 
ATOM     25  C   UNL     1       1.996   7.712  18.978  0.00  0.00    +0.000 C 
ATOM     26  O   UNL     1       1.883   7.239  17.841  0.00  0.00    +0.000 OA
ATOM     27  H   UNL     1       2.717   7.467  20.901  0.00  0.00    +0.000 HD
BRANCH  24  34
ATOM     28  C   UNL     1       4.788   5.389  19.303  0.00  0.00    +0.000 C 
ATOM     29  C   UNL     1       3.489   4.788  19.765  0.00  0.00    +0.000 A 
ATOM     30  C   UNL     1       3.433   3.369  19.801  0.00  0.00    +0.000 A 
ATOM     31  C   UNL     1       2.284   2.692  20.206  0.00  0.00    +0.000 A 
ATOM     32  C   UNL     1       1.184   3.421  20.612  0.00  0.00    +0.000 A 
ATOM     33  C   UNL     1       1.226   4.817  20.596  0.00  0.00    +0.000 A 
ATOM     34  C   UNL     1       2.353   5.535  20.150  0.00  0.00    +0.000 A 
ENDBRANCH  24  34
ENDBRANCH  23  25
ENDBRANCH   1  23
TORSDOF 4
ENDMDL
MODEL 3
REMARK VINA RESULT:      -8.1      2.564      4.309
REMARK  Name = 
REMARK  5 active torsions:
REMARK  status: ('A' for Active; 'I' for Inactive)
REMARK    1  A    between atoms: C_1  and  C_2
REMARK    2  A    between atoms: C_7  and  N_8
REMARK    3  A    between atoms: C_9  and  C_11
REMARK    4  A    between atoms: C_11  and  N_12
REMARK    5  A    between atoms: N_20  and  C_21
REMARK                            x       y       z     vdW  Elec       q    Type
REMARK                         _______ _______ _______ _____ _____    ______ ____
ROOT
ATOM      1  N   UNL     1       0.744   9.821  19.724  0.00  0.00    +0.000 N 
ATOM      2  C   UNL     1       0.984  10.505  20.931  0.00  0.00    +0.000 C 
ATOM      3  O   UNL     1       1.991  10.395  21.617  0.00  0.00    +0.000 OA
ATOM      4  C   UNL     1      -0.265  11.393  21.203  0.00  0.00    +0.000 C 
ATOM      5  S   UNL     1      -1.148  10.582  22.589  0.00  0.00    +0.000 S 
ATOM      6  C   UNL     1      -1.759  12.151  23.159  0.00  0.00    +0.000 C 
ATOM      7  C   UNL     1      -0.721  13.172  22.745  0.00  0.00    +0.000 C 
ATOM      8  O   UNL     1      -0.632  14.228  23.362  0.00  0.00    +0.000 OA
ATOM      9  N   UNL     1      -0.033  12.791  21.573  0.00  0.00    +0.000 N 
ATOM     10  C   UNL     1      -1.083  11.205  19.951  0.00  0.00    +0.000 A 
ATOM     11  C   UNL     1      -2.253  11.866  19.582  0.00  0.00    +0.000 A 
ATOM     12  C   UNL     1      -2.810  11.561  18.352  0.00  0.00    +0.000 A 
ATOM     13  C   UNL     1      -2.189  10.631  17.501  0.00  0.00    +0.000 A 
ATOM     14  C   UNL     1      -0.995   9.985  17.876  0.00  0.00    +0.000 A 
ATOM     15  C   UNL     1      -0.453  10.270  19.117  0.00  0.00    +0.000 A 
ENDROOT
BRANCH   9  16
ATOM     16  C   UNL     1       0.636  13.747  20.703  0.00  0.00    +0.000 A 
ATOM     17  C   UNL     1      -0.089  14.675  19.936  0.00  0.00    +0.000 A 
ATOM     18  C   UNL     1       0.517  15.475  18.954  0.00  0.00    +0.000 A 
ATOM     19  C   UNL     1       1.874  15.373  18.726  0.00  0.00    +0.000 A 
ATOM     20  F   UNL     1       2.448  16.089  17.751  0.00  0.00    +0.000 F 
ATOM     21  C   UNL     1       2.643  14.523  19.500  0.00  0.00    +0.000 A 
ATOM     22  C   UNL     1       2.029  13.738  20.492  0.00  0.00    +0.000 A 
ENDBRANCH   9  16
BRANCH   1  23
ATOM     23  C   UNL     1       1.837   9.160  19.051  0.00  0.00    +0.000 C 
BRANCH  23  25
ATOM     24  N   UNL     1       2.320   6.892  18.037  0.00  0.00    +0.000 N 
ATOM     25  C   UNL     1       2.062   7.649  19.177  0.00  0.00    +0.000 C 
ATOM     26  O   UNL     1       1.885   7.174  20.305  0.00  0.00    +0.000 OA
ATOM     27  H   UNL     1       2.116   7.315  17.137  0.00  0.00    +0.000 HD
BRANCH  24  34
ATOM     28  C   UNL     1       5.184   5.884  18.075  0.00  0.00    +0.000 C 
ATOM     29  C   UNL     1       3.961   5.010  18.057  0.00  0.00    +0.000 A 
ATOM     30  C   UNL     1       4.191   3.608  18.038  0.00  0.00    +0.000 A 
ATOM     31  C   UNL     1       3.139   2.694  18.013  0.00  0.00    +0.000 A 
ATOM     32  C   UNL     1       1.842   3.164  18.040  0.00  0.00    +0.000 A 
ATOM     33  C   UNL     1       1.596   4.539  18.073  0.00  0.00    +0.000 A 
ATOM     34  C   UNL     1       2.632   5.492  18.052  0.00  0.00    +0.000 A 
ENDBRANCH  24  34
ENDBRANCH  23  25
ENDBRANCH   1  23
TORSDOF 4
ENDMDL
MODEL 4
REMARK VINA RESULT:      -8.1      2.523      4.216
REMARK  Name = 
REMARK  5 active torsions:
REMARK  status: ('A' for Active; 'I' for Inactive)
REMARK    1  A    between atoms: C_1  and  C_2
REMARK    2  A    between atoms: C_7  and  N_8
REMARK    3  A    between atoms: C_9  and  C_11
REMARK    4  A    between atoms: C_11  and  N_12
REMARK    5  A    between atoms: N_20  and  C_21
REMARK                            x       y       z     vdW  Elec       q    Type
REMARK                         _______ _______ _______ _____ _____    ______ ____
ROOT
ATOM      1  N   UNL     1       0.610  10.142  19.499  0.00  0.00    +0.000 N 
ATOM      2  C   UNL     1       0.902  10.894  20.652  0.00  0.00    +0.000 C 
ATOM      3  O   UNL     1       1.971  10.890  21.246  0.00  0.00    +0.000 OA
ATOM      4  C   UNL     1      -0.384  11.698  21.005  0.00  0.00    +0.000 C 
ATOM      5  S   UNL     1      -1.073  10.885  22.496  0.00  0.00    +0.000 S 
ATOM      6  C   UNL     1      -1.752  12.428  23.061  0.00  0.00    +0.000 C 
ATOM      7  C   UNL     1      -0.838  13.504  22.515  0.00  0.00    +0.000 C 
ATOM      8  O   UNL     1      -0.778  14.590  23.082  0.00  0.00    +0.000 OA
ATOM      9  N   UNL     1      -0.230  13.125  21.300  0.00  0.00    +0.000 N 
ATOM     10  C   UNL     1      -1.293  11.394  19.842  0.00  0.00    +0.000 A 
ATOM     11  C   UNL     1      -2.539  11.949  19.558  0.00  0.00    +0.000 A 
ATOM     12  C   UNL     1      -3.178  11.549  18.397  0.00  0.00    +0.000 A 
ATOM     13  C   UNL     1      -2.565  10.632  17.528  0.00  0.00    +0.000 A 
ATOM     14  C   UNL     1      -1.294  10.093  17.815  0.00  0.00    +0.000 A 
ATOM     15  C   UNL     1      -0.669  10.473  18.989  0.00  0.00    +0.000 A 
ENDROOT
BRANCH   9  16
ATOM     16  C   UNL     1       0.282  14.088  20.337  0.00  0.00    +0.000 A 
ATOM     17  C   UNL     1       1.661  14.297  20.167  0.00  0.00    +0.000 A 
ATOM     18  C   UNL     1       2.172  15.346  19.387  0.00  0.00    +0.000 A 
ATOM     19  C   UNL     1       1.308  16.207  18.742  0.00  0.00    +0.000 A 
ATOM     20  F   UNL     1       1.787  17.244  18.045  0.00  0.00    +0.000 F 
ATOM     21  C   UNL     1      -0.058  16.003  18.822  0.00  0.00    +0.000 A 
ATOM     22  C   UNL     1      -0.559  14.940  19.593  0.00  0.00    +0.000 A 
ENDBRANCH   9  16
BRANCH   1  23
ATOM     23  C   UNL     1       1.686   9.534  18.753  0.00  0.00    +0.000 C 
BRANCH  23  25
ATOM     24  N   UNL     1       2.285   7.267  17.802  0.00  0.00    +0.000 N 
ATOM     25  C   UNL     1       2.049   8.055  18.925  0.00  0.00    +0.000 C 
ATOM     26  O   UNL     1       1.997   7.622  20.082  0.00  0.00    +0.000 OA
ATOM     27  H   UNL     1       1.979   7.628  16.903  0.00  0.00    +0.000 HD
BRANCH  24  34
ATOM     28  C   UNL     1       5.210   6.493  17.534  0.00  0.00    +0.000 C 
ATOM     29  C   UNL     1       4.072   5.526  17.715  0.00  0.00    +0.000 A 
ATOM     30  C   UNL     1       4.418   4.148  17.741  0.00  0.00    +0.000 A 
ATOM     31  C   UNL     1       3.455   3.154  17.897  0.00  0.00    +0.000 A 
ATOM     32  C   UNL     1       2.134   3.521  18.062  0.00  0.00    +0.000 A 
ATOM     33  C   UNL     1       1.777   4.871  18.052  0.00  0.00    +0.000 A 
ATOM     34  C   UNL     1       2.717   5.900  17.851  0.00  0.00    +0.000 A 
ENDBRANCH  24  34
ENDBRANCH  23  25
ENDBRANCH   1  23
TORSDOF 4
ENDMDL
MODEL 5
REMARK VINA RESULT:      -8.0      2.445      3.454
REMARK  Name = 
REMARK  5 active torsions:
REMARK  status: ('A' for Active; 'I' for Inactive)
REMARK    1  A    between atoms: C_1  and  C_2
REMARK    2  A    between atoms: C_7  and  N_8
REMARK    3  A    between atoms: C_9  and  C_11
REMARK    4  A    between atoms: C_11  and  N_12
REMARK    5  A    between atoms: N_20  and  C_21
REMARK                            x       y       z     vdW  Elec       q    Type
REMARK                         _______ _______ _______ _____ _____    ______ ____
ROOT
ATOM      1  N   UNL     1       0.042  10.848  22.313  0.00  0.00    +0.000 N 
ATOM      2  C   UNL     1       0.661  11.412  21.181  0.00  0.00    +0.000 C 
ATOM      3  O   UNL     1       1.665  10.978  20.635  0.00  0.00    +0.000 OA
ATOM      4  C   UNL     1      -0.172  12.669  20.790  0.00  0.00    +0.000 C 
ATOM      5  S   UNL     1       0.860  14.105  21.270  0.00  0.00    +0.000 S 
ATOM      6  C   UNL     1       0.171  15.079  19.952  0.00  0.00    +0.000 C 
ATOM      7  C   UNL     1      -0.201  14.095  18.864  0.00  0.00    +0.000 C 
ATOM      8  O   UNL     1      -0.272  14.478  17.701  0.00  0.00    +0.000 OA
ATOM      9  N   UNL     1      -0.538  12.826  19.381  0.00  0.00    +0.000 N 
ATOM     10  C   UNL     1      -1.343  12.596  21.736  0.00  0.00    +0.000 A 
ATOM     11  C   UNL     1      -2.482  13.398  21.756  0.00  0.00    +0.000 A 
ATOM     12  C   UNL     1      -3.460  13.115  22.695  0.00  0.00    +0.000 A 
ATOM     13  C   UNL     1      -3.305  12.033  23.577  0.00  0.00    +0.000 A 
ATOM     14  C   UNL     1      -2.158  11.216  23.534  0.00  0.00    +0.000 A 
ATOM     15  C   UNL     1      -1.170  11.516  22.613  0.00  0.00    +0.000 A 
ENDROOT
BRANCH   9  16
ATOM     16  C   UNL     1      -1.370  11.874  18.661  0.00  0.00    +0.000 A 
ATOM     17  C   UNL     1      -0.839  10.682  18.137  0.00  0.00    +0.000 A 
ATOM     18  C   UNL     1      -1.573   9.844  17.283  0.00  0.00    +0.000 A 
ATOM     19  C   UNL     1      -2.869  10.175  16.943  0.00  0.00    +0.000 A 
ATOM     20  F   UNL     1      -3.554   9.412  16.082  0.00  0.00    +0.000 F 
ATOM     21  C   UNL     1      -3.459  11.302  17.485  0.00  0.00    +0.000 A 
ATOM     22  C   UNL     1      -2.721  12.126  18.352  0.00  0.00    +0.000 A 
ENDBRANCH   9  16
BRANCH   1  23
ATOM     23  C   UNL     1       0.394   9.511  22.725  0.00  0.00    +0.000 C 
BRANCH  23  25
ATOM     24  N   UNL     1       1.660   7.976  21.160  0.00  0.00    +0.000 N 
ATOM     25  C   UNL     1       0.444   8.348  21.727  0.00  0.00    +0.000 C 
ATOM     26  O   UNL     1      -0.652   7.876  21.401  0.00  0.00    +0.000 OA
ATOM     27  H   UNL     1       2.433   8.631  21.237  0.00  0.00    +0.000 HD
BRANCH  24  34
ATOM     28  C   UNL     1       2.446   8.308  18.246  0.00  0.00    +0.000 C 
ATOM     29  C   UNL     1       2.185   6.993  18.927  0.00  0.00    +0.000 A 
ATOM     30  C   UNL     1       2.305   5.832  18.116  0.00  0.00    +0.000 A 
ATOM     31  C   UNL     1       2.082   4.555  18.628  0.00  0.00    +0.000 A 
ATOM     32  C   UNL     1       1.768   4.415  19.965  0.00  0.00    +0.000 A 
ATOM     33  C   UNL     1       1.659   5.544  20.781  0.00  0.00    +0.000 A 
ATOM     34  C   UNL     1       1.832   6.851  20.288  0.00  0.00    +0.000 A 
ENDBRANCH  24  34
ENDBRANCH  23  25
ENDBRANCH   1  23
TORSDOF 4
ENDMDL
MODEL 6
REMARK VINA RESULT:      -8.0      2.847      4.575
REMARK  Name = 
REMARK  5 active torsions:
REMARK  status: ('A' for Active; 'I' for Inactive)
REMARK    1  A    between atoms: C_1  and  C_2
REMARK    2  A    between atoms: C_7  and  N_8
REMARK    3  A    between atoms: C_9  and  C_11
REMARK    4  A    between atoms: C_11  and  N_12
REMARK    5  A    between atoms: N_20  and  C_21
REMARK                            x       y       z     vdW  Elec       q    Type
REMARK                         _______ _______ _______ _____ _____    ______ ____
ROOT
ATOM      1  N   UNL     1       0.750   9.677  19.964  0.00  0.00    +0.000 N 
ATOM      2  C   UNL     1       0.991  10.431  21.128  0.00  0.00    +0.000 C 
ATOM      3  O   UNL     1       1.943  10.284  21.881  0.00  0.00    +0.000 OA
ATOM      4  C   UNL     1      -0.178  11.452  21.254  0.00  0.00    +0.000 C 
ATOM      5  S   UNL     1      -1.210  10.843  22.641  0.00  0.00    +0.000 S 
ATOM      6  C   UNL     1      -1.693  12.504  23.051  0.00  0.00    +0.000 C 
ATOM      7  C   UNL     1      -0.540  13.386  22.625  0.00  0.00    +0.000 C 
ATOM      8  O   UNL     1      -0.381  14.476  23.163  0.00  0.00    +0.000 OA
ATOM      9  N   UNL     1       0.170  12.848  21.530  0.00  0.00    +0.000 N 
ATOM     10  C   UNL     1      -0.942  11.240  19.972  0.00  0.00    +0.000 A 
ATOM     11  C   UNL     1      -2.020  11.974  19.483  0.00  0.00    +0.000 A 
ATOM     12  C   UNL     1      -2.538  11.623  18.247  0.00  0.00    +0.000 A 
ATOM     13  C   UNL     1      -1.966  10.573  17.511  0.00  0.00    +0.000 A 
ATOM     14  C   UNL     1      -0.862   9.850  18.006  0.00  0.00    +0.000 A 
ATOM     15  C   UNL     1      -0.363  10.185  19.253  0.00  0.00    +0.000 A 
ENDROOT
BRANCH   9  16
ATOM     16  C   UNL     1       0.975  13.662  20.632  0.00  0.00    +0.000 A 
ATOM     17  C   UNL     1       2.379  13.646  20.684  0.00  0.00    +0.000 A 
ATOM     18  C   UNL     1       3.169  14.556  19.963  0.00  0.00    +0.000 A 
ATOM     19  C   UNL     1       2.567  15.499  19.157  0.00  0.00    +0.000 A 
ATOM     20  F   UNL     1       3.310  16.407  18.513  0.00  0.00    +0.000 F 
ATOM     21  C   UNL     1       1.191  15.514  19.018  0.00  0.00    +0.000 A 
ATOM     22  C   UNL     1       0.410  14.588  19.732  0.00  0.00    +0.000 A 
ENDBRANCH   9  16
BRANCH   1  23
ATOM     23  C   UNL     1       1.807   8.863  19.412  0.00  0.00    +0.000 C 
BRANCH  23  25
ATOM     24  N   UNL     1       2.322   6.480  18.732  0.00  0.00    +0.000 N 
ATOM     25  C   UNL     1       1.917   7.367  19.727  0.00  0.00    +0.000 C 
ATOM     26  O   UNL     1       1.522   7.025  20.848  0.00  0.00    +0.000 OA
ATOM     27  H   UNL     1       2.300   6.811  17.772  0.00  0.00    +0.000 HD
BRANCH  24  34
ATOM     28  C   UNL     1       5.089   5.354  19.277  0.00  0.00    +0.000 C 
ATOM     29  C   UNL     1       3.828   4.541  19.184  0.00  0.00    +0.000 A 
ATOM     30  C   UNL     1       3.973   3.137  19.350  0.00  0.00    +0.000 A 
ATOM     31  C   UNL     1       2.881   2.275  19.279  0.00  0.00    +0.000 A 
ATOM     32  C   UNL     1       1.622   2.803  19.074  0.00  0.00    +0.000 A 
ATOM     33  C   UNL     1       1.458   4.182  18.923  0.00  0.00    +0.000 A 
ATOM     34  C   UNL     1       2.544   5.079  18.943  0.00  0.00    +0.000 A 
ENDBRANCH  24  34
ENDBRANCH  23  25
ENDBRANCH   1  23
TORSDOF 4
ENDMDL
MODEL 7
REMARK VINA RESULT:      -8.0      2.608      4.053
REMARK  Name = 
REMARK  5 active torsions:
REMARK  status: ('A' for Active; 'I' for Inactive)
REMARK    1  A    between atoms: C_1  and  C_2
REMARK    2  A    between atoms: C_7  and  N_8
REMARK    3  A    between atoms: C_9  and  C_11
REMARK    4  A    between atoms: C_11  and  N_12
REMARK    5  A    between atoms: N_20  and  C_21
REMARK                            x       y       z     vdW  Elec       q    Type
REMARK                         _______ _______ _______ _____ _____    ______ ____
ROOT
ATOM      1  N   UNL     1       0.558   9.991  19.444  0.00  0.00    +0.000 N 
ATOM      2  C   UNL     1       0.930  10.722  20.588  0.00  0.00    +0.000 C 
ATOM      3  O   UNL     1       2.016  10.656  21.147  0.00  0.00    +0.000 OA
ATOM      4  C   UNL     1      -0.296  11.597  20.982  0.00  0.00    +0.000 C 
ATOM      5  S   UNL     1      -0.983  10.821  22.494  0.00  0.00    +0.000 S 
ATOM      6  C   UNL     1      -1.553  12.399  23.081  0.00  0.00    +0.000 C 
ATOM      7  C   UNL     1      -0.598  13.422  22.507  0.00  0.00    +0.000 C 
ATOM      8  O   UNL     1      -0.458  14.502  23.072  0.00  0.00    +0.000 OA
ATOM      9  N   UNL     1      -0.052  13.012  21.273  0.00  0.00    +0.000 N 
ATOM     10  C   UNL     1      -1.258  11.349  19.849  0.00  0.00    +0.000 A 
ATOM     11  C   UNL     1      -2.479  11.974  19.605  0.00  0.00    +0.000 A 
ATOM     12  C   UNL     1      -3.177  11.614  18.465  0.00  0.00    +0.000 A 
ATOM     13  C   UNL     1      -2.644  10.665  17.577  0.00  0.00    +0.000 A 
ATOM     14  C   UNL     1      -1.399  10.055  17.822  0.00  0.00    +0.000 A 
ATOM     15  C   UNL     1      -0.715  10.395  18.976  0.00  0.00    +0.000 A 
ENDROOT
BRANCH   9  16
ATOM     16  C   UNL     1       0.483  13.947  20.294  0.00  0.00    +0.000 A 
ATOM     17  C   UNL     1       1.866  14.082  20.085  0.00  0.00    +0.000 A 
ATOM     18  C   UNL     1       2.410  15.102  19.289  0.00  0.00    +0.000 A 
ATOM     19  C   UNL     1       1.574  16.008  18.668  0.00  0.00    +0.000 A 
ATOM     20  F   UNL     1       2.088  17.019  17.956  0.00  0.00    +0.000 F 
ATOM     21  C   UNL     1       0.203  15.879  18.788  0.00  0.00    +0.000 A 
ATOM     22  C   UNL     1      -0.332  14.843  19.575  0.00  0.00    +0.000 A 
ENDBRANCH   9  16
BRANCH   1  23
ATOM     23  C   UNL     1       1.574   9.324  18.663  0.00  0.00    +0.000 C 
BRANCH  23  25
ATOM     24  N   UNL     1       2.784   7.171  18.114  0.00  0.00    +0.000 N 
ATOM     25  C   UNL     1       2.116   7.946  19.058  0.00  0.00    +0.000 C 
ATOM     26  O   UNL     1       1.819   7.559  20.194  0.00  0.00    +0.000 OA
ATOM     27  H   UNL     1       2.683   7.432  17.137  0.00  0.00    +0.000 HD
BRANCH  24  34
ATOM     28  C   UNL     1       1.344   4.532  17.682  0.00  0.00    +0.000 C 
ATOM     29  C   UNL     1       2.743   4.677  18.215  0.00  0.00    +0.000 A 
ATOM     30  C   UNL     1       3.414   3.471  18.552  0.00  0.00    +0.000 A 
ATOM     31  C   UNL     1       4.711   3.472  19.062  0.00  0.00    +0.000 A 
ATOM     32  C   UNL     1       5.370   4.676  19.212  0.00  0.00    +0.000 A 
ATOM     33  C   UNL     1       4.732   5.871  18.873  0.00  0.00    +0.000 A 
ATOM     34  C   UNL     1       3.406   5.911  18.399  0.00  0.00    +0.000 A 
ENDBRANCH  24  34
ENDBRANCH  23  25
ENDBRANCH   1  23
TORSDOF 4
ENDMDL
MODEL 8
REMARK VINA RESULT:      -7.9      1.903      2.703
REMARK  Name = 
REMARK  5 active torsions:
REMARK  status: ('A' for Active; 'I' for Inactive)
REMARK    1  A    between atoms: C_1  and  C_2
REMARK    2  A    between atoms: C_7  and  N_8
REMARK    3  A    between atoms: C_9  and  C_11
REMARK    4  A    between atoms: C_11  and  N_12
REMARK    5  A    between atoms: N_20  and  C_21
REMARK                            x       y       z     vdW  Elec       q    Type
REMARK                         _______ _______ _______ _____ _____    ______ ____
ROOT
ATOM      1  N   UNL     1      -0.174  11.001  19.266  0.00  0.00    +0.000 N 
ATOM      2  C   UNL     1      -0.717  12.270  18.989  0.00  0.00    +0.000 C 
ATOM      3  O   UNL     1      -0.789  12.781  17.880  0.00  0.00    +0.000 OA
ATOM      4  C   UNL     1      -1.181  12.869  20.349  0.00  0.00    +0.000 C 
ATOM      5  S   UNL     1       0.031  14.187  20.740  0.00  0.00    +0.000 S 
ATOM      6  C   UNL     1      -1.213  15.117  21.606  0.00  0.00    +0.000 C 
ATOM      7  C   UNL     1      -2.527  14.762  20.944  0.00  0.00    +0.000 C 
ATOM      8  O   UNL     1      -3.467  15.547  21.009  0.00  0.00    +0.000 OA
ATOM      9  N   UNL     1      -2.521  13.458  20.406  0.00  0.00    +0.000 N 
ATOM     10  C   UNL     1      -0.958  11.728  21.307  0.00  0.00    +0.000 A 
ATOM     11  C   UNL     1      -1.319  11.650  22.650  0.00  0.00    +0.000 A 
ATOM     12  C   UNL     1      -1.053  10.472  23.327  0.00  0.00    +0.000 A 
ATOM     13  C   UNL     1      -0.460   9.388  22.660  0.00  0.00    +0.000 A 
ATOM     14  C   UNL     1      -0.118   9.470  21.295  0.00  0.00    +0.000 A 
ATOM     15  C   UNL     1      -0.360  10.657  20.627  0.00  0.00    +0.000 A 
ENDROOT
BRANCH   9  16
ATOM     16  C   UNL     1      -3.737  12.697  20.162  0.00  0.00    +0.000 A 
ATOM     17  C   UNL     1      -3.981  12.076  18.925  0.00  0.00    +0.000 A 
ATOM     18  C   UNL     1      -5.220  11.501  18.603  0.00  0.00    +0.000 A 
ATOM     19  C   UNL     1      -6.247  11.522  19.525  0.00  0.00    +0.000 A 
ATOM     20  F   UNL     1      -7.449  11.028  19.204  0.00  0.00    +0.000 F 
ATOM     21  C   UNL     1      -6.038  12.061  20.781  0.00  0.00    +0.000 A 
ATOM     22  C   UNL     1      -4.787  12.621  21.099  0.00  0.00    +0.000 A 
ENDBRANCH   9  16
BRANCH   1  23
ATOM     23  C   UNL     1       0.061  10.075  18.184  0.00  0.00    +0.000 C 
BRANCH  23  25
ATOM     24  N   UNL     1       1.506   8.050  18.649  0.00  0.00    +0.000 N 
ATOM     25  C   UNL     1       1.379   9.304  18.057  0.00  0.00    +0.000 C 
ATOM     26  O   UNL     1       2.306   9.916  17.512  0.00  0.00    +0.000 OA
ATOM     27  H   UNL     1       0.814   7.788  19.344  0.00  0.00    +0.000 HD
BRANCH  24  34
ATOM     28  C   UNL     1       2.007   5.704  20.510  0.00  0.00    +0.000 C 
ATOM     29  C   UNL     1       2.911   6.122  19.384  0.00  0.00    +0.000 A 
ATOM     30  C   UNL     1       4.094   5.354  19.210  0.00  0.00    +0.000 A 
ATOM     31  C   UNL     1       5.015   5.645  18.207  0.00  0.00    +0.000 A 
ATOM     32  C   UNL     1       4.754   6.687  17.339  0.00  0.00    +0.000 A 
ATOM     33  C   UNL     1       3.590   7.445  17.486  0.00  0.00    +0.000 A 
ATOM     34  C   UNL     1       2.660   7.209  18.516  0.00  0.00    +0.000 A 
ENDBRANCH  24  34
ENDBRANCH  23  25
ENDBRANCH   1  23
TORSDOF 4
ENDMDL
MODEL 9
REMARK VINA RESULT:      -7.7      1.637      2.167
REMARK  Name = 
REMARK  5 active torsions:
REMARK  status: ('A' for Active; 'I' for Inactive)
REMARK    1  A    between atoms: C_1  and  C_2
REMARK    2  A    between atoms: C_7  and  N_8
REMARK    3  A    between atoms: C_9  and  C_11
REMARK    4  A    between atoms: C_11  and  N_12
REMARK    5  A    between atoms: N_20  and  C_21
REMARK                            x       y       z     vdW  Elec       q    Type
REMARK                         _______ _______ _______ _____ _____    ______ ____
ROOT
ATOM      1  N   UNL     1       1.618   9.437  18.944  0.00  0.00    +0.000 N 
ATOM      2  C   UNL     1       1.504  10.772  18.512  0.00  0.00    +0.000 C 
ATOM      3  O   UNL     1       1.888  11.201  17.433  0.00  0.00    +0.000 OA
ATOM      4  C   UNL     1       0.819  11.563  19.665  0.00  0.00    +0.000 C 
ATOM      5  S   UNL     1       2.143  12.593  20.404  0.00  0.00    +0.000 S 
ATOM      6  C   UNL     1       0.962  13.846  20.848  0.00  0.00    +0.000 C 
ATOM      7  C   UNL     1      -0.144  13.754  19.819  0.00  0.00    +0.000 C 
ATOM      8  O   UNL     1      -0.842  14.736  19.593  0.00  0.00    +0.000 OA
ATOM      9  N   UNL     1      -0.295  12.446  19.311  0.00  0.00    +0.000 N 
ATOM     10  C   UNL     1       0.467  10.476  20.648  0.00  0.00    +0.000 A 
ATOM     11  C   UNL     1      -0.282  10.585  21.818  0.00  0.00    +0.000 A 
ATOM     12  C   UNL     1      -0.520   9.431  22.546  0.00  0.00    +0.000 A 
ATOM     13  C   UNL     1      -0.037   8.193  22.093  0.00  0.00    +0.000 A 
ATOM     14  C   UNL     1       0.701   8.091  20.897  0.00  0.00    +0.000 A 
ATOM     15  C   UNL     1       0.961   9.248  20.184  0.00  0.00    +0.000 A 
ENDROOT
BRANCH   9  16
ATOM     16  C   UNL     1      -1.531  11.969  18.709  0.00  0.00    +0.000 A 
ATOM     17  C   UNL     1      -1.575  11.514  17.381  0.00  0.00    +0.000 A 
ATOM     18  C   UNL     1      -2.782  11.228  16.723  0.00  0.00    +0.000 A 
ATOM     19  C   UNL     1      -3.980  11.380  17.390  0.00  0.00    +0.000 A 
ATOM     20  F   UNL     1      -5.137  11.167  16.752  0.00  0.00    +0.000 F 
ATOM     21  C   UNL     1      -3.987  11.761  18.719  0.00  0.00    +0.000 A 
ATOM     22  C   UNL     1      -2.772  12.028  19.374  0.00  0.00    +0.000 A 
ENDBRANCH   9  16
BRANCH   1  23
ATOM     23  C   UNL     1       1.930   8.403  17.987  0.00  0.00    +0.000 C 
BRANCH  23  25
ATOM     24  N   UNL     1       1.847   5.875  18.081  0.00  0.00    +0.000 N 
ATOM     25  C   UNL     1       2.509   7.052  18.422  0.00  0.00    +0.000 C 
ATOM     26  O   UNL     1       3.497   7.107  19.163  0.00  0.00    +0.000 OA
ATOM     27  H   UNL     1       0.884   5.953  17.766  0.00  0.00    +0.000 HD
BRANCH  24  34
ATOM     28  C   UNL     1       1.015   4.331  20.560  0.00  0.00    +0.000 C 
ATOM     29  C   UNL     1       1.977   3.836  19.516  0.00  0.00    +0.000 A 
ATOM     30  C   UNL     1       2.539   2.551  19.739  0.00  0.00    +0.000 A 
ATOM     31  C   UNL     1       3.448   1.984  18.848  0.00  0.00    +0.000 A 
ATOM     32  C   UNL     1       3.784   2.677  17.703  0.00  0.00    +0.000 A 
ATOM     33  C   UNL     1       3.231   3.936  17.459  0.00  0.00    +0.000 A 
ATOM     34  C   UNL     1       2.346   4.560  18.359  0.00  0.00    +0.000 A 
ENDBRANCH  24  34
ENDBRANCH  23  25
ENDBRANCH   1  23
TORSDOF 4
ENDMDL
