MODEL 1
REMARK VINA RESULT:      -6.9      0.000      0.000
REMARK  Name = 
REMARK  3 active torsions:
REMARK  status: ('A' for Active; 'I' for Inactive)
REMARK    1  A    between atoms: N_1  and  S_2
REMARK    2  A    between atoms: S_2  and  C_5
REMARK    3  A    between atoms: C_9  and  N_10
REMARK                            x       y       z     vdW  Elec       q    Type
REMARK                         _______ _______ _______ _____ _____    ______ ____
ROOT
ATOM      1  C   UNL     1       5.175   5.500  17.067  0.00  0.00    +0.000 A 
ATOM      2  C   UNL     1       4.884   6.865  17.113  0.00  0.00    +0.000 A 
ATOM      3  C   UNL     1       3.652   7.289  17.607  0.00  0.00    +0.000 A 
ATOM      4  C   UNL     1       2.722   6.352  18.064  0.00  0.00    +0.000 A 
ATOM      5  C   UNL     1       3.023   4.980  18.039  0.00  0.00    +0.000 A 
ATOM      6  C   UNL     1       4.258   4.551  17.535  0.00  0.00    +0.000 A 
ENDROOT
BRANCH   5   7
ATOM      7  N   UNL     1       2.074   4.051  18.532  0.00  0.00    +0.000 N 
ATOM      8  C   UNL     1       1.567   3.906  19.798  0.00  0.00    +0.000 A 
ATOM      9  N   UNL     1       0.708   2.913  19.813  0.00  0.00    +0.000 NA
ATOM     10  N   UNL     1       0.676   2.431  18.532  0.00  0.00    +0.000 NA
ATOM     11  N   UNL     1       1.495   3.114  17.746  0.00  0.00    +0.000 NA
ENDBRANCH   5   7
BRANCH   1  12
ATOM     12  S   UNL     1       6.757   4.977  16.467  0.00  0.00    +0.000 S 
ATOM     13  O   UNL     1       7.548   6.146  16.165  0.00  0.00    +0.000 OA
ATOM     14  O   UNL     1       6.576   3.894  15.532  0.00  0.00    +0.000 OA
BRANCH  12  15
ATOM     15  N   UNL     1       7.437   4.300  17.844  0.00  0.00    +0.000 NA
ATOM     16  H   UNL     1       7.318   4.935  18.635  0.00  0.00    +0.000 HD
ATOM     17  H   UNL     1       8.413   4.053  17.668  0.00  0.00    +0.000 HD
ENDBRANCH  12  15
ENDBRANCH   1  12
TORSDOF 3
ENDMDL
MODEL 2
REMARK VINA RESULT:      -6.9      3.408      5.628
REMARK  Name = 
REMARK  3 active torsions:
REMARK  status: ('A' for Active; 'I' for Inactive)
REMARK    1  A    between atoms: N_1  and  S_2
REMARK    2  A    between atoms: S_2  and  C_5
REMARK    3  A    between atoms: C_9  and  N_10
REMARK                            x       y       z     vdW  Elec       q    Type
REMARK                         _______ _______ _______ _____ _____    ______ ____
ROOT
ATOM      1  C   UNL     1       3.669   4.075  18.216  0.00  0.00    +0.000 A 
ATOM      2  C   UNL     1       4.268   4.611  19.359  0.00  0.00    +0.000 A 
ATOM      3  C   UNL     1       5.537   5.178  19.268  0.00  0.00    +0.000 A 
ATOM      4  C   UNL     1       6.199   5.218  18.038  0.00  0.00    +0.000 A 
ATOM      5  C   UNL     1       5.588   4.699  16.884  0.00  0.00    +0.000 A 
ATOM      6  C   UNL     1       4.314   4.122  16.974  0.00  0.00    +0.000 A 
ENDROOT
BRANCH   5   7
ATOM      7  N   UNL     1       6.268   4.775  15.643  0.00  0.00    +0.000 N 
ATOM      8  C   UNL     1       6.021   4.112  14.468  0.00  0.00    +0.000 A 
ATOM      9  N   UNL     1       6.899   4.483  13.565  0.00  0.00    +0.000 NA
ATOM     10  N   UNL     1       7.707   5.396  14.187  0.00  0.00    +0.000 NA
ATOM     11  N   UNL     1       7.333   5.585  15.444  0.00  0.00    +0.000 NA
ENDBRANCH   5   7
BRANCH   1  12
ATOM     12  S   UNL     1       2.041   3.388  18.339  0.00  0.00    +0.000 S 
ATOM     13  O   UNL     1       1.203   3.996  17.333  0.00  0.00    +0.000 OA
ATOM     14  O   UNL     1       1.662   3.313  19.729  0.00  0.00    +0.000 OA
BRANCH  12  15
ATOM     15  N   UNL     1       2.298   1.808  17.836  0.00  0.00    +0.000 NA
ATOM     16  H   UNL     1       1.831   1.163  18.475  0.00  0.00    +0.000 HD
ATOM     17  H   UNL     1       3.299   1.629  17.741  0.00  0.00    +0.000 HD
ENDBRANCH  12  15
ENDBRANCH   1  12
TORSDOF 3
ENDMDL
MODEL 3
REMARK VINA RESULT:      -6.8      3.526      5.345
REMARK  Name = 
REMARK  3 active torsions:
REMARK  status: ('A' for Active; 'I' for Inactive)
REMARK    1  A    between atoms: N_1  and  S_2
REMARK    2  A    between atoms: S_2  and  C_5
REMARK    3  A    between atoms: C_9  and  N_10
REMARK                            x       y       z     vdW  Elec       q    Type
REMARK                         _______ _______ _______ _____ _____    ______ ____
ROOT
ATOM      1  C   UNL     1       3.916   4.098  18.457  0.00  0.00    +0.000 A 
ATOM      2  C   UNL     1       3.299   5.315  18.756  0.00  0.00    +0.000 A 
ATOM      3  C   UNL     1       3.612   6.447  18.006  0.00  0.00    +0.000 A 
ATOM      4  C   UNL     1       4.529   6.358  16.956  0.00  0.00    +0.000 A 
ATOM      5  C   UNL     1       5.133   5.130  16.640  0.00  0.00    +0.000 A 
ATOM      6  C   UNL     1       4.825   3.991  17.398  0.00  0.00    +0.000 A 
ENDROOT
BRANCH   5   7
ATOM      7  N   UNL     1       6.040   5.059  15.554  0.00  0.00    +0.000 N 
ATOM      8  C   UNL     1       5.950   4.348  14.384  0.00  0.00    +0.000 A 
ATOM      9  N   UNL     1       7.018   4.574  13.654  0.00  0.00    +0.000 NA
ATOM     10  N   UNL     1       7.787   5.443  14.380  0.00  0.00    +0.000 NA
ATOM     11  N   UNL     1       7.204   5.748  15.531  0.00  0.00    +0.000 NA
ENDBRANCH   5   7
BRANCH   1  12
ATOM     12  S   UNL     1       3.484   2.660  19.396  0.00  0.00    +0.000 S 
ATOM     13  O   UNL     1       3.000   1.643  18.493  0.00  0.00    +0.000 OA
ATOM     14  O   UNL     1       2.759   3.065  20.576  0.00  0.00    +0.000 OA
BRANCH  12  15
ATOM     15  N   UNL     1       4.986   2.133  19.926  0.00  0.00    +0.000 NA
ATOM     16  H   UNL     1       5.610   2.012  19.126  0.00  0.00    +0.000 HD
ATOM     17  H   UNL     1       4.883   1.288  20.490  0.00  0.00    +0.000 HD
ENDBRANCH  12  15
ENDBRANCH   1  12
TORSDOF 3
ENDMDL
MODEL 4
REMARK VINA RESULT:      -6.8      3.255      5.348
REMARK  Name = 
REMARK  3 active torsions:
REMARK  status: ('A' for Active; 'I' for Inactive)
REMARK    1  A    between atoms: N_1  and  S_2
REMARK    2  A    between atoms: S_2  and  C_5
REMARK    3  A    between atoms: C_9  and  N_10
REMARK                            x       y       z     vdW  Elec       q    Type
REMARK                         _______ _______ _______ _____ _____    ______ ____
ROOT
ATOM      1  C   UNL     1       3.977   3.977  18.657  0.00  0.00    +0.000 A 
ATOM      2  C   UNL     1       3.302   5.162  18.962  0.00  0.00    +0.000 A 
ATOM      3  C   UNL     1       3.537   6.302  18.197  0.00  0.00    +0.000 A 
ATOM      4  C   UNL     1       4.432   6.255  17.126  0.00  0.00    +0.000 A 
ATOM      5  C   UNL     1       5.094   5.058  16.805  0.00  0.00    +0.000 A 
ATOM      6  C   UNL     1       4.866   3.911  17.577  0.00  0.00    +0.000 A 
ENDROOT
BRANCH   5   7
ATOM      7  N   UNL     1       5.979   5.028  15.698  0.00  0.00    +0.000 N 
ATOM      8  C   UNL     1       5.846   4.392  14.490  0.00  0.00    +0.000 A 
ATOM      9  N   UNL     1       6.907   4.631  13.753  0.00  0.00    +0.000 NA
ATOM     10  N   UNL     1       7.715   5.432  14.515  0.00  0.00    +0.000 NA
ATOM     11  N   UNL     1       7.162   5.683  15.693  0.00  0.00    +0.000 NA
ENDBRANCH   5   7
BRANCH   1  12
ATOM     12  S   UNL     1       3.645   2.526  19.616  0.00  0.00    +0.000 S 
ATOM     13  O   UNL     1       2.435   2.738  20.375  0.00  0.00    +0.000 OA
ATOM     14  O   UNL     1       4.872   2.062  20.216  0.00  0.00    +0.000 OA
BRANCH  12  15
ATOM     15  N   UNL     1       3.254   1.411  18.424  0.00  0.00    +0.000 NA
ATOM     16  H   UNL     1       2.249   1.436  18.246  0.00  0.00    +0.000 HD
ATOM     17  H   UNL     1       3.596   0.485  18.685  0.00  0.00    +0.000 HD
ENDBRANCH  12  15
ENDBRANCH   1  12
TORSDOF 3
ENDMDL
MODEL 5
REMARK VINA RESULT:      -6.8      3.497      5.374
REMARK  Name = 
REMARK  3 active torsions:
REMARK  status: ('A' for Active; 'I' for Inactive)
REMARK    1  A    between atoms: N_1  and  S_2
REMARK    2  A    between atoms: S_2  and  C_5
REMARK    3  A    between atoms: C_9  and  N_10
REMARK                            x       y       z     vdW  Elec       q    Type
REMARK                         _______ _______ _______ _____ _____    ______ ____
ROOT
ATOM      1  C   UNL     1       2.708   4.072  18.509  0.00  0.00    +0.000 A 
ATOM      2  C   UNL     1       2.017   5.270  18.710  0.00  0.00    +0.000 A 
ATOM      3  C   UNL     1       2.589   6.471  18.297  0.00  0.00    +0.000 A 
ATOM      4  C   UNL     1       3.841   6.472  17.676  0.00  0.00    +0.000 A 
ATOM      5  C   UNL     1       4.526   5.266  17.453  0.00  0.00    +0.000 A 
ATOM      6  C   UNL     1       3.956   4.057  17.875  0.00  0.00    +0.000 A 
ENDROOT
BRANCH   5   7
ATOM      7  N   UNL     1       5.782   5.290  16.798  0.00  0.00    +0.000 N 
ATOM      8  C   UNL     1       6.574   4.249  16.386  0.00  0.00    +0.000 A 
ATOM      9  N   UNL     1       7.659   4.724  15.819  0.00  0.00    +0.000 NA
ATOM     10  N   UNL     1       7.541   6.087  15.877  0.00  0.00    +0.000 NA
ATOM     11  N   UNL     1       6.407   6.442  16.464  0.00  0.00    +0.000 NA
ENDBRANCH   5   7
BRANCH   1  12
ATOM     12  S   UNL     1       1.953   2.550  19.009  0.00  0.00    +0.000 S 
ATOM     13  O   UNL     1       0.699   2.401  18.309  0.00  0.00    +0.000 OA
ATOM     14  O   UNL     1       2.070   2.410  20.440  0.00  0.00    +0.000 OA
BRANCH  12  15
ATOM     15  N   UNL     1       2.995   1.417  18.340  0.00  0.00    +0.000 NA
ATOM     16  H   UNL     1       3.870   1.870  18.073  0.00  0.00    +0.000 HD
ATOM     17  H   UNL     1       2.537   0.933  17.566  0.00  0.00    +0.000 HD
ENDBRANCH  12  15
ENDBRANCH   1  12
TORSDOF 3
ENDMDL
MODEL 6
REMARK VINA RESULT:      -6.8      1.021      1.027
REMARK  Name = 
REMARK  3 active torsions:
REMARK  status: ('A' for Active; 'I' for Inactive)
REMARK    1  A    between atoms: N_1  and  S_2
REMARK    2  A    between atoms: S_2  and  C_5
REMARK    3  A    between atoms: C_9  and  N_10
REMARK                            x       y       z     vdW  Elec       q    Type
REMARK                         _______ _______ _______ _____ _____    ______ ____
ROOT
ATOM      1  C   UNL     1       5.205   5.356  16.728  0.00  0.00    +0.000 A 
ATOM      2  C   UNL     1       5.031   6.733  16.890  0.00  0.00    +0.000 A 
ATOM      3  C   UNL     1       3.894   7.210  17.539  0.00  0.00    +0.000 A 
ATOM      4  C   UNL     1       2.943   6.314  18.034  0.00  0.00    +0.000 A 
ATOM      5  C   UNL     1       3.129   4.929  17.891  0.00  0.00    +0.000 A 
ATOM      6  C   UNL     1       4.268   4.446  17.232  0.00  0.00    +0.000 A 
ENDROOT
BRANCH   5   7
ATOM      7  N   UNL     1       2.164   4.039  18.425  0.00  0.00    +0.000 N 
ATOM      8  C   UNL     1       1.618   3.992  19.683  0.00  0.00    +0.000 A 
ATOM      9  N   UNL     1       0.757   3.002  19.747  0.00  0.00    +0.000 NA
ATOM     10  N   UNL     1       0.764   2.423  18.507  0.00  0.00    +0.000 NA
ATOM     11  N   UNL     1       1.608   3.044  17.696  0.00  0.00    +0.000 NA
ENDBRANCH   5   7
BRANCH   1  12
ATOM     12  S   UNL     1       6.671   4.763  15.931  0.00  0.00    +0.000 S 
ATOM     13  O   UNL     1       7.696   4.568  16.929  0.00  0.00    +0.000 OA
ATOM     14  O   UNL     1       6.892   5.517  14.722  0.00  0.00    +0.000 OA
BRANCH  12  15
ATOM     15  N   UNL     1       6.198   3.227  15.447  0.00  0.00    +0.000 NA
ATOM     16  H   UNL     1       7.004   2.718  15.080  0.00  0.00    +0.000 HD
ATOM     17  H   UNL     1       5.425   3.292  14.783  0.00  0.00    +0.000 HD
ENDBRANCH  12  15
ENDBRANCH   1  12
TORSDOF 3
ENDMDL
MODEL 7
REMARK VINA RESULT:      -6.8      3.399      5.478
REMARK  Name = 
REMARK  3 active torsions:
REMARK  status: ('A' for Active; 'I' for Inactive)
REMARK    1  A    between atoms: N_1  and  S_2
REMARK    2  A    between atoms: S_2  and  C_5
REMARK    3  A    between atoms: C_9  and  N_10
REMARK                            x       y       z     vdW  Elec       q    Type
REMARK                         _______ _______ _______ _____ _____    ______ ____
ROOT
ATOM      1  C   UNL     1       2.813   4.092  19.153  0.00  0.00    +0.000 A 
ATOM      2  C   UNL     1       2.125   5.279  18.890  0.00  0.00    +0.000 A 
ATOM      3  C   UNL     1       2.742   6.280  18.143  0.00  0.00    +0.000 A 
ATOM      4  C   UNL     1       4.036   6.090  17.653  0.00  0.00    +0.000 A 
ATOM      5  C   UNL     1       4.721   4.888  17.898  0.00  0.00    +0.000 A 
ATOM      6  C   UNL     1       4.105   3.882  18.656  0.00  0.00    +0.000 A 
ENDROOT
BRANCH   5   7
ATOM      7  N   UNL     1       6.023   4.708  17.369  0.00  0.00    +0.000 N 
ATOM      8  C   UNL     1       6.454   4.768  16.068  0.00  0.00    +0.000 A 
ATOM      9  N   UNL     1       7.746   4.537  16.026  0.00  0.00    +0.000 NA
ATOM     10  N   UNL     1       8.128   4.331  17.324  0.00  0.00    +0.000 NA
ATOM     11  N   UNL     1       7.095   4.436  18.147  0.00  0.00    +0.000 NA
ENDBRANCH   5   7
BRANCH   1  12
ATOM     12  S   UNL     1       2.004   2.815  20.075  0.00  0.00    +0.000 S 
ATOM     13  O   UNL     1       2.663   2.675  21.352  0.00  0.00    +0.000 OA
ATOM     14  O   UNL     1       1.743   1.695  19.204  0.00  0.00    +0.000 OA
BRANCH  12  15
ATOM     15  N   UNL     1       0.514   3.517  20.397  0.00  0.00    +0.000 NA
ATOM     16  H   UNL     1      -0.226   2.824  20.277  0.00  0.00    +0.000 HD
ATOM     17  H   UNL     1       0.387   4.349  19.818  0.00  0.00    +0.000 HD
ENDBRANCH  12  15
ENDBRANCH   1  12
TORSDOF 3
ENDMDL
MODEL 8
REMARK VINA RESULT:      -6.8      1.636      1.732
REMARK  Name = 
REMARK  3 active torsions:
REMARK  status: ('A' for Active; 'I' for Inactive)
REMARK    1  A    between atoms: N_1  and  S_2
REMARK    2  A    between atoms: S_2  and  C_5
REMARK    3  A    between atoms: C_9  and  N_10
REMARK                            x       y       z     vdW  Elec       q    Type
REMARK                         _______ _______ _______ _____ _____    ______ ____
ROOT
ATOM      1  C   UNL     1       5.308   5.280  17.428  0.00  0.00    +0.000 A 
ATOM      2  C   UNL     1       4.665   6.480  17.116  0.00  0.00    +0.000 A 
ATOM      3  C   UNL     1       3.527   6.855  17.827  0.00  0.00    +0.000 A 
ATOM      4  C   UNL     1       3.043   6.040  18.853  0.00  0.00    +0.000 A 
ATOM      5  C   UNL     1       3.703   4.844  19.183  0.00  0.00    +0.000 A 
ATOM      6  C   UNL     1       4.843   4.461  18.464  0.00  0.00    +0.000 A 
ENDROOT
BRANCH   5   7
ATOM      7  N   UNL     1       3.209   4.047  20.245  0.00  0.00    +0.000 N 
ATOM      8  C   UNL     1       2.237   4.328  21.171  0.00  0.00    +0.000 A 
ATOM      9  N   UNL     1       2.094   3.302  21.978  0.00  0.00    +0.000 NA
ATOM     10  N   UNL     1       2.991   2.362  21.546  0.00  0.00    +0.000 NA
ATOM     11  N   UNL     1       3.669   2.800  20.495  0.00  0.00    +0.000 NA
ENDBRANCH   5   7
BRANCH   1  12
ATOM     12  S   UNL     1       6.773   4.832  16.538  0.00  0.00    +0.000 S 
ATOM     13  O   UNL     1       7.452   6.038  16.125  0.00  0.00    +0.000 OA
ATOM     14  O   UNL     1       6.463   3.759  15.625  0.00  0.00    +0.000 OA
BRANCH  12  15
ATOM     15  N   UNL     1       7.717   4.160  17.751  0.00  0.00    +0.000 NA
ATOM     16  H   UNL     1       7.625   4.712  18.605  0.00  0.00    +0.000 HD
ATOM     17  H   UNL     1       8.683   4.067  17.433  0.00  0.00    +0.000 HD
ENDBRANCH  12  15
ENDBRANCH   1  12
TORSDOF 3
ENDMDL
MODEL 9
REMARK VINA RESULT:      -6.8      1.954      2.206
REMARK  Name = 
REMARK  3 active torsions:
REMARK  status: ('A' for Active; 'I' for Inactive)
REMARK    1  A    between atoms: N_1  and  S_2
REMARK    2  A    between atoms: S_2  and  C_5
REMARK    3  A    between atoms: C_9  and  N_10
REMARK                            x       y       z     vdW  Elec       q    Type
REMARK                         _______ _______ _______ _____ _____    ______ ____
ROOT
ATOM      1  C   UNL     1       5.565   5.840  18.086  0.00  0.00    +0.000 A 
ATOM      2  C   UNL     1       4.697   6.748  17.475  0.00  0.00    +0.000 A 
ATOM      3  C   UNL     1       3.348   6.747  17.820  0.00  0.00    +0.000 A 
ATOM      4  C   UNL     1       2.871   5.850  18.779  0.00  0.00    +0.000 A 
ATOM      5  C   UNL     1       3.747   4.952  19.410  0.00  0.00    +0.000 A 
ATOM      6  C   UNL     1       5.104   4.945  19.060  0.00  0.00    +0.000 A 
ENDROOT
BRANCH   5   7
ATOM      7  N   UNL     1       3.246   4.069  20.399  0.00  0.00    +0.000 N 
ATOM      8  C   UNL     1       3.589   2.768  20.665  0.00  0.00    +0.000 A 
ATOM      9  N   UNL     1       2.871   2.325  21.672  0.00  0.00    +0.000 NA
ATOM     10  N   UNL     1       2.067   3.370  22.042  0.00  0.00    +0.000 NA
ATOM     11  N   UNL     1       2.287   4.433  21.281  0.00  0.00    +0.000 NA
ENDBRANCH   5   7
BRANCH   1  12
ATOM     12  S   UNL     1       7.285   5.875  17.664  0.00  0.00    +0.000 S 
ATOM     13  O   UNL     1       7.986   6.677  18.638  0.00  0.00    +0.000 OA
ATOM     14  O   UNL     1       7.420   6.079  16.242  0.00  0.00    +0.000 OA
BRANCH  12  15
ATOM     15  N   UNL     1       7.741   4.287  17.956  0.00  0.00    +0.000 NA
ATOM     16  H   UNL     1       8.087   3.864  17.093  0.00  0.00    +0.000 HD
ATOM     17  H   UNL     1       6.966   3.771  18.376  0.00  0.00    +0.000 HD
ENDBRANCH  12  15
ENDBRANCH   1  12
TORSDOF 3
ENDMDL
