MODEL 1
REMARK VINA RESULT:      -7.5      0.000      0.000
REMARK  Name = 
REMARK  8 active torsions:
REMARK  status: ('A' for Active; 'I' for Inactive)
REMARK    1  A    between atoms: C_1  and  O_2
REMARK    2  A    between atoms: O_2  and  C_3
REMARK    3  A    between atoms: C_3  and  C_4
REMARK    4  A    between atoms: C_4  and  N_5
REMARK    5  A    between atoms: N_5  and  C_23
REMARK    6  A    between atoms: N_11  and  C_12
REMARK    7  A    between atoms: C_16  and  S_17
REMARK    8  A    between atoms: S_17  and  C_18
REMARK                            x       y       z     vdW  Elec       q    Type
REMARK                         _______ _______ _______ _____ _____    ______ ____
ROOT
ATOM      1  N   UNL     1       0.157  11.451  19.758  0.00  0.00    +0.000 N 
ATOM      2  C   UNL     1       0.704  10.159  20.009  0.00  0.00    +0.000 A 
ATOM      3  C   UNL     1       0.755   9.651  21.293  0.00  0.00    +0.000 A 
ATOM      4  C   UNL     1       1.376   8.434  21.465  0.00  0.00    +0.000 A 
ATOM      5  N   UNL     1       1.846   7.685  20.457  0.00  0.00    +0.000 NA
ATOM      6  C   UNL     1       1.682   8.192  19.232  0.00  0.00    +0.000 A 
ATOM      7  N   UNL     1       1.962   7.422  18.096  0.00  0.00    +0.000 N 
ATOM      8  N   UNL     1       1.168   9.403  18.998  0.00  0.00    +0.000 NA
ATOM      9  H   UNL     1       1.843   8.033  17.296  0.00  0.00    +0.000 HD
ENDROOT
BRANCH   1  10
ATOM     10  C   UNL     1       0.365  12.616  20.578  0.00  0.00    +0.000 A 
ATOM     11  C   UNL     1      -0.471  13.050  21.647  0.00  0.00    +0.000 A 
ATOM     12 CL   UNL     1      -1.841  12.178  22.260  0.00  0.00    +0.000 Cl
ATOM     13  C   UNL     1      -0.194  14.222  22.404  0.00  0.00    +0.000 A 
ATOM     14  C   UNL     1       0.943  14.984  22.174  0.00  0.00    +0.000 A 
ATOM     15  C   UNL     1       1.777  14.556  21.176  0.00  0.00    +0.000 A 
ATOM     16  C   UNL     1       1.495  13.445  20.394  0.00  0.00    +0.000 A 
ATOM     17  O   UNL     1       2.468  13.303  19.436  0.00  0.00    +0.000 OA
ATOM     18  C   UNL     1       3.453  14.253  19.863  0.00  0.00    +0.000 C 
ATOM     19  O   UNL     1       2.956  15.160  20.856  0.00  0.00    +0.000 OA
ENDBRANCH   1  10
BRANCH   7  20
ATOM     20  C   UNL     1       3.035   6.530  17.935  0.00  0.00    +0.000 A 
ATOM     21  C   UNL     1       2.772   5.155  17.874  0.00  0.00    +0.000 A 
ATOM     22  C   UNL     1       3.803   4.234  17.671  0.00  0.00    +0.000 A 
ATOM     23  C   UNL     1       5.111   4.682  17.495  0.00  0.00    +0.000 A 
ATOM     24  C   UNL     1       5.373   6.053  17.526  0.00  0.00    +0.000 A 
ATOM     25  C   UNL     1       4.343   6.976  17.728  0.00  0.00    +0.000 A 
BRANCH  24  26
ATOM     26  S   UNL     1       7.022   6.645  17.254  0.00  0.00    +0.000 S 
ATOM     27  C   UNL     1       7.875   6.152  18.727  0.00  0.00    +0.000 C 
ATOM     28  O   UNL     1       7.576   5.902  16.140  0.00  0.00    +0.000 OA
ATOM     29  O   UNL     1       6.972   8.098  17.226  0.00  0.00    +0.000 OA
ENDBRANCH  24  26
ENDBRANCH   7  20
BRANCH   1  30
ATOM     30  C   UNL     1      -0.442  11.696  18.399  0.00  0.00    +0.000 C 
BRANCH  30  31
ATOM     31  C   UNL     1      -1.941  12.020  18.290  0.00  0.00    +0.000 C 
BRANCH  31  33
ATOM     32  C   UNL     1      -1.910  10.002  17.117  0.00  0.00    +0.000 C 
ATOM     33  O   UNL     1      -2.608  11.237  17.288  0.00  0.00    +0.000 OA
ENDBRANCH  31  33
ENDBRANCH  30  31
ENDBRANCH   1  30
TORSDOF 6
ENDMDL
MODEL 2
REMARK VINA RESULT:      -7.5      1.668      2.160
REMARK  Name = 
REMARK  8 active torsions:
REMARK  status: ('A' for Active; 'I' for Inactive)
REMARK    1  A    between atoms: C_1  and  O_2
REMARK    2  A    between atoms: O_2  and  C_3
REMARK    3  A    between atoms: C_3  and  C_4
REMARK    4  A    between atoms: C_4  and  N_5
REMARK    5  A    between atoms: N_5  and  C_23
REMARK    6  A    between atoms: N_11  and  C_12
REMARK    7  A    between atoms: C_16  and  S_17
REMARK    8  A    between atoms: S_17  and  C_18
REMARK                            x       y       z     vdW  Elec       q    Type
REMARK                         _______ _______ _______ _____ _____    ______ ____
ROOT
ATOM      1  N   UNL     1       0.186  11.325  19.749  0.00  0.00    +0.000 N 
ATOM      2  C   UNL     1       0.744  10.038  20.000  0.00  0.00    +0.000 A 
ATOM      3  C   UNL     1       0.816   9.539  21.286  0.00  0.00    +0.000 A 
ATOM      4  C   UNL     1       1.447   8.327  21.457  0.00  0.00    +0.000 A 
ATOM      5  N   UNL     1       1.908   7.574  20.447  0.00  0.00    +0.000 NA
ATOM      6  C   UNL     1       1.723   8.072  19.221  0.00  0.00    +0.000 A 
ATOM      7  N   UNL     1       1.992   7.297  18.086  0.00  0.00    +0.000 N 
ATOM      8  N   UNL     1       1.198   9.279  18.987  0.00  0.00    +0.000 NA
ATOM      9  H   UNL     1       1.858   7.903  17.284  0.00  0.00    +0.000 HD
ENDROOT
BRANCH   1  10
ATOM     10  C   UNL     1       0.398  12.497  20.558  0.00  0.00    +0.000 A 
ATOM     11  C   UNL     1       1.466  13.431  20.419  0.00  0.00    +0.000 A 
ATOM     12 CL   UNL     1       2.651  13.410  19.152  0.00  0.00    +0.000 Cl
ATOM     13  C   UNL     1       1.604  14.562  21.270  0.00  0.00    +0.000 A 
ATOM     14  C   UNL     1       0.671  14.848  22.256  0.00  0.00    +0.000 A 
ATOM     15  C   UNL     1      -0.383  13.982  22.374  0.00  0.00    +0.000 A 
ATOM     16  C   UNL     1      -0.505  12.846  21.587  0.00  0.00    +0.000 A 
ATOM     17  O   UNL     1      -1.614  12.137  21.978  0.00  0.00    +0.000 OA
ATOM     18  C   UNL     1      -2.258  13.054  22.874  0.00  0.00    +0.000 C 
ATOM     19  O   UNL     1      -1.409  14.144  23.256  0.00  0.00    +0.000 OA
ENDBRANCH   1  10
BRANCH   7  20
ATOM     20  C   UNL     1       3.068   6.411  17.916  0.00  0.00    +0.000 A 
ATOM     21  C   UNL     1       2.809   5.036  17.837  0.00  0.00    +0.000 A 
ATOM     22  C   UNL     1       3.843   4.121  17.625  0.00  0.00    +0.000 A 
ATOM     23  C   UNL     1       5.150   4.575  17.455  0.00  0.00    +0.000 A 
ATOM     24  C   UNL     1       5.407   5.947  17.504  0.00  0.00    +0.000 A 
ATOM     25  C   UNL     1       4.374   6.863  17.716  0.00  0.00    +0.000 A 
BRANCH  24  26
ATOM     26  S   UNL     1       7.055   6.548  17.241  0.00  0.00    +0.000 S 
ATOM     27  C   UNL     1       7.901   6.065  18.722  0.00  0.00    +0.000 C 
ATOM     28  O   UNL     1       7.622   5.803  16.134  0.00  0.00    +0.000 OA
ATOM     29  O   UNL     1       6.997   8.000  17.207  0.00  0.00    +0.000 OA
ENDBRANCH  24  26
ENDBRANCH   7  20
BRANCH   1  30
ATOM     30  C   UNL     1      -0.434  11.558  18.396  0.00  0.00    +0.000 C 
BRANCH  30  31
ATOM     31  C   UNL     1      -1.941  11.313  18.212  0.00  0.00    +0.000 C 
BRANCH  31  33
ATOM     32  C   UNL     1      -2.520  10.120  16.291  0.00  0.00    +0.000 C 
ATOM     33  O   UNL     1      -2.360  11.428  16.844  0.00  0.00    +0.000 OA
ENDBRANCH  31  33
ENDBRANCH  30  31
ENDBRANCH   1  30
TORSDOF 6
ENDMDL
MODEL 3
REMARK VINA RESULT:      -7.4      3.932      9.324
REMARK  Name = 
REMARK  8 active torsions:
REMARK  status: ('A' for Active; 'I' for Inactive)
REMARK    1  A    between atoms: C_1  and  O_2
REMARK    2  A    between atoms: O_2  and  C_3
REMARK    3  A    between atoms: C_3  and  C_4
REMARK    4  A    between atoms: C_4  and  N_5
REMARK    5  A    between atoms: N_5  and  C_23
REMARK    6  A    between atoms: N_11  and  C_12
REMARK    7  A    between atoms: C_16  and  S_17
REMARK    8  A    between atoms: S_17  and  C_18
REMARK                            x       y       z     vdW  Elec       q    Type
REMARK                         _______ _______ _______ _____ _____    ______ ____
ROOT
ATOM      1  N   UNL     1       3.530   6.505  18.356  0.00  0.00    +0.000 N 
ATOM      2  C   UNL     1       2.596   7.365  19.006  0.00  0.00    +0.000 A 
ATOM      3  C   UNL     1       2.397   7.287  20.370  0.00  0.00    +0.000 A 
ATOM      4  C   UNL     1       1.417   8.089  20.910  0.00  0.00    +0.000 A 
ATOM      5  N   UNL     1       0.717   8.993  20.208  0.00  0.00    +0.000 NA
ATOM      6  C   UNL     1       1.023   9.081  18.911  0.00  0.00    +0.000 A 
ATOM      7  N   UNL     1       0.496  10.110  18.120  0.00  0.00    +0.000 N 
ATOM      8  N   UNL     1       1.900   8.276  18.303  0.00  0.00    +0.000 NA
ATOM      9  H   UNL     1       0.798   9.928  17.169  0.00  0.00    +0.000 HD
ENDROOT
BRANCH   1  10
ATOM     10  C   UNL     1       3.721   5.109  18.651  0.00  0.00    +0.000 A 
ATOM     11  C   UNL     1       4.931   4.503  19.099  0.00  0.00    +0.000 A 
ATOM     12 CL   UNL     1       6.384   5.360  19.508  0.00  0.00    +0.000 Cl
ATOM     13  C   UNL     1       5.033   3.109  19.361  0.00  0.00    +0.000 A 
ATOM     14  C   UNL     1       3.939   2.265  19.243  0.00  0.00    +0.000 A 
ATOM     15  C   UNL     1       2.759   2.840  18.852  0.00  0.00    +0.000 A 
ATOM     16  C   UNL     1       2.654   4.188  18.543  0.00  0.00    +0.000 A 
ATOM     17  O   UNL     1       1.378   4.460  18.117  0.00  0.00    +0.000 OA
ATOM     18  C   UNL     1       0.689   3.241  18.429  0.00  0.00    +0.000 C 
ATOM     19  O   UNL     1       1.583   2.163  18.736  0.00  0.00    +0.000 OA
ENDBRANCH   1  10
BRANCH   7  20
ATOM     20  C   UNL     1      -0.811  10.622  18.179  0.00  0.00    +0.000 A 
ATOM     21  C   UNL     1      -1.763  10.163  17.259  0.00  0.00    +0.000 A 
ATOM     22  C   UNL     1      -3.085  10.612  17.308  0.00  0.00    +0.000 A 
ATOM     23  C   UNL     1      -3.480  11.504  18.304  0.00  0.00    +0.000 A 
ATOM     24  C   UNL     1      -2.541  11.941  19.241  0.00  0.00    +0.000 A 
ATOM     25  C   UNL     1      -1.218  11.492  19.193  0.00  0.00    +0.000 A 
BRANCH  24  26
ATOM     26  S   UNL     1      -3.035  13.037  20.545  0.00  0.00    +0.000 S 
ATOM     27  C   UNL     1      -2.323  12.294  21.987  0.00  0.00    +0.000 C 
ATOM     28  O   UNL     1      -2.377  14.309  20.320  0.00  0.00    +0.000 OA
ATOM     29  O   UNL     1      -4.482  12.960  20.664  0.00  0.00    +0.000 OA
ENDBRANCH  24  26
ENDBRANCH   7  20
BRANCH   1  30
ATOM     30  C   UNL     1       4.160   7.006  17.084  0.00  0.00    +0.000 C 
BRANCH  30  31
ATOM     31  C   UNL     1       4.906   6.013  16.177  0.00  0.00    +0.000 C 
BRANCH  31  33
ATOM     32  C   UNL     1       7.009   5.029  15.941  0.00  0.00    +0.000 C 
ATOM     33  O   UNL     1       6.317   6.266  16.117  0.00  0.00    +0.000 OA
ENDBRANCH  31  33
ENDBRANCH  30  31
ENDBRANCH   1  30
TORSDOF 6
ENDMDL
MODEL 4
REMARK VINA RESULT:      -7.2      1.869      2.299
REMARK  Name = 
REMARK  8 active torsions:
REMARK  status: ('A' for Active; 'I' for Inactive)
REMARK    1  A    between atoms: C_1  and  O_2
REMARK    2  A    between atoms: O_2  and  C_3
REMARK    3  A    between atoms: C_3  and  C_4
REMARK    4  A    between atoms: C_4  and  N_5
REMARK    5  A    between atoms: N_5  and  C_23
REMARK    6  A    between atoms: N_11  and  C_12
REMARK    7  A    between atoms: C_16  and  S_17
REMARK    8  A    between atoms: S_17  and  C_18
REMARK                            x       y       z     vdW  Elec       q    Type
REMARK                         _______ _______ _______ _____ _____    ______ ____
ROOT
ATOM      1  N   UNL     1       0.096  11.563  19.844  0.00  0.00    +0.000 N 
ATOM      2  C   UNL     1       0.634  10.268  20.097  0.00  0.00    +0.000 A 
ATOM      3  C   UNL     1       0.674   9.759  21.380  0.00  0.00    +0.000 A 
ATOM      4  C   UNL     1       1.288   8.539  21.555  0.00  0.00    +0.000 A 
ATOM      5  N   UNL     1       1.762   7.788  20.550  0.00  0.00    +0.000 NA
ATOM      6  C   UNL     1       1.609   8.298  19.325  0.00  0.00    +0.000 A 
ATOM      7  N   UNL     1       1.894   7.528  18.189  0.00  0.00    +0.000 N 
ATOM      8  N   UNL     1       1.102   9.511  19.088  0.00  0.00    +0.000 NA
ATOM      9  H   UNL     1       1.783   8.141  17.389  0.00  0.00    +0.000 HD
ENDROOT
BRANCH   1  10
ATOM     10  C   UNL     1       0.303  12.727  20.666  0.00  0.00    +0.000 A 
ATOM     11  C   UNL     1      -0.568  13.195  21.693  0.00  0.00    +0.000 A 
ATOM     12 CL   UNL     1      -1.993  12.372  22.245  0.00  0.00    +0.000 Cl
ATOM     13  C   UNL     1      -0.288  14.362  22.455  0.00  0.00    +0.000 A 
ATOM     14  C   UNL     1       0.883  15.085  22.275  0.00  0.00    +0.000 A 
ATOM     15  C   UNL     1       1.749  14.623  21.321  0.00  0.00    +0.000 A 
ATOM     16  C   UNL     1       1.467  13.516  20.532  0.00  0.00    +0.000 A 
ATOM     17  O   UNL     1       2.479  13.336  19.622  0.00  0.00    +0.000 OA
ATOM     18  C   UNL     1       3.474  14.257  20.090  0.00  0.00    +0.000 C 
ATOM     19  O   UNL     1       2.960  15.186  21.053  0.00  0.00    +0.000 OA
ENDBRANCH   1  10
BRANCH   7  20
ATOM     20  C   UNL     1       2.964   6.631  18.036  0.00  0.00    +0.000 A 
ATOM     21  C   UNL     1       4.164   7.095  17.480  0.00  0.00    +0.000 A 
ATOM     22  C   UNL     1       5.269   6.251  17.348  0.00  0.00    +0.000 A 
ATOM     23  C   UNL     1       5.197   4.935  17.804  0.00  0.00    +0.000 A 
ATOM     24  C   UNL     1       4.013   4.478  18.385  0.00  0.00    +0.000 A 
ATOM     25  C   UNL     1       2.907   5.322  18.518  0.00  0.00    +0.000 A 
BRANCH  24  26
ATOM     26  S   UNL     1       3.917   2.823  19.015  0.00  0.00    +0.000 S 
ATOM     27  C   UNL     1       2.443   2.850  19.996  0.00  0.00    +0.000 C 
ATOM     28  O   UNL     1       3.696   1.938  17.889  0.00  0.00    +0.000 OA
ATOM     29  O   UNL     1       5.049   2.622  19.906  0.00  0.00    +0.000 OA
ENDBRANCH  24  26
ENDBRANCH   7  20
BRANCH   1  30
ATOM     30  C   UNL     1      -0.493  11.812  18.480  0.00  0.00    +0.000 C 
BRANCH  30  31
ATOM     31  C   UNL     1      -1.962  11.443  18.221  0.00  0.00    +0.000 C 
BRANCH  31  33
ATOM     32  C   UNL     1      -2.593  10.026  16.477  0.00  0.00    +0.000 C 
ATOM     33  O   UNL     1      -2.281  11.377  16.823  0.00  0.00    +0.000 OA
ENDBRANCH  31  33
ENDBRANCH  30  31
ENDBRANCH   1  30
TORSDOF 6
ENDMDL
MODEL 5
REMARK VINA RESULT:      -7.2      2.527      3.180
REMARK  Name = 
REMARK  8 active torsions:
REMARK  status: ('A' for Active; 'I' for Inactive)
REMARK    1  A    between atoms: C_1  and  O_2
REMARK    2  A    between atoms: O_2  and  C_3
REMARK    3  A    between atoms: C_3  and  C_4
REMARK    4  A    between atoms: C_4  and  N_5
REMARK    5  A    between atoms: N_5  and  C_23
REMARK    6  A    between atoms: N_11  and  C_12
REMARK    7  A    between atoms: C_16  and  S_17
REMARK    8  A    between atoms: S_17  and  C_18
REMARK                            x       y       z     vdW  Elec       q    Type
REMARK                         _______ _______ _______ _____ _____    ______ ____
ROOT
ATOM      1  N   UNL     1       0.139  11.543  19.846  0.00  0.00    +0.000 N 
ATOM      2  C   UNL     1       0.659  10.242  20.104  0.00  0.00    +0.000 A 
ATOM      3  C   UNL     1       0.679   9.730  21.387  0.00  0.00    +0.000 A 
ATOM      4  C   UNL     1       1.277   8.503  21.567  0.00  0.00    +0.000 A 
ATOM      5  N   UNL     1       1.754   7.749  20.566  0.00  0.00    +0.000 NA
ATOM      6  C   UNL     1       1.622   8.262  19.340  0.00  0.00    +0.000 A 
ATOM      7  N   UNL     1       1.911   7.491  18.207  0.00  0.00    +0.000 N 
ATOM      8  N   UNL     1       1.131   9.481  19.099  0.00  0.00    +0.000 NA
ATOM      9  H   UNL     1       1.817   8.106  17.407  0.00  0.00    +0.000 HD
ENDROOT
BRANCH   1  10
ATOM     10  C   UNL     1       0.349  12.703  20.673  0.00  0.00    +0.000 A 
ATOM     11  C   UNL     1       1.451  13.604  20.590  0.00  0.00    +0.000 A 
ATOM     12 CL   UNL     1       2.692  13.554  19.379  0.00  0.00    +0.000 Cl
ATOM     13  C   UNL     1       1.583  14.726  21.455  0.00  0.00    +0.000 A 
ATOM     14  C   UNL     1       0.615  15.035  22.400  0.00  0.00    +0.000 A 
ATOM     15  C   UNL     1      -0.469  14.200  22.463  0.00  0.00    +0.000 A 
ATOM     16  C   UNL     1      -0.589  13.073  21.662  0.00  0.00    +0.000 A 
ATOM     17  O   UNL     1      -1.737  12.398  21.997  0.00  0.00    +0.000 OA
ATOM     18  C   UNL     1      -2.393  13.328  22.868  0.00  0.00    +0.000 C 
ATOM     19  O   UNL     1      -1.529  14.389  23.297  0.00  0.00    +0.000 OA
ENDBRANCH   1  10
BRANCH   7  20
ATOM     20  C   UNL     1       2.973   6.582  18.064  0.00  0.00    +0.000 A 
ATOM     21  C   UNL     1       4.174   7.026  17.493  0.00  0.00    +0.000 A 
ATOM     22  C   UNL     1       5.271   6.170  17.371  0.00  0.00    +0.000 A 
ATOM     23  C   UNL     1       5.191   4.864  17.852  0.00  0.00    +0.000 A 
ATOM     24  C   UNL     1       4.006   4.428  18.449  0.00  0.00    +0.000 A 
ATOM     25  C   UNL     1       2.908   5.283  18.571  0.00  0.00    +0.000 A 
BRANCH  24  26
ATOM     26  S   UNL     1       3.901   2.786  19.110  0.00  0.00    +0.000 S 
ATOM     27  C   UNL     1       2.472   2.863  20.156  0.00  0.00    +0.000 C 
ATOM     28  O   UNL     1       3.608   1.888  18.010  0.00  0.00    +0.000 OA
ATOM     29  O   UNL     1       5.066   2.572  19.953  0.00  0.00    +0.000 OA
ENDBRANCH  24  26
ENDBRANCH   7  20
BRANCH   1  30
ATOM     30  C   UNL     1      -0.431  11.801  18.476  0.00  0.00    +0.000 C 
BRANCH  30  31
ATOM     31  C   UNL     1      -1.802  11.209  18.113  0.00  0.00    +0.000 C 
BRANCH  31  33
ATOM     32  C   UNL     1      -2.571  10.505  16.025  0.00  0.00    +0.000 C 
ATOM     33  O   UNL     1      -1.717  10.175  17.122  0.00  0.00    +0.000 OA
ENDBRANCH  31  33
ENDBRANCH  30  31
ENDBRANCH   1  30
TORSDOF 6
ENDMDL
MODEL 6
REMARK VINA RESULT:      -7.2      2.175      2.759
REMARK  Name = 
REMARK  8 active torsions:
REMARK  status: ('A' for Active; 'I' for Inactive)
REMARK    1  A    between atoms: C_1  and  O_2
REMARK    2  A    between atoms: O_2  and  C_3
REMARK    3  A    between atoms: C_3  and  C_4
REMARK    4  A    between atoms: C_4  and  N_5
REMARK    5  A    between atoms: N_5  and  C_23
REMARK    6  A    between atoms: N_11  and  C_12
REMARK    7  A    between atoms: C_16  and  S_17
REMARK    8  A    between atoms: S_17  and  C_18
REMARK                            x       y       z     vdW  Elec       q    Type
REMARK                         _______ _______ _______ _____ _____    ______ ____
ROOT
ATOM      1  N   UNL     1      -0.205  10.925  18.905  0.00  0.00    +0.000 N 
ATOM      2  C   UNL     1       0.512   9.862  19.527  0.00  0.00    +0.000 A 
ATOM      3  C   UNL     1       0.632   9.800  20.901  0.00  0.00    +0.000 A 
ATOM      4  C   UNL     1       1.412   8.792  21.421  0.00  0.00    +0.000 A 
ATOM      5  N   UNL     1       1.981   7.828  20.681  0.00  0.00    +0.000 NA
ATOM      6  C   UNL     1       1.749   7.894  19.367  0.00  0.00    +0.000 A 
ATOM      7  N   UNL     1       2.132   6.846  18.520  0.00  0.00    +0.000 N 
ATOM      8  N   UNL     1       1.075   8.890  18.786  0.00  0.00    +0.000 NA
ATOM      9  H   UNL     1       1.931   7.150  17.575  0.00  0.00    +0.000 HD
ENDROOT
BRANCH   1  10
ATOM     10  C   UNL     1      -0.158  12.307  19.307  0.00  0.00    +0.000 A 
ATOM     11  C   UNL     1       0.924  13.209  19.087  0.00  0.00    +0.000 A 
ATOM     12 CL   UNL     1       2.352  12.849  18.169  0.00  0.00    +0.000 Cl
ATOM     13  C   UNL     1       0.889  14.561  19.525  0.00  0.00    +0.000 A 
ATOM     14  C   UNL     1      -0.229  15.095  20.149  0.00  0.00    +0.000 A 
ATOM     15  C   UNL     1      -1.293  14.252  20.329  0.00  0.00    +0.000 A 
ATOM     16  C   UNL     1      -1.256  12.916  19.955  0.00  0.00    +0.000 A 
ATOM     17  O   UNL     1      -2.430  12.308  20.323  0.00  0.00    +0.000 OA
ATOM     18  C   UNL     1      -3.240  13.425  20.714  0.00  0.00    +0.000 C 
ATOM     19  O   UNL     1      -2.481  14.629  20.879  0.00  0.00    +0.000 OA
ENDBRANCH   1  10
BRANCH   7  20
ATOM     20  C   UNL     1       3.316   6.096  18.603  0.00  0.00    +0.000 A 
ATOM     21  C   UNL     1       3.415   5.087  19.570  0.00  0.00    +0.000 A 
ATOM     22  C   UNL     1       4.557   4.286  19.661  0.00  0.00    +0.000 A 
ATOM     23  C   UNL     1       5.604   4.465  18.759  0.00  0.00    +0.000 A 
ATOM     24  C   UNL     1       5.497   5.450  17.775  0.00  0.00    +0.000 A 
ATOM     25  C   UNL     1       4.356   6.251  17.683  0.00  0.00    +0.000 A 
BRANCH  24  26
ATOM     26  S   UNL     1       6.798   5.660  16.589  0.00  0.00    +0.000 S 
ATOM     27  C   UNL     1       5.992   5.331  15.045  0.00  0.00    +0.000 C 
ATOM     28  O   UNL     1       7.187   7.057  16.608  0.00  0.00    +0.000 OA
ATOM     29  O   UNL     1       7.781   4.613  16.818  0.00  0.00    +0.000 OA
ENDBRANCH  24  26
ENDBRANCH   7  20
BRANCH   1  30
ATOM     30  C   UNL     1      -0.832  10.646  17.565  0.00  0.00    +0.000 C 
BRANCH  30  31
ATOM     31  C   UNL     1      -2.223   9.992  17.512  0.00  0.00    +0.000 C 
BRANCH  31  33
ATOM     32  C   UNL     1      -2.888  10.816  15.432  0.00  0.00    +0.000 C 
ATOM     33  O   UNL     1      -2.616   9.629  16.180  0.00  0.00    +0.000 OA
ENDBRANCH  31  33
ENDBRANCH  30  31
ENDBRANCH   1  30
TORSDOF 6
ENDMDL
MODEL 7
REMARK VINA RESULT:      -7.1      0.890      1.196
REMARK  Name = 
REMARK  8 active torsions:
REMARK  status: ('A' for Active; 'I' for Inactive)
REMARK    1  A    between atoms: C_1  and  O_2
REMARK    2  A    between atoms: O_2  and  C_3
REMARK    3  A    between atoms: C_3  and  C_4
REMARK    4  A    between atoms: C_4  and  N_5
REMARK    5  A    between atoms: N_5  and  C_23
REMARK    6  A    between atoms: N_11  and  C_12
REMARK    7  A    between atoms: C_16  and  S_17
REMARK    8  A    between atoms: S_17  and  C_18
REMARK                            x       y       z     vdW  Elec       q    Type
REMARK                         _______ _______ _______ _____ _____    ______ ____
ROOT
ATOM      1  N   UNL     1       0.300  11.397  19.809  0.00  0.00    +0.000 N 
ATOM      2  C   UNL     1       0.779  10.107  20.181  0.00  0.00    +0.000 A 
ATOM      3  C   UNL     1       0.676   9.666  21.486  0.00  0.00    +0.000 A 
ATOM      4  C   UNL     1       1.239   8.445  21.785  0.00  0.00    +0.000 A 
ATOM      5  N   UNL     1       1.795   7.634  20.873  0.00  0.00    +0.000 NA
ATOM      6  C   UNL     1       1.780   8.081  19.614  0.00  0.00    +0.000 A 
ATOM      7  N   UNL     1       2.160   7.247  18.554  0.00  0.00    +0.000 N 
ATOM      8  N   UNL     1       1.329   9.289  19.266  0.00  0.00    +0.000 NA
ATOM      9  H   UNL     1       2.146   7.819  17.717  0.00  0.00    +0.000 HD
ENDROOT
BRANCH   1  10
ATOM     10  C   UNL     1       0.451  12.598  20.589  0.00  0.00    +0.000 A 
ATOM     11  C   UNL     1      -0.452  13.069  21.587  0.00  0.00    +0.000 A 
ATOM     12 CL   UNL     1      -1.850  12.212  22.153  0.00  0.00    +0.000 Cl
ATOM     13  C   UNL     1      -0.228  14.275  22.307  0.00  0.00    +0.000 A 
ATOM     14  C   UNL     1       0.916  15.037  22.113  0.00  0.00    +0.000 A 
ATOM     15  C   UNL     1       1.812  14.574  21.187  0.00  0.00    +0.000 A 
ATOM     16  C   UNL     1       1.584  13.428  20.438  0.00  0.00    +0.000 A 
ATOM     17  O   UNL     1       2.614  13.254  19.547  0.00  0.00    +0.000 OA
ATOM     18  C   UNL     1       3.566  14.231  19.991  0.00  0.00    +0.000 C 
ATOM     19  O   UNL     1       3.003  15.174  20.912  0.00  0.00    +0.000 OA
ENDBRANCH   1  10
BRANCH   7  20
ATOM     20  C   UNL     1       3.219   6.324  18.557  0.00  0.00    +0.000 A 
ATOM     21  C   UNL     1       3.103   5.162  19.332  0.00  0.00    +0.000 A 
ATOM     22  C   UNL     1       4.112   4.195  19.332  0.00  0.00    +0.000 A 
ATOM     23  C   UNL     1       5.237   4.364  18.527  0.00  0.00    +0.000 A 
ATOM     24  C   UNL     1       5.341   5.506  17.731  0.00  0.00    +0.000 A 
ATOM     25  C   UNL     1       4.334   6.474  17.730  0.00  0.00    +0.000 A 
BRANCH  24  26
ATOM     26  S   UNL     1       6.742   5.716  16.663  0.00  0.00    +0.000 S 
ATOM     27  C   UNL     1       6.113   5.242  15.076  0.00  0.00    +0.000 C 
ATOM     28  O   UNL     1       7.053   7.132  16.622  0.00  0.00    +0.000 OA
ATOM     29  O   UNL     1       7.750   4.746  17.058  0.00  0.00    +0.000 OA
ENDBRANCH  24  26
ENDBRANCH   7  20
BRANCH   1  30
ATOM     30  C   UNL     1      -0.140  11.585  18.382  0.00  0.00    +0.000 C 
BRANCH  30  31
ATOM     31  C   UNL     1      -1.628  11.424  18.031  0.00  0.00    +0.000 C 
BRANCH  31  33
ATOM     32  C   UNL     1      -3.197   9.815  17.399  0.00  0.00    +0.000 C 
ATOM     33  O   UNL     1      -2.122  10.102  18.296  0.00  0.00    +0.000 OA
ENDBRANCH  31  33
ENDBRANCH  30  31
ENDBRANCH   1  30
TORSDOF 6
ENDMDL
MODEL 8
REMARK VINA RESULT:      -7.0      1.931      2.434
REMARK  Name = 
REMARK  8 active torsions:
REMARK  status: ('A' for Active; 'I' for Inactive)
REMARK    1  A    between atoms: C_1  and  O_2
REMARK    2  A    between atoms: O_2  and  C_3
REMARK    3  A    between atoms: C_3  and  C_4
REMARK    4  A    between atoms: C_4  and  N_5
REMARK    5  A    between atoms: N_5  and  C_23
REMARK    6  A    between atoms: N_11  and  C_12
REMARK    7  A    between atoms: C_16  and  S_17
REMARK    8  A    between atoms: S_17  and  C_18
REMARK                            x       y       z     vdW  Elec       q    Type
REMARK                         _______ _______ _______ _____ _____    ______ ____
ROOT
ATOM      1  N   UNL     1       0.477  10.813  19.445  0.00  0.00    +0.000 N 
ATOM      2  C   UNL     1       0.974   9.523  19.792  0.00  0.00    +0.000 A 
ATOM      3  C   UNL     1       1.039   9.123  21.112  0.00  0.00    +0.000 A 
ATOM      4  C   UNL     1       1.612   7.898  21.373  0.00  0.00    +0.000 A 
ATOM      5  N   UNL     1       2.023   7.047  20.421  0.00  0.00    +0.000 NA
ATOM      6  C   UNL     1       1.847   7.456  19.162  0.00  0.00    +0.000 A 
ATOM      7  N   UNL     1       2.064   6.582  18.089  0.00  0.00    +0.000 N 
ATOM      8  N   UNL     1       1.379   8.665  18.838  0.00  0.00    +0.000 NA
ATOM      9  H   UNL     1       1.949   7.129  17.243  0.00  0.00    +0.000 HD
ENDROOT
BRANCH   1  10
ATOM     10  C   UNL     1       0.756  12.032  20.158  0.00  0.00    +0.000 A 
ATOM     11  C   UNL     1       1.779  12.974  19.843  0.00  0.00    +0.000 A 
ATOM     12 CL   UNL     1       2.808  12.899  18.447  0.00  0.00    +0.000 Cl
ATOM     13  C   UNL     1       1.990  14.154  20.608  0.00  0.00    +0.000 A 
ATOM     14  C   UNL     1       1.173  14.481  21.680  0.00  0.00    +0.000 A 
ATOM     15  C   UNL     1       0.160  13.606  21.970  0.00  0.00    +0.000 A 
ATOM     16  C   UNL     1      -0.028  12.425  21.266  0.00  0.00    +0.000 A 
ATOM     17  O   UNL     1      -1.067  11.723  21.824  0.00  0.00    +0.000 OA
ATOM     18  C   UNL     1      -1.622  12.679  22.737  0.00  0.00    +0.000 C 
ATOM     19  O   UNL     1      -0.759  13.802  22.956  0.00  0.00    +0.000 OA
ENDBRANCH   1  10
BRANCH   7  20
ATOM     20  C   UNL     1       3.093   5.633  17.980  0.00  0.00    +0.000 A 
ATOM     21  C   UNL     1       2.774   4.329  17.579  0.00  0.00    +0.000 A 
ATOM     22  C   UNL     1       3.770   3.363  17.415  0.00  0.00    +0.000 A 
ATOM     23  C   UNL     1       5.107   3.702  17.618  0.00  0.00    +0.000 A 
ATOM     24  C   UNL     1       5.431   5.009  17.989  0.00  0.00    +0.000 A 
ATOM     25  C   UNL     1       4.436   5.976  18.153  0.00  0.00    +0.000 A 
BRANCH  24  26
ATOM     26  S   UNL     1       7.130   5.472  18.204  0.00  0.00    +0.000 S 
ATOM     27  C   UNL     1       7.196   7.097  17.501  0.00  0.00    +0.000 C 
ATOM     28  O   UNL     1       7.376   5.584  19.628  0.00  0.00    +0.000 OA
ATOM     29  O   UNL     1       7.938   4.589  17.378  0.00  0.00    +0.000 OA
ENDBRANCH  24  26
ENDBRANCH   7  20
BRANCH   1  30
ATOM     30  C   UNL     1      -0.148  10.970  18.084  0.00  0.00    +0.000 C 
BRANCH  30  31
ATOM     31  C   UNL     1      -1.488  10.274  17.792  0.00  0.00    +0.000 C 
BRANCH  31  33
ATOM     32  C   UNL     1      -3.481  11.361  17.250  0.00  0.00    +0.000 C 
ATOM     33  O   UNL     1      -2.226  10.911  16.738  0.00  0.00    +0.000 OA
ENDBRANCH  31  33
ENDBRANCH  30  31
ENDBRANCH   1  30
TORSDOF 6
ENDMDL
MODEL 9
REMARK VINA RESULT:      -6.9      1.094      1.158
REMARK  Name = 
REMARK  8 active torsions:
REMARK  status: ('A' for Active; 'I' for Inactive)
REMARK    1  A    between atoms: C_1  and  O_2
REMARK    2  A    between atoms: O_2  and  C_3
REMARK    3  A    between atoms: C_3  and  C_4
REMARK    4  A    between atoms: C_4  and  N_5
REMARK    5  A    between atoms: N_5  and  C_23
REMARK    6  A    between atoms: N_11  and  C_12
REMARK    7  A    between atoms: C_16  and  S_17
REMARK    8  A    between atoms: S_17  and  C_18
REMARK                            x       y       z     vdW  Elec       q    Type
REMARK                         _______ _______ _______ _____ _____    ______ ____
ROOT
ATOM      1  N   UNL     1      -0.074  11.115  19.434  0.00  0.00    +0.000 N 
ATOM      2  C   UNL     1       0.588   9.966  19.956  0.00  0.00    +0.000 A 
ATOM      3  C   UNL     1       0.697   9.773  21.320  0.00  0.00    +0.000 A 
ATOM      4  C   UNL     1       1.425   8.685  21.746  0.00  0.00    +0.000 A 
ATOM      5  N   UNL     1       1.951   7.767  20.922  0.00  0.00    +0.000 NA
ATOM      6  C   UNL     1       1.731   7.964  19.619  0.00  0.00    +0.000 A 
ATOM      7  N   UNL     1       2.069   6.980  18.680  0.00  0.00    +0.000 N 
ATOM      8  N   UNL     1       1.109   9.040  19.131  0.00  0.00    +0.000 NA
ATOM      9  H   UNL     1       1.888   7.379  17.766  0.00  0.00    +0.000 HD
ENDROOT
BRANCH   1  10
ATOM     10  C   UNL     1       0.037  12.451  19.961  0.00  0.00    +0.000 A 
ATOM     11  C   UNL     1      -0.867  13.071  20.872  0.00  0.00    +0.000 A 
ATOM     12 CL   UNL     1      -2.213  12.284  21.634  0.00  0.00    +0.000 Cl
ATOM     13  C   UNL     1      -0.684  14.402  21.338  0.00  0.00    +0.000 A 
ATOM     14  C   UNL     1       0.419  15.158  20.967  0.00  0.00    +0.000 A 
ATOM     15  C   UNL     1       1.317  14.560  20.123  0.00  0.00    +0.000 A 
ATOM     16  C   UNL     1       1.127  13.281  19.619  0.00  0.00    +0.000 A 
ATOM     17  O   UNL     1       2.146  12.979  18.750  0.00  0.00    +0.000 OA
ATOM     18  C   UNL     1       3.061  14.062  18.968  0.00  0.00    +0.000 C 
ATOM     19  O   UNL     1       2.474  15.143  19.703  0.00  0.00    +0.000 OA
ENDBRANCH   1  10
BRANCH   7  20
ATOM     20  C   UNL     1       3.216   6.170  18.696  0.00  0.00    +0.000 A 
ATOM     21  C   UNL     1       3.226   5.023  19.501  0.00  0.00    +0.000 A 
ATOM     22  C   UNL     1       4.327   4.164  19.515  0.00  0.00    +0.000 A 
ATOM     23  C   UNL     1       5.424   4.426  18.695  0.00  0.00    +0.000 A 
ATOM     24  C   UNL     1       5.405   5.551  17.869  0.00  0.00    +0.000 A 
ATOM     25  C   UNL     1       4.303   6.411  17.853  0.00  0.00    +0.000 A 
BRANCH  24  26
ATOM     26  S   UNL     1       6.768   5.875  16.782  0.00  0.00    +0.000 S 
ATOM     27  C   UNL     1       7.525   7.306  17.500  0.00  0.00    +0.000 C 
ATOM     28  O   UNL     1       7.695   4.765  16.900  0.00  0.00    +0.000 OA
ATOM     29  O   UNL     1       6.224   6.252  15.488  0.00  0.00    +0.000 OA
ENDBRANCH  24  26
ENDBRANCH   7  20
BRANCH   1  30
ATOM     30  C   UNL     1      -0.705  10.990  18.073  0.00  0.00    +0.000 C 
BRANCH  30  31
ATOM     31  C   UNL     1      -2.210  11.263  17.918  0.00  0.00    +0.000 C 
BRANCH  31  33
ATOM     32  C   UNL     1      -4.042  11.306  16.472  0.00  0.00    +0.000 C 
ATOM     33  O   UNL     1      -2.617  11.376  16.546  0.00  0.00    +0.000 OA
ENDBRANCH  31  33
ENDBRANCH  30  31
ENDBRANCH   1  30
TORSDOF 6
ENDMDL
