MODEL 1
REMARK VINA RESULT:      -7.6      0.000      0.000
REMARK  Name = 
REMARK  2 active torsions:
REMARK  status: ('A' for Active; 'I' for Inactive)
REMARK    1  A    between atoms: C_1  and  C_2
REMARK    2  A    between atoms: N_8  and  C_9
REMARK                            x       y       z     vdW  Elec       q    Type
REMARK                         _______ _______ _______ _____ _____    ______ ____
ROOT
ATOM      1  C   UNL     1      -0.004  11.069  20.381  0.00  0.00    +0.000 C 
ATOM      2  C   UNL     1       0.700   9.768  20.127  0.00  0.00    +0.000 A 
ATOM      3  C   UNL     1       0.633   8.715  21.076  0.00  0.00    +0.000 A 
ATOM      4  C   UNL     1       1.323   7.509  20.861  0.00  0.00    +0.000 A 
ATOM      5  C   UNL     1       2.067   7.389  19.692  0.00  0.00    +0.000 A 
ATOM      6  C   UNL     1       2.868   6.379  19.231  0.00  0.00    +0.000 A 
ATOM      7  C   UNL     1       3.235   5.149  19.741  0.00  0.00    +0.000 A 
ATOM      8  N   UNL     1       4.122   4.371  19.035  0.00  0.00    +0.000 N 
ATOM      9  C   UNL     1       4.516   3.082  19.627  0.00  0.00    +0.000 C 
ATOM     10  C   UNL     1       4.644   4.792  17.813  0.00  0.00    +0.000 A 
ATOM     11  C   UNL     1       5.566   4.003  17.086  0.00  0.00    +0.000 A 
ATOM     12  C   UNL     1       6.084   4.444  15.865  0.00  0.00    +0.000 A 
ATOM     13  C   UNL     1       5.699   5.676  15.336  0.00  0.00    +0.000 A 
ATOM     14  C   UNL     1       4.794   6.483  16.025  0.00  0.00    +0.000 A 
ATOM     15  C   UNL     1       4.268   6.056  17.254  0.00  0.00    +0.000 A 
ATOM     16  C   UNL     1       3.381   6.840  17.979  0.00  0.00    +0.000 A 
ATOM     17  N   UNL     1       2.911   8.076  17.689  0.00  0.00    +0.000 NA
ATOM     18  C   UNL     1       2.124   8.397  18.746  0.00  0.00    +0.000 A 
ATOM     19  C   UNL     1       1.446   9.601  18.938  0.00  0.00    +0.000 A 
ENDROOT
TORSDOF 0
ENDMDL
MODEL 2
REMARK VINA RESULT:      -7.6      1.454      3.429
REMARK  Name = 
REMARK  2 active torsions:
REMARK  status: ('A' for Active; 'I' for Inactive)
REMARK    1  A    between atoms: C_1  and  C_2
REMARK    2  A    between atoms: N_8  and  C_9
REMARK                            x       y       z     vdW  Elec       q    Type
REMARK                         _______ _______ _______ _____ _____    ______ ____
ROOT
ATOM      1  C   UNL     1      -0.022  11.635  19.722  0.00  0.00    +0.000 C 
ATOM      2  C   UNL     1       0.762  10.395  19.405  0.00  0.00    +0.000 A 
ATOM      3  C   UNL     1       1.504  10.301  18.199  0.00  0.00    +0.000 A 
ATOM      4  C   UNL     1       2.209   9.127  17.879  0.00  0.00    +0.000 A 
ATOM      5  C   UNL     1       2.149   8.070  18.781  0.00  0.00    +0.000 A 
ATOM      6  C   UNL     1       2.677   6.809  18.731  0.00  0.00    +0.000 A 
ATOM      7  C   UNL     1       3.431   6.130  17.792  0.00  0.00    +0.000 A 
ATOM      8  N   UNL     1       3.766   4.818  18.026  0.00  0.00    +0.000 N 
ATOM      9  C   UNL     1       4.539   4.118  16.988  0.00  0.00    +0.000 C 
ATOM     10  C   UNL     1       3.374   4.166  19.196  0.00  0.00    +0.000 A 
ATOM     11  C   UNL     1       3.705   2.812  19.440  0.00  0.00    +0.000 A 
ATOM     12  C   UNL     1       3.298   2.174  20.614  0.00  0.00    +0.000 A 
ATOM     13  C   UNL     1       2.556   2.862  21.574  0.00  0.00    +0.000 A 
ATOM     14  C   UNL     1       2.209   4.197  21.368  0.00  0.00    +0.000 A 
ATOM     15  C   UNL     1       2.607   4.852  20.192  0.00  0.00    +0.000 A 
ATOM     16  C   UNL     1       2.262   6.173  19.942  0.00  0.00    +0.000 A 
ATOM     17  N   UNL     1       1.516   7.011  20.698  0.00  0.00    +0.000 NA
ATOM     18  C   UNL     1       1.449   8.155  19.971  0.00  0.00    +0.000 A 
ATOM     19  C   UNL     1       0.745   9.311  20.311  0.00  0.00    +0.000 A 
ENDROOT
TORSDOF 0
ENDMDL
MODEL 3
REMARK VINA RESULT:      -7.5      1.850      6.212
REMARK  Name = 
REMARK  2 active torsions:
REMARK  status: ('A' for Active; 'I' for Inactive)
REMARK    1  A    between atoms: C_1  and  C_2
REMARK    2  A    between atoms: N_8  and  C_9
REMARK                            x       y       z     vdW  Elec       q    Type
REMARK                         _______ _______ _______ _____ _____    ______ ____
ROOT
ATOM      1  C   UNL     1       7.281   4.471  13.420  0.00  0.00    +0.000 C 
ATOM      2  C   UNL     1       6.324   4.821  14.522  0.00  0.00    +0.000 A 
ATOM      3  C   UNL     1       6.003   6.177  14.794  0.00  0.00    +0.000 A 
ATOM      4  C   UNL     1       5.138   6.512  15.850  0.00  0.00    +0.000 A 
ATOM      5  C   UNL     1       4.614   5.473  16.613  0.00  0.00    +0.000 A 
ATOM      6  C   UNL     1       3.799   5.482  17.712  0.00  0.00    +0.000 A 
ATOM      7  C   UNL     1       3.222   6.491  18.460  0.00  0.00    +0.000 A 
ATOM      8  N   UNL     1       2.479   6.159  19.568  0.00  0.00    +0.000 N 
ATOM      9  C   UNL     1       1.909   7.262  20.359  0.00  0.00    +0.000 C 
ATOM     10  C   UNL     1       2.286   4.830  19.941  0.00  0.00    +0.000 A 
ATOM     11  C   UNL     1       1.532   4.480  21.086  0.00  0.00    +0.000 A 
ATOM     12  C   UNL     1       1.354   3.142  21.448  0.00  0.00    +0.000 A 
ATOM     13  C   UNL     1       1.918   2.120  20.684  0.00  0.00    +0.000 A 
ATOM     14  C   UNL     1       2.669   2.426  19.550  0.00  0.00    +0.000 A 
ATOM     15  C   UNL     1       2.860   3.764  19.174  0.00  0.00    +0.000 A 
ATOM     16  C   UNL     1       3.619   4.109  18.064  0.00  0.00    +0.000 A 
ATOM     17  N   UNL     1       4.292   3.298  17.214  0.00  0.00    +0.000 NA
ATOM     18  C   UNL     1       4.899   4.146  16.346  0.00  0.00    +0.000 A 
ATOM     19  C   UNL     1       5.753   3.790  15.302  0.00  0.00    +0.000 A 
ENDROOT
TORSDOF 0
ENDMDL
MODEL 4
REMARK VINA RESULT:      -7.3      1.899      7.191
REMARK  Name = 
REMARK  2 active torsions:
REMARK  status: ('A' for Active; 'I' for Inactive)
REMARK    1  A    between atoms: C_1  and  C_2
REMARK    2  A    between atoms: N_8  and  C_9
REMARK                            x       y       z     vdW  Elec       q    Type
REMARK                         _______ _______ _______ _____ _____    ______ ____
ROOT
ATOM      1  C   UNL     1       4.543   4.441  18.478  0.00  0.00    +0.000 C 
ATOM      2  C   UNL     1       3.715   5.688  18.575  0.00  0.00    +0.000 A 
ATOM      3  C   UNL     1       3.687   6.620  17.505  0.00  0.00    +0.000 A 
ATOM      4  C   UNL     1       2.944   7.809  17.606  0.00  0.00    +0.000 A 
ATOM      5  C   UNL     1       2.243   8.036  18.786  0.00  0.00    +0.000 A 
ATOM      6  C   UNL     1       1.484   9.098  19.195  0.00  0.00    +0.000 A 
ATOM      7  C   UNL     1       1.150  10.307  18.616  0.00  0.00    +0.000 A 
ATOM      8  N   UNL     1       0.391  11.203  19.331  0.00  0.00    +0.000 N 
ATOM      9  C   UNL     1       0.085  12.495  18.694  0.00  0.00    +0.000 C 
ATOM     10  C   UNL     1      -0.059  10.909  20.618  0.00  0.00    +0.000 A 
ATOM     11  C   UNL     1      -0.830  11.831  21.365  0.00  0.00    +0.000 A 
ATOM     12  C   UNL     1      -1.267  11.521  22.656  0.00  0.00    +0.000 A 
ATOM     13  C   UNL     1      -0.950  10.293  23.236  0.00  0.00    +0.000 A 
ATOM     14  C   UNL     1      -0.189   9.360  22.531  0.00  0.00    +0.000 A 
ATOM     15  C   UNL     1       0.260   9.657  21.235  0.00  0.00    +0.000 A 
ATOM     16  C   UNL     1       1.037   8.762  20.511  0.00  0.00    +0.000 A 
ATOM     17  N   UNL     1       1.502   7.548  20.886  0.00  0.00    +0.000 NA
ATOM     18  C   UNL     1       2.241   7.127  19.829  0.00  0.00    +0.000 A 
ATOM     19  C   UNL     1       2.970   5.940  19.749  0.00  0.00    +0.000 A 
ENDROOT
TORSDOF 0
ENDMDL
MODEL 5
REMARK VINA RESULT:      -7.1      1.160      5.847
REMARK  Name = 
REMARK  2 active torsions:
REMARK  status: ('A' for Active; 'I' for Inactive)
REMARK    1  A    between atoms: C_1  and  C_2
REMARK    2  A    between atoms: N_8  and  C_9
REMARK                            x       y       z     vdW  Elec       q    Type
REMARK                         _______ _______ _______ _____ _____    ______ ____
ROOT
ATOM      1  C   UNL     1       6.976   4.802  13.485  0.00  0.00    +0.000 C 
ATOM      2  C   UNL     1       6.219   4.834  14.780  0.00  0.00    +0.000 A 
ATOM      3  C   UNL     1       6.146   3.677  15.600  0.00  0.00    +0.000 A 
ATOM      4  C   UNL     1       5.406   3.690  16.795  0.00  0.00    +0.000 A 
ATOM      5  C   UNL     1       4.753   4.869  17.139  0.00  0.00    +0.000 A 
ATOM      6  C   UNL     1       3.934   5.174  18.193  0.00  0.00    +0.000 A 
ATOM      7  C   UNL     1       3.454   4.446  19.265  0.00  0.00    +0.000 A 
ATOM      8  N   UNL     1       2.582   5.046  20.143  0.00  0.00    +0.000 N 
ATOM      9  C   UNL     1       2.066   4.229  21.253  0.00  0.00    +0.000 C 
ATOM     10  C   UNL     1       2.187   6.373  19.981  0.00  0.00    +0.000 A 
ATOM     11  C   UNL     1       1.282   6.995  20.873  0.00  0.00    +0.000 A 
ATOM     12  C   UNL     1       0.892   8.325  20.690  0.00  0.00    +0.000 A 
ATOM     13  C   UNL     1       1.391   9.069  19.621  0.00  0.00    +0.000 A 
ATOM     14  C   UNL     1       2.284   8.490  18.720  0.00  0.00    +0.000 A 
ATOM     15  C   UNL     1       2.682   7.154  18.887  0.00  0.00    +0.000 A 
ATOM     16  C   UNL     1       3.553   6.537  17.998  0.00  0.00    +0.000 A 
ATOM     17  N   UNL     1       4.117   7.042  16.877  0.00  0.00    +0.000 NA
ATOM     18  C   UNL     1       4.833   6.011  16.363  0.00  0.00    +0.000 A 
ATOM     19  C   UNL     1       5.564   6.022  15.175  0.00  0.00    +0.000 A 
ENDROOT
TORSDOF 0
ENDMDL
MODEL 6
REMARK VINA RESULT:      -7.0      1.344      1.968
REMARK  Name = 
REMARK  2 active torsions:
REMARK  status: ('A' for Active; 'I' for Inactive)
REMARK    1  A    between atoms: C_1  and  C_2
REMARK    2  A    between atoms: N_8  and  C_9
REMARK                            x       y       z     vdW  Elec       q    Type
REMARK                         _______ _______ _______ _____ _____    ______ ____
ROOT
ATOM      1  C   UNL     1       0.961  12.373  18.907  0.00  0.00    +0.000 C 
ATOM      2  C   UNL     1       1.136  10.914  19.212  0.00  0.00    +0.000 A 
ATOM      3  C   UNL     1       0.641  10.368  20.425  0.00  0.00    +0.000 A 
ATOM      4  C   UNL     1       0.836   9.010  20.733  0.00  0.00    +0.000 A 
ATOM      5  C   UNL     1       1.527   8.230  19.812  0.00  0.00    +0.000 A 
ATOM      6  C   UNL     1       1.909   6.916  19.847  0.00  0.00    +0.000 A 
ATOM      7  C   UNL     1       1.767   5.909  20.784  0.00  0.00    +0.000 A 
ATOM      8  N   UNL     1       2.325   4.679  20.531  0.00  0.00    +0.000 N 
ATOM      9  C   UNL     1       2.182   3.642  21.566  0.00  0.00    +0.000 C 
ATOM     10  C   UNL     1       3.015   4.424  19.346  0.00  0.00    +0.000 A 
ATOM     11  C   UNL     1       3.602   3.164  19.084  0.00  0.00    +0.000 A 
ATOM     12  C   UNL     1       4.296   2.929  17.893  0.00  0.00    +0.000 A 
ATOM     13  C   UNL     1       4.423   3.936  16.936  0.00  0.00    +0.000 A 
ATOM     14  C   UNL     1       3.860   5.191  17.161  0.00  0.00    +0.000 A 
ATOM     15  C   UNL     1       3.163   5.445  18.353  0.00  0.00    +0.000 A 
ATOM     16  C   UNL     1       2.607   6.688  18.621  0.00  0.00    +0.000 A 
ATOM     17  N   UNL     1       2.647   7.814  17.870  0.00  0.00    +0.000 NA
ATOM     18  C   UNL     1       1.996   8.742  18.615  0.00  0.00    +0.000 A 
ATOM     19  C   UNL     1       1.811  10.085  18.288  0.00  0.00    +0.000 A 
ENDROOT
TORSDOF 0
ENDMDL
MODEL 7
REMARK VINA RESULT:      -6.8      1.967      6.117
REMARK  Name = 
REMARK  2 active torsions:
REMARK  status: ('A' for Active; 'I' for Inactive)
REMARK    1  A    between atoms: C_1  and  C_2
REMARK    2  A    between atoms: N_8  and  C_9
REMARK                            x       y       z     vdW  Elec       q    Type
REMARK                         _______ _______ _______ _____ _____    ______ ____
ROOT
ATOM      1  C   UNL     1       7.760   5.474  13.128  0.00  0.00    +0.000 C 
ATOM      2  C   UNL     1       6.824   5.002  14.202  0.00  0.00    +0.000 A 
ATOM      3  C   UNL     1       6.443   3.636  14.275  0.00  0.00    +0.000 A 
ATOM      4  C   UNL     1       5.537   3.195  15.255  0.00  0.00    +0.000 A 
ATOM      5  C   UNL     1       5.032   4.141  16.142  0.00  0.00    +0.000 A 
ATOM      6  C   UNL     1       4.117   4.031  17.154  0.00  0.00    +0.000 A 
ATOM      7  C   UNL     1       3.367   2.981  17.648  0.00  0.00    +0.000 A 
ATOM      8  N   UNL     1       2.475   3.219  18.666  0.00  0.00    +0.000 N 
ATOM      9  C   UNL     1       1.669   2.083  19.143  0.00  0.00    +0.000 C 
ATOM     10  C   UNL     1       2.324   4.491  19.217  0.00  0.00    +0.000 A 
ATOM     11  C   UNL     1       1.400   4.747  20.258  0.00  0.00    +0.000 A 
ATOM     12  C   UNL     1       1.258   6.030  20.793  0.00  0.00    +0.000 A 
ATOM     13  C   UNL     1       2.029   7.089  20.311  0.00  0.00    +0.000 A 
ATOM     14  C   UNL     1       2.948   6.875  19.285  0.00  0.00    +0.000 A 
ATOM     15  C   UNL     1       3.101   5.594  18.734  0.00  0.00    +0.000 A 
ATOM     16  C   UNL     1       3.991   5.347  17.697  0.00  0.00    +0.000 A 
ATOM     17  N   UNL     1       4.795   6.219  17.047  0.00  0.00    +0.000 NA
ATOM     18  C   UNL     1       5.411   5.470  16.098  0.00  0.00    +0.000 A 
ATOM     19  C   UNL     1       6.311   5.929  15.136  0.00  0.00    +0.000 A 
ENDROOT
TORSDOF 0
ENDMDL
MODEL 8
REMARK VINA RESULT:      -6.8      2.106      5.860
REMARK  Name = 
REMARK  2 active torsions:
REMARK  status: ('A' for Active; 'I' for Inactive)
REMARK    1  A    between atoms: C_1  and  C_2
REMARK    2  A    between atoms: N_8  and  C_9
REMARK                            x       y       z     vdW  Elec       q    Type
REMARK                         _______ _______ _______ _____ _____    ______ ____
ROOT
ATOM      1  C   UNL     1       3.567   1.603  18.570  0.00  0.00    +0.000 C 
ATOM      2  C   UNL     1       3.096   2.908  19.140  0.00  0.00    +0.000 A 
ATOM      3  C   UNL     1       2.513   2.961  20.432  0.00  0.00    +0.000 A 
ATOM      4  C   UNL     1       2.034   4.175  20.955  0.00  0.00    +0.000 A 
ATOM      5  C   UNL     1       2.153   5.313  20.163  0.00  0.00    +0.000 A 
ATOM      6  C   UNL     1       1.748   6.604  20.370  0.00  0.00    +0.000 A 
ATOM      7  C   UNL     1       1.080   7.237  21.401  0.00  0.00    +0.000 A 
ATOM      8  N   UNL     1       0.768   8.570  21.275  0.00  0.00    +0.000 N 
ATOM      9  C   UNL     1       0.026   9.201  22.378  0.00  0.00    +0.000 C 
ATOM     10  C   UNL     1       1.125   9.295  20.139  0.00  0.00    +0.000 A 
ATOM     11  C   UNL     1       0.798  10.664  19.996  0.00  0.00    +0.000 A 
ATOM     12  C   UNL     1       1.158  11.373  18.847  0.00  0.00    +0.000 A 
ATOM     13  C   UNL     1       1.852  10.743  17.814  0.00  0.00    +0.000 A 
ATOM     14  C   UNL     1       2.190   9.393  17.917  0.00  0.00    +0.000 A 
ATOM     15  C   UNL     1       1.832   8.666  19.063  0.00  0.00    +0.000 A 
ATOM     16  C   UNL     1       2.132   7.317  19.193  0.00  0.00    +0.000 A 
ATOM     17  N   UNL     1       2.747   6.497  18.309  0.00  0.00    +0.000 NA
ATOM     18  C   UNL     1       2.740   5.282  18.911  0.00  0.00    +0.000 A 
ATOM     19  C   UNL     1       3.224   4.089  18.374  0.00  0.00    +0.000 A 
ENDROOT
TORSDOF 0
ENDMDL
MODEL 9
REMARK VINA RESULT:      -6.8      1.812      6.791
REMARK  Name = 
REMARK  2 active torsions:
REMARK  status: ('A' for Active; 'I' for Inactive)
REMARK    1  A    between atoms: C_1  and  C_2
REMARK    2  A    between atoms: N_8  and  C_9
REMARK                            x       y       z     vdW  Elec       q    Type
REMARK                         _______ _______ _______ _____ _____    ______ ____
ROOT
ATOM      1  C   UNL     1       4.022   2.583  19.129  0.00  0.00    +0.000 C 
ATOM      2  C   UNL     1       3.481   3.981  19.069  0.00  0.00    +0.000 A 
ATOM      3  C   UNL     1       3.761   4.815  17.955  0.00  0.00    +0.000 A 
ATOM      4  C   UNL     1       3.289   6.139  17.912  0.00  0.00    +0.000 A 
ATOM      5  C   UNL     1       2.545   6.596  18.994  0.00  0.00    +0.000 A 
ATOM      6  C   UNL     1       2.000   7.823  19.262  0.00  0.00    +0.000 A 
ATOM      7  C   UNL     1       1.997   9.029  18.587  0.00  0.00    +0.000 A 
ATOM      8  N   UNL     1       1.387  10.116  19.167  0.00  0.00    +0.000 N 
ATOM      9  C   UNL     1       1.433  11.392  18.435  0.00  0.00    +0.000 C 
ATOM     10  C   UNL     1       0.762  10.021  20.410  0.00  0.00    +0.000 A 
ATOM     11  C   UNL     1       0.143  11.138  21.019  0.00  0.00    +0.000 A 
ATOM     12  C   UNL     1      -0.473  11.025  22.269  0.00  0.00    +0.000 A 
ATOM     13  C   UNL     1      -0.490   9.804  22.943  0.00  0.00    +0.000 A 
ATOM     14  C   UNL     1       0.113   8.682  22.375  0.00  0.00    +0.000 A 
ATOM     15  C   UNL     1       0.738   8.779  21.123  0.00  0.00    +0.000 A 
ATOM     16  C   UNL     1       1.367   7.689  20.536  0.00  0.00    +0.000 A 
ATOM     17  N   UNL     1       1.516   6.435  21.022  0.00  0.00    +0.000 NA
ATOM     18  C   UNL     1       2.244   5.789  20.077  0.00  0.00    +0.000 A 
ATOM     19  C   UNL     1       2.699   4.472  20.139  0.00  0.00    +0.000 A 
ENDROOT
TORSDOF 0
ENDMDL
