MODEL 1
REMARK VINA RESULT:      -7.6      0.000      0.000
REMARK  Name = 
REMARK  5 active torsions:
REMARK  status: ('A' for Active; 'I' for Inactive)
REMARK    1  A    between atoms: C_1  and  N_2
REMARK    2  A    between atoms: C_6  and  N_7
REMARK    3  A    between atoms: N_7  and  N_8
REMARK    4  A    between atoms: C_9  and  C_11
REMARK    5  A    between atoms: N_19  and  C_20
REMARK                            x       y       z     vdW  Elec       q    Type
REMARK                         _______ _______ _______ _____ _____    ______ ____
ROOT
ATOM      1  C   UNL     1       5.187   4.236  14.843  0.00  0.00    +0.000 C 
ATOM      2  N   UNL     1       5.708   4.605  16.162  0.00  0.00    +0.000 N 
ATOM      3  C   UNL     1       6.858   5.389  16.136  0.00  0.00    +0.000 C 
ATOM      4  O   UNL     1       7.567   5.545  15.144  0.00  0.00    +0.000 OA
ATOM      5  C   UNL     1       7.149   6.091  17.388  0.00  0.00    +0.000 C 
ATOM      6  C   UNL     1       7.797   7.265  17.310  0.00  0.00    +0.000 C 
ATOM      7  C   UNL     1       6.536   5.665  18.649  0.00  0.00    +0.000 C 
ATOM      8  O   UNL     1       7.032   5.945  19.737  0.00  0.00    +0.000 OA
ATOM      9  N   UNL     1       5.349   4.960  18.488  0.00  0.00    +0.000 N 
ATOM     10  C   UNL     1       4.446   5.011  19.641  0.00  0.00    +0.000 C 
ATOM     11  C   UNL     1       4.972   4.278  17.320  0.00  0.00    +0.000 C 
ATOM     12  S   UNL     1       3.709   3.144  17.304  0.00  0.00    +0.000 S 
ENDROOT
BRANCH   6  13
ATOM     13  N   UNL     1       8.075   8.199  18.296  0.00  0.00    +0.000 N 
ATOM     14  H   UNL     1       7.236   8.320  18.900  0.00  0.00    +0.000 HD
BRANCH  13  15
ATOM     15  N   UNL     1       8.396   9.516  17.847  0.00  0.00    +0.000 N 
ATOM     16  C   UNL     1       9.114  10.290  18.749  0.00  0.00    +0.000 C 
ATOM     17  O   UNL     1       9.372   9.929  19.890  0.00  0.00    +0.000 OA
ATOM     18  H   UNL     1       8.499   9.635  16.845  0.00  0.00    +0.000 HD
BRANCH  16  19
ATOM     19  C   UNL     1       9.594  11.607  18.265  0.00  0.00    +0.000 A 
ATOM     20  C   UNL     1       8.808  12.757  18.342  0.00  0.00    +0.000 A 
ATOM     21  C   UNL     1       9.370  13.945  17.912  0.00  0.00    +0.000 A 
ATOM     22  N   UNL     1      10.623  14.050  17.420  0.00  0.00    +0.000 NA
ATOM     23  C   UNL     1      11.364  12.922  17.371  0.00  0.00    +0.000 A 
ATOM     24  C   UNL     1      10.899  11.687  17.782  0.00  0.00    +0.000 A 
ENDBRANCH  16  19
ENDBRANCH  13  15
ENDBRANCH   6  13
TORSDOF 3
ENDMDL
MODEL 2
REMARK VINA RESULT:      -7.5      0.181      1.008
REMARK  Name = 
REMARK  5 active torsions:
REMARK  status: ('A' for Active; 'I' for Inactive)
REMARK    1  A    between atoms: C_1  and  N_2
REMARK    2  A    between atoms: C_6  and  N_7
REMARK    3  A    between atoms: N_7  and  N_8
REMARK    4  A    between atoms: C_9  and  C_11
REMARK    5  A    between atoms: N_19  and  C_20
REMARK                            x       y       z     vdW  Elec       q    Type
REMARK                         _______ _______ _______ _____ _____    ______ ____
ROOT
ATOM      1  C   UNL     1       5.197   4.352  14.889  0.00  0.00    +0.000 C 
ATOM      2  N   UNL     1       5.737   4.709  16.203  0.00  0.00    +0.000 N 
ATOM      3  C   UNL     1       6.893   5.484  16.168  0.00  0.00    +0.000 C 
ATOM      4  O   UNL     1       7.591   5.642  15.168  0.00  0.00    +0.000 OA
ATOM      5  C   UNL     1       7.205   6.175  17.421  0.00  0.00    +0.000 C 
ATOM      6  C   UNL     1       7.861   7.344  17.342  0.00  0.00    +0.000 C 
ATOM      7  C   UNL     1       6.605   5.745  18.687  0.00  0.00    +0.000 C 
ATOM      8  O   UNL     1       7.118   6.014  19.770  0.00  0.00    +0.000 OA
ATOM      9  N   UNL     1       5.411   5.050  18.536  0.00  0.00    +0.000 N 
ATOM     10  C   UNL     1       4.523   5.100  19.701  0.00  0.00    +0.000 C 
ATOM     11  C   UNL     1       5.014   4.379  17.368  0.00  0.00    +0.000 C 
ATOM     12  S   UNL     1       3.742   3.254  17.361  0.00  0.00    +0.000 S 
ENDROOT
BRANCH   6  13
ATOM     13  N   UNL     1       8.159   8.270  18.331  0.00  0.00    +0.000 N 
ATOM     14  H   UNL     1       7.313   8.431  18.916  0.00  0.00    +0.000 HD
BRANCH  13  15
ATOM     15  N   UNL     1       8.547   9.569  17.885  0.00  0.00    +0.000 N 
ATOM     16  C   UNL     1       9.140  10.374  18.849  0.00  0.00    +0.000 C 
ATOM     17  O   UNL     1       9.237  10.053  20.027  0.00  0.00    +0.000 OA
ATOM     18  H   UNL     1       8.788   9.653  16.903  0.00  0.00    +0.000 HD
BRANCH  16  19
ATOM     19  C   UNL     1       9.691  11.672  18.390  0.00  0.00    +0.000 A 
ATOM     20  C   UNL     1      10.840  11.754  17.604  0.00  0.00    +0.000 A 
ATOM     21  C   UNL     1      11.239  13.009  17.184  0.00  0.00    +0.000 A 
ATOM     22  N   UNL     1      10.586  14.150  17.497  0.00  0.00    +0.000 NA
ATOM     23  C   UNL     1       9.469  14.036  18.247  0.00  0.00    +0.000 A 
ATOM     24  C   UNL     1       8.982  12.829  18.711  0.00  0.00    +0.000 A 
ENDBRANCH  16  19
ENDBRANCH  13  15
ENDBRANCH   6  13
TORSDOF 3
ENDMDL
MODEL 3
REMARK VINA RESULT:      -7.4      5.100      6.857
REMARK  Name = 
REMARK  5 active torsions:
REMARK  status: ('A' for Active; 'I' for Inactive)
REMARK    1  A    between atoms: C_1  and  N_2
REMARK    2  A    between atoms: C_6  and  N_7
REMARK    3  A    between atoms: N_7  and  N_8
REMARK    4  A    between atoms: C_9  and  C_11
REMARK    5  A    between atoms: N_19  and  C_20
REMARK                            x       y       z     vdW  Elec       q    Type
REMARK                         _______ _______ _______ _____ _____    ______ ____
ROOT
ATOM      1  C   UNL     1       1.236   6.087  21.000  0.00  0.00    +0.000 C 
ATOM      2  N   UNL     1       2.114   5.427  20.030  0.00  0.00    +0.000 N 
ATOM      3  C   UNL     1       2.660   6.273  19.069  0.00  0.00    +0.000 C 
ATOM      4  O   UNL     1       2.257   7.412  18.839  0.00  0.00    +0.000 OA
ATOM      5  C   UNL     1       3.825   5.731  18.367  0.00  0.00    +0.000 C 
ATOM      6  C   UNL     1       4.747   6.601  17.922  0.00  0.00    +0.000 C 
ATOM      7  C   UNL     1       4.105   4.292  18.375  0.00  0.00    +0.000 C 
ATOM      8  O   UNL     1       4.801   3.765  17.511  0.00  0.00    +0.000 OA
ATOM      9  N   UNL     1       3.546   3.617  19.452  0.00  0.00    +0.000 N 
ATOM     10  C   UNL     1       4.227   2.371  19.813  0.00  0.00    +0.000 C 
ATOM     11  C   UNL     1       2.446   4.067  20.201  0.00  0.00    +0.000 C 
ATOM     12  S   UNL     1       1.585   3.045  21.247  0.00  0.00    +0.000 S 
ENDROOT
BRANCH   6  13
ATOM     13  N   UNL     1       5.994   6.371  17.361  0.00  0.00    +0.000 N 
ATOM     14  H   UNL     1       6.570   7.234  17.442  0.00  0.00    +0.000 HD
BRANCH  13  15
ATOM     15  N   UNL     1       6.013   6.048  15.971  0.00  0.00    +0.000 N 
ATOM     16  C   UNL     1       6.966   5.112  15.593  0.00  0.00    +0.000 C 
ATOM     17  O   UNL     1       7.809   4.662  16.360  0.00  0.00    +0.000 OA
ATOM     18  H   UNL     1       5.130   6.134  15.479  0.00  0.00    +0.000 HD
BRANCH  16  19
ATOM     19  C   UNL     1       6.920   4.640  14.188  0.00  0.00    +0.000 A 
ATOM     20  C   UNL     1       6.050   3.632  13.772  0.00  0.00    +0.000 A 
ATOM     21  C   UNL     1       6.048   3.303  12.429  0.00  0.00    +0.000 A 
ATOM     22  N   UNL     1       6.840   3.895  11.509  0.00  0.00    +0.000 NA
ATOM     23  C   UNL     1       7.661   4.877  11.940  0.00  0.00    +0.000 A 
ATOM     24  C   UNL     1       7.734   5.285  13.258  0.00  0.00    +0.000 A 
ENDBRANCH  16  19
ENDBRANCH  13  15
ENDBRANCH   6  13
TORSDOF 3
ENDMDL
MODEL 4
REMARK VINA RESULT:      -7.4      6.565      8.516
REMARK  Name = 
REMARK  5 active torsions:
REMARK  status: ('A' for Active; 'I' for Inactive)
REMARK    1  A    between atoms: C_1  and  N_2
REMARK    2  A    between atoms: C_6  and  N_7
REMARK    3  A    between atoms: N_7  and  N_8
REMARK    4  A    between atoms: C_9  and  C_11
REMARK    5  A    between atoms: N_19  and  C_20
REMARK                            x       y       z     vdW  Elec       q    Type
REMARK                         _______ _______ _______ _____ _____    ______ ____
ROOT
ATOM      1  C   UNL     1       4.204   4.379  16.663  0.00  0.00    +0.000 C 
ATOM      2  N   UNL     1       3.682   5.207  17.754  0.00  0.00    +0.000 N 
ATOM      3  C   UNL     1       3.767   6.579  17.535  0.00  0.00    +0.000 C 
ATOM      4  O   UNL     1       4.458   7.100  16.662  0.00  0.00    +0.000 OA
ATOM      5  C   UNL     1       2.905   7.391  18.398  0.00  0.00    +0.000 C 
ATOM      6  C   UNL     1       2.450   8.556  17.907  0.00  0.00    +0.000 C 
ATOM      7  C   UNL     1       2.351   6.842  19.638  0.00  0.00    +0.000 C 
ATOM      8  O   UNL     1       1.976   7.567  20.555  0.00  0.00    +0.000 OA
ATOM      9  N   UNL     1       2.267   5.455  19.650  0.00  0.00    +0.000 N 
ATOM     10  C   UNL     1       1.252   4.912  20.558  0.00  0.00    +0.000 C 
ATOM     11  C   UNL     1       3.032   4.595  18.845  0.00  0.00    +0.000 C 
ATOM     12  S   UNL     1       3.155   2.932  19.161  0.00  0.00    +0.000 S 
ENDROOT
BRANCH   6  13
ATOM     13  N   UNL     1       1.523   9.444  18.431  0.00  0.00    +0.000 N 
ATOM     14  H   UNL     1       1.213   9.105  19.365  0.00  0.00    +0.000 HD
BRANCH  13  15
ATOM     15  N   UNL     1       0.319   9.614  17.685  0.00  0.00    +0.000 N 
ATOM     16  C   UNL     1      -0.747  10.152  18.394  0.00  0.00    +0.000 C 
ATOM     17  O   UNL     1      -0.711  10.372  19.599  0.00  0.00    +0.000 OA
ATOM     18  H   UNL     1       0.427   9.774  16.689  0.00  0.00    +0.000 HD
BRANCH  16  19
ATOM     19  C   UNL     1      -1.968  10.481  17.620  0.00  0.00    +0.000 A 
ATOM     20  C   UNL     1      -2.188   9.984  16.335  0.00  0.00    +0.000 A 
ATOM     21  C   UNL     1      -3.384  10.308  15.720  0.00  0.00    +0.000 A 
ATOM     22  N   UNL     1      -4.337  11.078  16.289  0.00  0.00    +0.000 NA
ATOM     23  C   UNL     1      -4.101  11.533  17.538  0.00  0.00    +0.000 A 
ATOM     24  C   UNL     1      -2.943  11.260  18.241  0.00  0.00    +0.000 A 
ENDBRANCH  16  19
ENDBRANCH  13  15
ENDBRANCH   6  13
TORSDOF 3
ENDMDL
MODEL 5
REMARK VINA RESULT:      -7.4      6.512      8.437
REMARK  Name = 
REMARK  5 active torsions:
REMARK  status: ('A' for Active; 'I' for Inactive)
REMARK    1  A    between atoms: C_1  and  N_2
REMARK    2  A    between atoms: C_6  and  N_7
REMARK    3  A    between atoms: N_7  and  N_8
REMARK    4  A    between atoms: C_9  and  C_11
REMARK    5  A    between atoms: N_19  and  C_20
REMARK                            x       y       z     vdW  Elec       q    Type
REMARK                         _______ _______ _______ _____ _____    ______ ____
ROOT
ATOM      1  C   UNL     1       4.273   4.331  16.673  0.00  0.00    +0.000 C 
ATOM      2  N   UNL     1       3.735   5.149  17.764  0.00  0.00    +0.000 N 
ATOM      3  C   UNL     1       3.801   6.523  17.549  0.00  0.00    +0.000 C 
ATOM      4  O   UNL     1       4.489   7.055  16.680  0.00  0.00    +0.000 OA
ATOM      5  C   UNL     1       2.925   7.320  18.410  0.00  0.00    +0.000 C 
ATOM      6  C   UNL     1       2.456   8.480  17.921  0.00  0.00    +0.000 C 
ATOM      7  C   UNL     1       2.373   6.760  19.647  0.00  0.00    +0.000 C 
ATOM      8  O   UNL     1       1.984   7.477  20.564  0.00  0.00    +0.000 OA
ATOM      9  N   UNL     1       2.308   5.372  19.655  0.00  0.00    +0.000 N 
ATOM     10  C   UNL     1       1.298   4.813  20.557  0.00  0.00    +0.000 C 
ATOM     11  C   UNL     1       3.089   4.525  18.851  0.00  0.00    +0.000 C 
ATOM     12  S   UNL     1       3.234   2.863  19.164  0.00  0.00    +0.000 S 
ENDROOT
BRANCH   6  13
ATOM     13  N   UNL     1       1.514   9.354  18.443  0.00  0.00    +0.000 N 
ATOM     14  H   UNL     1       1.205   9.009  19.375  0.00  0.00    +0.000 HD
BRANCH  13  15
ATOM     15  N   UNL     1       0.310   9.508  17.692  0.00  0.00    +0.000 N 
ATOM     16  C   UNL     1      -0.750  10.079  18.384  0.00  0.00    +0.000 C 
ATOM     17  O   UNL     1      -0.711  10.341  19.580  0.00  0.00    +0.000 OA
ATOM     18  H   UNL     1       0.418   9.632  16.691  0.00  0.00    +0.000 HD
BRANCH  16  19
ATOM     19  C   UNL     1      -1.970  10.391  17.600  0.00  0.00    +0.000 A 
ATOM     20  C   UNL     1      -2.953  11.260  18.072  0.00  0.00    +0.000 A 
ATOM     21  C   UNL     1      -4.025  11.526  17.240  0.00  0.00    +0.000 A 
ATOM     22  N   UNL     1      -4.172  10.989  16.009  0.00  0.00    +0.000 NA
ATOM     23  C   UNL     1      -3.197  10.163  15.574  0.00  0.00    +0.000 A 
ATOM     24  C   UNL     1      -2.082   9.839  16.325  0.00  0.00    +0.000 A 
ENDBRANCH  16  19
ENDBRANCH  13  15
ENDBRANCH   6  13
TORSDOF 3
ENDMDL
MODEL 6
REMARK VINA RESULT:      -7.3      5.873      8.661
REMARK  Name = 
REMARK  5 active torsions:
REMARK  status: ('A' for Active; 'I' for Inactive)
REMARK    1  A    between atoms: C_1  and  N_2
REMARK    2  A    between atoms: C_6  and  N_7
REMARK    3  A    between atoms: N_7  and  N_8
REMARK    4  A    between atoms: C_9  and  C_11
REMARK    5  A    between atoms: N_19  and  C_20
REMARK                            x       y       z     vdW  Elec       q    Type
REMARK                         _______ _______ _______ _____ _____    ______ ____
ROOT
ATOM      1  C   UNL     1      -1.156  11.322  22.866  0.00  0.00    +0.000 C 
ATOM      2  N   UNL     1      -0.402  10.777  21.734  0.00  0.00    +0.000 N 
ATOM      3  C   UNL     1       0.576   9.848  22.077  0.00  0.00    +0.000 C 
ATOM      4  O   UNL     1       0.998   9.677  23.219  0.00  0.00    +0.000 OA
ATOM      5  C   UNL     1       1.043   9.013  20.969  0.00  0.00    +0.000 C 
ATOM      6  C   UNL     1       1.466   7.771  21.258  0.00  0.00    +0.000 C 
ATOM      7  C   UNL     1       0.818   9.414  19.577  0.00  0.00    +0.000 C 
ATOM      8  O   UNL     1       1.508   8.980  18.660  0.00  0.00    +0.000 OA
ATOM      9  N   UNL     1      -0.251  10.286  19.410  0.00  0.00    +0.000 N 
ATOM     10  C   UNL     1      -0.853  10.267  18.074  0.00  0.00    +0.000 C 
ATOM     11  C   UNL     1      -0.784  11.108  20.417  0.00  0.00    +0.000 C 
ATOM     12  S   UNL     1      -1.825  12.402  20.069  0.00  0.00    +0.000 S 
ENDROOT
BRANCH   6  13
ATOM     13  N   UNL     1       1.822   6.729  20.414  0.00  0.00    +0.000 N 
ATOM     14  H   UNL     1       1.734   5.828  20.926  0.00  0.00    +0.000 HD
BRANCH  13  15
ATOM     15  N   UNL     1       3.163   6.742  19.924  0.00  0.00    +0.000 N 
ATOM     16  C   UNL     1       3.525   5.640  19.161  0.00  0.00    +0.000 C 
ATOM     17  O   UNL     1       2.799   4.668  18.996  0.00  0.00    +0.000 OA
ATOM     18  H   UNL     1       3.573   7.656  19.764  0.00  0.00    +0.000 HD
BRANCH  16  19
ATOM     19  C   UNL     1       4.858   5.686  18.512  0.00  0.00    +0.000 A 
ATOM     20  C   UNL     1       6.020   5.291  19.175  0.00  0.00    +0.000 A 
ATOM     21  C   UNL     1       7.204   5.321  18.462  0.00  0.00    +0.000 A 
ATOM     22  N   UNL     1       7.297   5.715  17.173  0.00  0.00    +0.000 NA
ATOM     23  C   UNL     1       6.153   6.079  16.555  0.00  0.00    +0.000 A 
ATOM     24  C   UNL     1       4.917   6.077  17.176  0.00  0.00    +0.000 A 
ENDBRANCH  16  19
ENDBRANCH  13  15
ENDBRANCH   6  13
TORSDOF 3
ENDMDL
MODEL 7
REMARK VINA RESULT:      -7.2      5.781      7.860
REMARK  Name = 
REMARK  5 active torsions:
REMARK  status: ('A' for Active; 'I' for Inactive)
REMARK    1  A    between atoms: C_1  and  N_2
REMARK    2  A    between atoms: C_6  and  N_7
REMARK    3  A    between atoms: N_7  and  N_8
REMARK    4  A    between atoms: C_9  and  C_11
REMARK    5  A    between atoms: N_19  and  C_20
REMARK                            x       y       z     vdW  Elec       q    Type
REMARK                         _______ _______ _______ _____ _____    ______ ____
ROOT
ATOM      1  C   UNL     1       3.308   2.360  18.065  0.00  0.00    +0.000 C 
ATOM      2  N   UNL     1       3.145   3.816  18.068  0.00  0.00    +0.000 N 
ATOM      3  C   UNL     1       2.164   4.291  18.933  0.00  0.00    +0.000 C 
ATOM      4  O   UNL     1       1.299   3.588  19.452  0.00  0.00    +0.000 OA
ATOM      5  C   UNL     1       2.264   5.718  19.249  0.00  0.00    +0.000 C 
ATOM      6  C   UNL     1       1.821   6.125  20.450  0.00  0.00    +0.000 C 
ATOM      7  C   UNL     1       3.047   6.622  18.402  0.00  0.00    +0.000 C 
ATOM      8  O   UNL     1       2.844   7.833  18.389  0.00  0.00    +0.000 OA
ATOM      9  N   UNL     1       4.038   5.985  17.665  0.00  0.00    +0.000 N 
ATOM     10  C   UNL     1       5.158   6.845  17.274  0.00  0.00    +0.000 C 
ATOM     11  C   UNL     1       4.041   4.620  17.333  0.00  0.00    +0.000 C 
ATOM     12  S   UNL     1       5.064   3.984  16.137  0.00  0.00    +0.000 S 
ENDROOT
BRANCH   6  13
ATOM     13  N   UNL     1       1.918   7.364  21.065  0.00  0.00    +0.000 N 
ATOM     14  H   UNL     1       1.866   7.239  22.097  0.00  0.00    +0.000 HD
BRANCH  13  15
ATOM     15  N   UNL     1       0.888   8.304  20.759  0.00  0.00    +0.000 N 
ATOM     16  C   UNL     1       0.783   9.374  21.637  0.00  0.00    +0.000 C 
ATOM     17  O   UNL     1       1.443   9.469  22.664  0.00  0.00    +0.000 OA
ATOM     18  H   UNL     1       0.643   8.396  19.779  0.00  0.00    +0.000 HD
BRANCH  16  19
ATOM     19  C   UNL     1      -0.174  10.447  21.271  0.00  0.00    +0.000 A 
ATOM     20  C   UNL     1      -0.623  10.626  19.963  0.00  0.00    +0.000 A 
ATOM     21  C   UNL     1      -1.556  11.622  19.738  0.00  0.00    +0.000 A 
ATOM     22  N   UNL     1      -2.045  12.427  20.707  0.00  0.00    +0.000 NA
ATOM     23  C   UNL     1      -1.600  12.220  21.965  0.00  0.00    +0.000 A 
ATOM     24  C   UNL     1      -0.676  11.247  22.296  0.00  0.00    +0.000 A 
ENDBRANCH  16  19
ENDBRANCH  13  15
ENDBRANCH   6  13
TORSDOF 3
ENDMDL
MODEL 8
REMARK VINA RESULT:      -7.1      6.057      8.146
REMARK  Name = 
REMARK  5 active torsions:
REMARK  status: ('A' for Active; 'I' for Inactive)
REMARK    1  A    between atoms: C_1  and  N_2
REMARK    2  A    between atoms: C_6  and  N_7
REMARK    3  A    between atoms: N_7  and  N_8
REMARK    4  A    between atoms: C_9  and  C_11
REMARK    5  A    between atoms: N_19  and  C_20
REMARK                            x       y       z     vdW  Elec       q    Type
REMARK                         _______ _______ _______ _____ _____    ______ ____
ROOT
ATOM      1  C   UNL     1       3.008   2.454  18.557  0.00  0.00    +0.000 C 
ATOM      2  N   UNL     1       2.886   3.909  18.441  0.00  0.00    +0.000 N 
ATOM      3  C   UNL     1       1.957   4.487  19.302  0.00  0.00    +0.000 C 
ATOM      4  O   UNL     1       1.096   3.858  19.915  0.00  0.00    +0.000 OA
ATOM      5  C   UNL     1       2.111   5.931  19.489  0.00  0.00    +0.000 C 
ATOM      6  C   UNL     1       1.732   6.451  20.668  0.00  0.00    +0.000 C 
ATOM      7  C   UNL     1       2.880   6.735  18.536  0.00  0.00    +0.000 C 
ATOM      8  O   UNL     1       2.710   7.946  18.427  0.00  0.00    +0.000 OA
ATOM      9  N   UNL     1       3.820   6.007  17.816  0.00  0.00    +0.000 N 
ATOM     10  C   UNL     1       4.945   6.796  17.307  0.00  0.00    +0.000 C 
ATOM     11  C   UNL     1       3.771   4.620  17.604  0.00  0.00    +0.000 C 
ATOM     12  S   UNL     1       4.721   3.852  16.425  0.00  0.00    +0.000 S 
ENDROOT
BRANCH   6  13
ATOM     13  N   UNL     1       1.890   7.735  21.170  0.00  0.00    +0.000 N 
ATOM     14  H   UNL     1       2.106   7.681  22.187  0.00  0.00    +0.000 HD
BRANCH  13  15
ATOM     15  N   UNL     1       0.752   8.592  21.083  0.00  0.00    +0.000 N 
ATOM     16  C   UNL     1       0.639   9.532  22.099  0.00  0.00    +0.000 C 
ATOM     17  O   UNL     1       1.389   9.571  23.066  0.00  0.00    +0.000 OA
ATOM     18  H   UNL     1       0.399   8.775  20.149  0.00  0.00    +0.000 HD
BRANCH  16  19
ATOM     19  C   UNL     1      -0.445  10.535  21.964  0.00  0.00    +0.000 A 
ATOM     20  C   UNL     1      -1.190  10.973  23.058  0.00  0.00    +0.000 A 
ATOM     21  C   UNL     1      -2.142  11.952  22.833  0.00  0.00    +0.000 A 
ATOM     22  N   UNL     1      -2.390  12.495  21.621  0.00  0.00    +0.000 NA
ATOM     23  C   UNL     1      -1.642  12.059  20.584  0.00  0.00    +0.000 A 
ATOM     24  C   UNL     1      -0.662  11.092  20.705  0.00  0.00    +0.000 A 
ENDBRANCH  16  19
ENDBRANCH  13  15
ENDBRANCH   6  13
TORSDOF 3
ENDMDL
MODEL 9
REMARK VINA RESULT:      -7.1      5.753      8.591
REMARK  Name = 
REMARK  5 active torsions:
REMARK  status: ('A' for Active; 'I' for Inactive)
REMARK    1  A    between atoms: C_1  and  N_2
REMARK    2  A    between atoms: C_6  and  N_7
REMARK    3  A    between atoms: N_7  and  N_8
REMARK    4  A    between atoms: C_9  and  C_11
REMARK    5  A    between atoms: N_19  and  C_20
REMARK                            x       y       z     vdW  Elec       q    Type
REMARK                         _______ _______ _______ _____ _____    ______ ____
ROOT
ATOM      1  C   UNL     1      -0.712  11.001  22.800  0.00  0.00    +0.000 C 
ATOM      2  N   UNL     1      -0.049  10.488  21.598  0.00  0.00    +0.000 N 
ATOM      3  C   UNL     1       0.922   9.520  21.836  0.00  0.00    +0.000 C 
ATOM      4  O   UNL     1       1.412   9.287  22.940  0.00  0.00    +0.000 OA
ATOM      5  C   UNL     1       1.292   8.723  20.664  0.00  0.00    +0.000 C 
ATOM      6  C   UNL     1       1.698   7.459  20.871  0.00  0.00    +0.000 C 
ATOM      7  C   UNL     1       0.990   9.193  19.310  0.00  0.00    +0.000 C 
ATOM      8  O   UNL     1       1.606   8.782  18.330  0.00  0.00    +0.000 OA
ATOM      9  N   UNL     1      -0.062  10.098  19.251  0.00  0.00    +0.000 N 
ATOM     10  C   UNL     1      -0.750  10.154  17.958  0.00  0.00    +0.000 C 
ATOM     11  C   UNL     1      -0.505  10.887  20.325  0.00  0.00    +0.000 C 
ATOM     12  S   UNL     1      -1.530  12.222  20.103  0.00  0.00    +0.000 S 
ENDROOT
BRANCH   6  13
ATOM     13  N   UNL     1       1.969   6.448  19.962  0.00  0.00    +0.000 N 
ATOM     14  H   UNL     1       1.618   5.544  20.340  0.00  0.00    +0.000 HD
BRANCH  13  15
ATOM     15  N   UNL     1       3.346   6.212  19.670  0.00  0.00    +0.000 N 
ATOM     16  C   UNL     1       3.589   5.258  18.692  0.00  0.00    +0.000 C 
ATOM     17  O   UNL     1       2.708   4.579  18.179  0.00  0.00    +0.000 OA
ATOM     18  H   UNL     1       3.976   6.995  19.816  0.00  0.00    +0.000 HD
BRANCH  16  19
ATOM     19  C   UNL     1       4.997   5.091  18.255  0.00  0.00    +0.000 A 
ATOM     20  C   UNL     1       5.329   4.615  16.987  0.00  0.00    +0.000 A 
ATOM     21  C   UNL     1       6.671   4.548  16.660  0.00  0.00    +0.000 A 
ATOM     22  N   UNL     1       7.668   4.909  17.498  0.00  0.00    +0.000 NA
ATOM     23  C   UNL     1       7.314   5.378  18.714  0.00  0.00    +0.000 A 
ATOM     24  C   UNL     1       6.002   5.491  19.134  0.00  0.00    +0.000 A 
ENDBRANCH  16  19
ENDBRANCH  13  15
ENDBRANCH   6  13
TORSDOF 3
ENDMDL
