MODEL 1
REMARK VINA RESULT:      -7.4      0.000      0.000
REMARK  Name = 
REMARK  8 active torsions:
REMARK  status: ('A' for Active; 'I' for Inactive)
REMARK    1  A    between atoms: C_1  and  S_2
REMARK    2  A    between atoms: S_2  and  C_5
REMARK    3  A    between atoms: C_8  and  C_9
REMARK    4  A    between atoms: C_9  and  O_10
REMARK    5  A    between atoms: C_9  and  C_11
REMARK    6  A    between atoms: C_11  and  C_12
REMARK    7  A    between atoms: C_11  and  N_14
REMARK    8  A    between atoms: C_15  and  C_17
REMARK                            x       y       z     vdW  Elec       q    Type
REMARK                         _______ _______ _______ _____ _____    ______ ____
ROOT
ATOM      1  C   UNL     1       6.746   5.449  18.380  0.00  0.00    +0.000 C 
ENDROOT
BRANCH   1   5
ATOM      2  C   UNL     1       2.820   4.055  19.534  0.00  0.00    +0.000 A 
ATOM      3  C   UNL     1       3.921   3.207  19.630  0.00  0.00    +0.000 A 
ATOM      4  C   UNL     1       5.178   3.669  19.232  0.00  0.00    +0.000 A 
ATOM      5  C   UNL     1       5.345   4.977  18.741  0.00  0.00    +0.000 A 
ATOM      6  C   UNL     1       4.208   5.780  18.573  0.00  0.00    +0.000 A 
ATOM      7  C   UNL     1       2.950   5.332  18.980  0.00  0.00    +0.000 A 
BRANCH   2   9
ATOM      8  C   UNL     1       1.601   2.575  21.552  0.00  0.00    +0.000 C 
ATOM      9  S   UNL     1       1.225   3.496  20.082  0.00  0.00    +0.000 S 
ATOM     10  O   UNL     1       0.720   2.572  19.085  0.00  0.00    +0.000 OA
ATOM     11  O   UNL     1       0.463   4.668  20.465  0.00  0.00    +0.000 OA
ENDBRANCH   2   9
ENDBRANCH   1   5
BRANCH   1  12
ATOM     12  O   UNL     1       7.578   4.297  18.160  0.00  0.00    +0.000 OA
ATOM     13  H   UNL     1       7.101   3.673  17.589  0.00  0.00    +0.000 HD
ENDBRANCH   1  12
BRANCH   1  14
ATOM     14  C   UNL     1       6.863   6.382  17.133  0.00  0.00    +0.000 C 
BRANCH  14  15
ATOM     15  N   UNL     1       7.338   5.655  15.939  0.00  0.00    +0.000 N 
ATOM     16  C   UNL     1       6.488   5.062  15.026  0.00  0.00    +0.000 C 
ATOM     17  O   UNL     1       5.265   5.102  15.163  0.00  0.00    +0.000 OA
ATOM     18  H   UNL     1       8.331   5.465  15.861  0.00  0.00    +0.000 HD
BRANCH  16  19
ATOM     19  C   UNL     1       7.132   4.406  13.803  0.00  0.00    +0.000 C 
ATOM     20 CL   UNL     1       5.858   3.629  12.842  0.00  0.00    +0.000 Cl
ATOM     21 CL   UNL     1       8.018   5.594  12.820  0.00  0.00    +0.000 Cl
ENDBRANCH  16  19
ENDBRANCH  14  15
BRANCH  14  22
ATOM     22  C   UNL     1       7.713   7.629  17.392  0.00  0.00    +0.000 C 
ATOM     23  F   UNL     1       8.392   7.452  18.565  0.00  0.00    +0.000 F 
ENDBRANCH  14  22
ENDBRANCH   1  14
TORSDOF 7
ENDMDL
MODEL 2
REMARK VINA RESULT:      -7.3      0.166      1.067
REMARK  Name = 
REMARK  8 active torsions:
REMARK  status: ('A' for Active; 'I' for Inactive)
REMARK    1  A    between atoms: C_1  and  S_2
REMARK    2  A    between atoms: S_2  and  C_5
REMARK    3  A    between atoms: C_8  and  C_9
REMARK    4  A    between atoms: C_9  and  O_10
REMARK    5  A    between atoms: C_9  and  C_11
REMARK    6  A    between atoms: C_11  and  C_12
REMARK    7  A    between atoms: C_11  and  N_14
REMARK    8  A    between atoms: C_15  and  C_17
REMARK                            x       y       z     vdW  Elec       q    Type
REMARK                         _______ _______ _______ _____ _____    ______ ____
ROOT
ATOM      1  C   UNL     1       6.817   5.342  18.432  0.00  0.00    +0.000 C 
ENDROOT
BRANCH   1   5
ATOM      2  C   UNL     1       2.874   4.030  19.627  0.00  0.00    +0.000 A 
ATOM      3  C   UNL     1       3.087   5.352  19.242  0.00  0.00    +0.000 A 
ATOM      4  C   UNL     1       4.372   5.762  18.879  0.00  0.00    +0.000 A 
ATOM      5  C   UNL     1       5.450   4.857  18.895  0.00  0.00    +0.000 A 
ATOM      6  C   UNL     1       5.227   3.557  19.369  0.00  0.00    +0.000 A 
ATOM      7  C   UNL     1       3.944   3.134  19.721  0.00  0.00    +0.000 A 
BRANCH   2   9
ATOM      8  C   UNL     1       1.491   2.508  21.503  0.00  0.00    +0.000 C 
ATOM      9  S   UNL     1       1.235   3.484  20.044  0.00  0.00    +0.000 S 
ATOM     10  O   UNL     1       0.786   2.604  18.983  0.00  0.00    +0.000 OA
ATOM     11  O   UNL     1       0.469   4.658  20.413  0.00  0.00    +0.000 OA
ENDBRANCH   2   9
ENDBRANCH   1   5
BRANCH   1  12
ATOM     12  O   UNL     1       7.639   4.198  18.149  0.00  0.00    +0.000 OA
ATOM     13  H   UNL     1       8.320   4.455  17.505  0.00  0.00    +0.000 HD
ENDBRANCH   1  12
BRANCH   1  14
ATOM     14  C   UNL     1       6.833   6.278  17.182  0.00  0.00    +0.000 C 
BRANCH  14  15
ATOM     15  N   UNL     1       7.266   5.567  15.963  0.00  0.00    +0.000 N 
ATOM     16  C   UNL     1       6.386   4.963  15.086  0.00  0.00    +0.000 C 
ATOM     17  O   UNL     1       5.170   4.978  15.279  0.00  0.00    +0.000 OA
ATOM     18  H   UNL     1       8.258   5.397  15.838  0.00  0.00    +0.000 HD
BRANCH  16  19
ATOM     19  C   UNL     1       6.986   4.327  13.830  0.00  0.00    +0.000 C 
ATOM     20 CL   UNL     1       5.665   3.663  12.848  0.00  0.00    +0.000 Cl
ATOM     21 CL   UNL     1       7.929   5.507  12.892  0.00  0.00    +0.000 Cl
ENDBRANCH  16  19
ENDBRANCH  14  15
BRANCH  14  22
ATOM     22  C   UNL     1       7.654   7.553  17.396  0.00  0.00    +0.000 C 
ATOM     23  F   UNL     1       8.389   7.406  18.538  0.00  0.00    +0.000 F 
ENDBRANCH  14  22
ENDBRANCH   1  14
TORSDOF 7
ENDMDL
MODEL 3
REMARK VINA RESULT:      -7.0      0.976      1.154
REMARK  Name = 
REMARK  8 active torsions:
REMARK  status: ('A' for Active; 'I' for Inactive)
REMARK    1  A    between atoms: C_1  and  S_2
REMARK    2  A    between atoms: S_2  and  C_5
REMARK    3  A    between atoms: C_8  and  C_9
REMARK    4  A    between atoms: C_9  and  O_10
REMARK    5  A    between atoms: C_9  and  C_11
REMARK    6  A    between atoms: C_11  and  C_12
REMARK    7  A    between atoms: C_11  and  N_14
REMARK    8  A    between atoms: C_15  and  C_17
REMARK                            x       y       z     vdW  Elec       q    Type
REMARK                         _______ _______ _______ _____ _____    ______ ____
ROOT
ATOM      1  C   UNL     1       6.858   5.724  18.673  0.00  0.00    +0.000 C 
ENDROOT
BRANCH   1   5
ATOM      2  C   UNL     1       3.019   4.034  19.723  0.00  0.00    +0.000 A 
ATOM      3  C   UNL     1       4.117   3.203  19.510  0.00  0.00    +0.000 A 
ATOM      4  C   UNL     1       5.344   3.767  19.151  0.00  0.00    +0.000 A 
ATOM      5  C   UNL     1       5.484   5.159  19.006  0.00  0.00    +0.000 A 
ATOM      6  C   UNL     1       4.345   5.965  19.140  0.00  0.00    +0.000 A 
ATOM      7  C   UNL     1       3.118   5.413  19.512  0.00  0.00    +0.000 A 
BRANCH   2   9
ATOM      8  C   UNL     1       0.957   2.407  18.802  0.00  0.00    +0.000 C 
ATOM      9  S   UNL     1       1.466   3.334  20.227  0.00  0.00    +0.000 S 
ATOM     10  O   UNL     1       0.534   4.428  20.413  0.00  0.00    +0.000 OA
ATOM     11  O   UNL     1       1.741   2.399  21.301  0.00  0.00    +0.000 OA
ENDBRANCH   2   9
ENDBRANCH   1   5
BRANCH   1  12
ATOM     12  O   UNL     1       7.803   4.643  18.629  0.00  0.00    +0.000 OA
ATOM     13  H   UNL     1       8.607   4.912  19.102  0.00  0.00    +0.000 HD
ENDBRANCH   1  12
BRANCH   1  14
ATOM     14  C   UNL     1       6.971   6.529  17.340  0.00  0.00    +0.000 C 
BRANCH  14  15
ATOM     15  N   UNL     1       7.353   5.668  16.203  0.00  0.00    +0.000 N 
ATOM     16  C   UNL     1       6.523   5.424  15.126  0.00  0.00    +0.000 C 
ATOM     17  O   UNL     1       5.397   5.916  15.055  0.00  0.00    +0.000 OA
ATOM     18  H   UNL     1       8.204   5.122  16.284  0.00  0.00    +0.000 HD
BRANCH  16  19
ATOM     19  C   UNL     1       7.091   4.565  13.994  0.00  0.00    +0.000 C 
ATOM     20 CL   UNL     1       5.745   3.740  13.182  0.00  0.00    +0.000 Cl
ATOM     21 CL   UNL     1       8.012   5.548  12.833  0.00  0.00    +0.000 Cl
ENDBRANCH  16  19
ENDBRANCH  14  15
BRANCH  14  22
ATOM     22  C   UNL     1       7.900   7.742  17.446  0.00  0.00    +0.000 C 
ATOM     23  F   UNL     1       7.135   8.852  17.675  0.00  0.00    +0.000 F 
ENDBRANCH  14  22
ENDBRANCH   1  14
TORSDOF 7
ENDMDL
MODEL 4
REMARK VINA RESULT:      -6.9      0.980      1.545
REMARK  Name = 
REMARK  8 active torsions:
REMARK  status: ('A' for Active; 'I' for Inactive)
REMARK    1  A    between atoms: C_1  and  S_2
REMARK    2  A    between atoms: S_2  and  C_5
REMARK    3  A    between atoms: C_8  and  C_9
REMARK    4  A    between atoms: C_9  and  O_10
REMARK    5  A    between atoms: C_9  and  C_11
REMARK    6  A    between atoms: C_11  and  C_12
REMARK    7  A    between atoms: C_11  and  N_14
REMARK    8  A    between atoms: C_15  and  C_17
REMARK                            x       y       z     vdW  Elec       q    Type
REMARK                         _______ _______ _______ _____ _____    ______ ____
ROOT
ATOM      1  C   UNL     1       6.900   5.278  18.477  0.00  0.00    +0.000 C 
ENDROOT
BRANCH   1   5
ATOM      2  C   UNL     1       3.017   3.916  19.804  0.00  0.00    +0.000 A 
ATOM      3  C   UNL     1       3.294   5.280  19.726  0.00  0.00    +0.000 A 
ATOM      4  C   UNL     1       4.561   5.699  19.315  0.00  0.00    +0.000 A 
ATOM      5  C   UNL     1       5.557   4.765  18.976  0.00  0.00    +0.000 A 
ATOM      6  C   UNL     1       5.282   3.401  19.147  0.00  0.00    +0.000 A 
ATOM      7  C   UNL     1       4.015   2.971  19.543  0.00  0.00    +0.000 A 
BRANCH   2   9
ATOM      8  C   UNL     1       0.822   2.503  18.839  0.00  0.00    +0.000 C 
ATOM      9  S   UNL     1       1.394   3.369  20.278  0.00  0.00    +0.000 S 
ATOM     10  O   UNL     1       0.571   4.549  20.453  0.00  0.00    +0.000 OA
ATOM     11  O   UNL     1       1.557   2.408  21.350  0.00  0.00    +0.000 OA
ENDBRANCH   2   9
ENDBRANCH   1   5
BRANCH   1  12
ATOM     12  O   UNL     1       7.733   4.151  18.155  0.00  0.00    +0.000 OA
ATOM     13  H   UNL     1       8.513   4.469  17.672  0.00  0.00    +0.000 HD
ENDBRANCH   1  12
BRANCH   1  14
ATOM     14  C   UNL     1       6.862   6.228  17.239  0.00  0.00    +0.000 C 
BRANCH  14  15
ATOM     15  N   UNL     1       7.264   5.538  15.997  0.00  0.00    +0.000 N 
ATOM     16  C   UNL     1       6.369   4.898  15.163  0.00  0.00    +0.000 C 
ATOM     17  O   UNL     1       5.164   4.862  15.415  0.00  0.00    +0.000 OA
ATOM     18  H   UNL     1       8.255   5.410  15.823  0.00  0.00    +0.000 HD
BRANCH  16  19
ATOM     19  C   UNL     1       6.933   4.289  13.877  0.00  0.00    +0.000 C 
ATOM     20 CL   UNL     1       5.577   3.742  12.870  0.00  0.00    +0.000 Cl
ATOM     21 CL   UNL     1       7.937   5.459  12.990  0.00  0.00    +0.000 Cl
ENDBRANCH  16  19
ENDBRANCH  14  15
BRANCH  14  22
ATOM     22  C   UNL     1       7.671   7.513  17.441  0.00  0.00    +0.000 C 
ATOM     23  F   UNL     1       6.803   8.567  17.480  0.00  0.00    +0.000 F 
ENDBRANCH  14  22
ENDBRANCH   1  14
TORSDOF 7
ENDMDL
MODEL 5
REMARK VINA RESULT:      -6.7      2.145      2.482
REMARK  Name = 
REMARK  8 active torsions:
REMARK  status: ('A' for Active; 'I' for Inactive)
REMARK    1  A    between atoms: C_1  and  S_2
REMARK    2  A    between atoms: S_2  and  C_5
REMARK    3  A    between atoms: C_8  and  C_9
REMARK    4  A    between atoms: C_9  and  O_10
REMARK    5  A    between atoms: C_9  and  C_11
REMARK    6  A    between atoms: C_11  and  C_12
REMARK    7  A    between atoms: C_11  and  N_14
REMARK    8  A    between atoms: C_15  and  C_17
REMARK                            x       y       z     vdW  Elec       q    Type
REMARK                         _______ _______ _______ _____ _____    ______ ____
ROOT
ATOM      1  C   UNL     1       5.460   5.949  15.889  0.00  0.00    +0.000 C 
ENDROOT
BRANCH   1   5
ATOM      2  C   UNL     1       2.824   4.321  18.904  0.00  0.00    +0.000 A 
ATOM      3  C   UNL     1       3.015   3.646  17.700  0.00  0.00    +0.000 A 
ATOM      4  C   UNL     1       3.854   4.199  16.730  0.00  0.00    +0.000 A 
ATOM      5  C   UNL     1       4.510   5.423  16.955  0.00  0.00    +0.000 A 
ATOM      6  C   UNL     1       4.233   6.124  18.137  0.00  0.00    +0.000 A 
ATOM      7  C   UNL     1       3.407   5.574  19.118  0.00  0.00    +0.000 A 
BRANCH   2   9
ATOM      8  C   UNL     1       0.791   2.454  19.265  0.00  0.00    +0.000 C 
ATOM      9  S   UNL     1       1.798   3.605  20.166  0.00  0.00    +0.000 S 
ATOM     10  O   UNL     1       0.939   4.655  20.677  0.00  0.00    +0.000 OA
ATOM     11  O   UNL     1       2.663   2.852  21.052  0.00  0.00    +0.000 OA
ENDBRANCH   2   9
ENDBRANCH   1   5
BRANCH   1  12
ATOM     12  O   UNL     1       6.040   7.179  16.355  0.00  0.00    +0.000 OA
ATOM     13  H   UNL     1       6.224   7.096  17.305  0.00  0.00    +0.000 HD
ENDBRANCH   1  12
BRANCH   1  14
ATOM     14  C   UNL     1       6.619   4.993  15.460  0.00  0.00    +0.000 C 
BRANCH  14  15
ATOM     15  N   UNL     1       6.166   3.971  14.497  0.00  0.00    +0.000 N 
ATOM     16  C   UNL     1       6.554   3.957  13.171  0.00  0.00    +0.000 C 
ATOM     17  O   UNL     1       7.308   4.813  12.710  0.00  0.00    +0.000 OA
ATOM     18  H   UNL     1       5.431   3.336  14.786  0.00  0.00    +0.000 HD
BRANCH  16  19
ATOM     19  C   UNL     1       6.055   2.790  12.315  0.00  0.00    +0.000 C 
ATOM     20 CL   UNL     1       4.575   3.298  11.478  0.00  0.00    +0.000 Cl
ATOM     21 CL   UNL     1       7.288   2.270  11.144  0.00  0.00    +0.000 Cl
ENDBRANCH  16  19
ENDBRANCH  14  15
BRANCH  14  22
ATOM     22  C   UNL     1       7.338   4.349  16.649  0.00  0.00    +0.000 C 
ATOM     23  F   UNL     1       7.779   5.342  17.477  0.00  0.00    +0.000 F 
ENDBRANCH  14  22
ENDBRANCH   1  14
TORSDOF 7
ENDMDL
MODEL 6
REMARK VINA RESULT:      -6.5      0.933      1.745
REMARK  Name = 
REMARK  8 active torsions:
REMARK  status: ('A' for Active; 'I' for Inactive)
REMARK    1  A    between atoms: C_1  and  S_2
REMARK    2  A    between atoms: S_2  and  C_5
REMARK    3  A    between atoms: C_8  and  C_9
REMARK    4  A    between atoms: C_9  and  O_10
REMARK    5  A    between atoms: C_9  and  C_11
REMARK    6  A    between atoms: C_11  and  C_12
REMARK    7  A    between atoms: C_11  and  N_14
REMARK    8  A    between atoms: C_15  and  C_17
REMARK                            x       y       z     vdW  Elec       q    Type
REMARK                         _______ _______ _______ _____ _____    ______ ____
ROOT
ATOM      1  C   UNL     1       6.929   5.308  18.356  0.00  0.00    +0.000 C 
ENDROOT
BRANCH   1   5
ATOM      2  C   UNL     1       3.078   3.856  19.682  0.00  0.00    +0.000 A 
ATOM      3  C   UNL     1       3.400   5.207  19.807  0.00  0.00    +0.000 A 
ATOM      4  C   UNL     1       4.657   5.652  19.392  0.00  0.00    +0.000 A 
ATOM      5  C   UNL     1       5.598   4.758  18.848  0.00  0.00    +0.000 A 
ATOM      6  C   UNL     1       5.282   3.393  18.814  0.00  0.00    +0.000 A 
ATOM      7  C   UNL     1       4.024   2.939  19.213  0.00  0.00    +0.000 A 
BRANCH   2   9
ATOM      8  C   UNL     1       0.895   2.424  18.717  0.00  0.00    +0.000 C 
ATOM      9  S   UNL     1       1.465   3.285  20.160  0.00  0.00    +0.000 S 
ATOM     10  O   UNL     1       0.628   4.453  20.351  0.00  0.00    +0.000 OA
ATOM     11  O   UNL     1       1.646   2.316  21.223  0.00  0.00    +0.000 OA
ENDBRANCH   2   9
ENDBRANCH   1   5
BRANCH   1  12
ATOM     12  O   UNL     1       7.683   4.234  17.769  0.00  0.00    +0.000 OA
ATOM     13  H   UNL     1       7.089   3.706  17.210  0.00  0.00    +0.000 HD
ENDBRANCH   1  12
BRANCH   1  14
ATOM     14  C   UNL     1       6.857   6.476  17.323  0.00  0.00    +0.000 C 
BRANCH  14  15
ATOM     15  N   UNL     1       7.095   6.012  15.942  0.00  0.00    +0.000 N 
ATOM     16  C   UNL     1       6.127   5.397  15.172  0.00  0.00    +0.000 C 
ATOM     17  O   UNL     1       4.992   5.193  15.604  0.00  0.00    +0.000 OA
ATOM     18  H   UNL     1       8.048   6.020  15.595  0.00  0.00    +0.000 HD
BRANCH  16  19
ATOM     19  C   UNL     1       6.510   5.036  13.735  0.00  0.00    +0.000 C 
ATOM     20 CL   UNL     1       8.226   5.418  13.495  0.00  0.00    +0.000 Cl
ATOM     21 CL   UNL     1       6.197   3.320  13.391  0.00  0.00    +0.000 Cl
ENDBRANCH  16  19
ENDBRANCH  14  15
BRANCH  14  22
ATOM     22  C   UNL     1       7.777   7.649  17.675  0.00  0.00    +0.000 C 
ATOM     23  F   UNL     1       8.542   7.289  18.749  0.00  0.00    +0.000 F 
ENDBRANCH  14  22
ENDBRANCH   1  14
TORSDOF 7
ENDMDL
MODEL 7
REMARK VINA RESULT:      -6.5      3.705      4.918
REMARK  Name = 
REMARK  8 active torsions:
REMARK  status: ('A' for Active; 'I' for Inactive)
REMARK    1  A    between atoms: C_1  and  S_2
REMARK    2  A    between atoms: S_2  and  C_5
REMARK    3  A    between atoms: C_8  and  C_9
REMARK    4  A    between atoms: C_9  and  O_10
REMARK    5  A    between atoms: C_9  and  C_11
REMARK    6  A    between atoms: C_11  and  C_12
REMARK    7  A    between atoms: C_11  and  N_14
REMARK    8  A    between atoms: C_15  and  C_17
REMARK                            x       y       z     vdW  Elec       q    Type
REMARK                         _______ _______ _______ _____ _____    ______ ____
ROOT
ATOM      1  C   UNL     1       2.875   4.041  18.485  0.00  0.00    +0.000 C 
ENDROOT
BRANCH   1   5
ATOM      2  C   UNL     1       1.583   7.668  20.452  0.00  0.00    +0.000 A 
ATOM      3  C   UNL     1       1.370   6.429  21.054  0.00  0.00    +0.000 A 
ATOM      4  C   UNL     1       1.776   5.268  20.393  0.00  0.00    +0.000 A 
ATOM      5  C   UNL     1       2.398   5.333  19.133  0.00  0.00    +0.000 A 
ATOM      6  C   UNL     1       2.522   6.584  18.511  0.00  0.00    +0.000 A 
ATOM      7  C   UNL     1       2.132   7.751  19.169  0.00  0.00    +0.000 A 
BRANCH   2   9
ATOM      8  C   UNL     1      -0.551   8.824  21.816  0.00  0.00    +0.000 C 
ATOM      9  S   UNL     1       1.116   9.156  21.304  0.00  0.00    +0.000 S 
ATOM     10  O   UNL     1       1.084  10.226  20.327  0.00  0.00    +0.000 OA
ATOM     11  O   UNL     1       1.943   9.253  22.490  0.00  0.00    +0.000 OA
ENDBRANCH   2   9
ENDBRANCH   1   5
BRANCH   1  12
ATOM     12  O   UNL     1       3.104   4.283  17.087  0.00  0.00    +0.000 OA
ATOM     13  H   UNL     1       3.710   5.037  16.996  0.00  0.00    +0.000 HD
ENDBRANCH   1  12
BRANCH   1  14
ATOM     14  C   UNL     1       4.165   3.399  19.087  0.00  0.00    +0.000 C 
BRANCH  14  15
ATOM     15  N   UNL     1       5.381   3.809  18.359  0.00  0.00    +0.000 N 
ATOM     16  C   UNL     1       6.169   4.878  18.741  0.00  0.00    +0.000 C 
ATOM     17  O   UNL     1       5.892   5.563  19.726  0.00  0.00    +0.000 OA
ATOM     18  H   UNL     1       5.568   3.375  17.462  0.00  0.00    +0.000 HD
BRANCH  16  19
ATOM     19  C   UNL     1       7.436   5.133  17.922  0.00  0.00    +0.000 C 
ATOM     20 CL   UNL     1       7.208   4.449  16.301  0.00  0.00    +0.000 Cl
ATOM     21 CL   UNL     1       7.806   6.869  17.822  0.00  0.00    +0.000 Cl
ENDBRANCH  16  19
ENDBRANCH  14  15
BRANCH  14  22
ATOM     22  C   UNL     1       4.080   1.874  19.203  0.00  0.00    +0.000 C 
ATOM     23  F   UNL     1       3.717   1.369  17.986  0.00  0.00    +0.000 F 
ENDBRANCH  14  22
ENDBRANCH   1  14
TORSDOF 7
ENDMDL
MODEL 8
REMARK VINA RESULT:      -6.4      3.942      5.259
REMARK  Name = 
REMARK  8 active torsions:
REMARK  status: ('A' for Active; 'I' for Inactive)
REMARK    1  A    between atoms: C_1  and  S_2
REMARK    2  A    between atoms: S_2  and  C_5
REMARK    3  A    between atoms: C_8  and  C_9
REMARK    4  A    between atoms: C_9  and  O_10
REMARK    5  A    between atoms: C_9  and  C_11
REMARK    6  A    between atoms: C_11  and  C_12
REMARK    7  A    between atoms: C_11  and  N_14
REMARK    8  A    between atoms: C_15  and  C_17
REMARK                            x       y       z     vdW  Elec       q    Type
REMARK                         _______ _______ _______ _____ _____    ______ ____
ROOT
ATOM      1  C   UNL     1       2.782   4.589  18.938  0.00  0.00    +0.000 C 
ENDROOT
BRANCH   1   5
ATOM      2  C   UNL     1       1.532   8.653  19.719  0.00  0.00    +0.000 A 
ATOM      3  C   UNL     1       2.127   8.324  18.502  0.00  0.00    +0.000 A 
ATOM      4  C   UNL     1       2.543   7.009  18.278  0.00  0.00    +0.000 A 
ATOM      5  C   UNL     1       2.365   6.017  19.260  0.00  0.00    +0.000 A 
ATOM      6  C   UNL     1       1.844   6.393  20.505  0.00  0.00    +0.000 A 
ATOM      7  C   UNL     1       1.413   7.700  20.735  0.00  0.00    +0.000 A 
BRANCH   2   9
ATOM      8  C   UNL     1      -0.786  10.194  19.665  0.00  0.00    +0.000 C 
ATOM      9  S   UNL     1       0.953  10.310  19.998  0.00  0.00    +0.000 S 
ATOM     10  O   UNL     1       1.553  11.158  18.987  0.00  0.00    +0.000 OA
ATOM     11  O   UNL     1       1.126  10.597  21.409  0.00  0.00    +0.000 OA
ENDBRANCH   2   9
ENDBRANCH   1   5
BRANCH   1  12
ATOM     12  O   UNL     1       2.696   4.392  17.517  0.00  0.00    +0.000 OA
ATOM     13  H   UNL     1       1.773   4.202  17.285  0.00  0.00    +0.000 HD
ENDBRANCH   1  12
BRANCH   1  14
ATOM     14  C   UNL     1       4.209   4.161  19.407  0.00  0.00    +0.000 C 
BRANCH  14  15
ATOM     15  N   UNL     1       5.246   4.516  18.419  0.00  0.00    +0.000 N 
ATOM     16  C   UNL     1       6.447   5.106  18.761  0.00  0.00    +0.000 C 
ATOM     17  O   UNL     1       6.722   5.378  19.930  0.00  0.00    +0.000 OA
ATOM     18  H   UNL     1       5.009   4.451  17.435  0.00  0.00    +0.000 HD
BRANCH  16  19
ATOM     19  C   UNL     1       7.448   5.348  17.629  0.00  0.00    +0.000 C 
ATOM     20 CL   UNL     1       6.904   4.457  16.194  0.00  0.00    +0.000 Cl
ATOM     21 CL   UNL     1       7.609   7.081  17.264  0.00  0.00    +0.000 Cl
ENDBRANCH  16  19
ENDBRANCH  14  15
BRANCH  14  22
ATOM     22  C   UNL     1       4.298   2.681  19.790  0.00  0.00    +0.000 C 
ATOM     23  F   UNL     1       3.849   1.935  18.737  0.00  0.00    +0.000 F 
ENDBRANCH  14  22
ENDBRANCH   1  14
TORSDOF 7
ENDMDL
MODEL 9
REMARK VINA RESULT:      -6.4      1.698      1.958
REMARK  Name = 
REMARK  8 active torsions:
REMARK  status: ('A' for Active; 'I' for Inactive)
REMARK    1  A    between atoms: C_1  and  S_2
REMARK    2  A    between atoms: S_2  and  C_5
REMARK    3  A    between atoms: C_8  and  C_9
REMARK    4  A    between atoms: C_9  and  O_10
REMARK    5  A    between atoms: C_9  and  C_11
REMARK    6  A    between atoms: C_11  and  C_12
REMARK    7  A    between atoms: C_11  and  N_14
REMARK    8  A    between atoms: C_15  and  C_17
REMARK                            x       y       z     vdW  Elec       q    Type
REMARK                         _______ _______ _______ _____ _____    ______ ____
ROOT
ATOM      1  C   UNL     1       5.593   6.175  16.577  0.00  0.00    +0.000 C 
ENDROOT
BRANCH   1   5
ATOM      2  C   UNL     1       2.703   4.146  19.071  0.00  0.00    +0.000 A 
ATOM      3  C   UNL     1       3.495   5.163  19.601  0.00  0.00    +0.000 A 
ATOM      4  C   UNL     1       4.437   5.793  18.784  0.00  0.00    +0.000 A 
ATOM      5  C   UNL     1       4.594   5.415  17.438  0.00  0.00    +0.000 A 
ATOM      6  C   UNL     1       3.848   4.331  16.955  0.00  0.00    +0.000 A 
ATOM      7  C   UNL     1       2.894   3.705  17.758  0.00  0.00    +0.000 A 
BRANCH   2   9
ATOM      8  C   UNL     1       2.410   2.687  21.424  0.00  0.00    +0.000 C 
ATOM      9  S   UNL     1       1.467   3.371  20.086  0.00  0.00    +0.000 S 
ATOM     10  O   UNL     1       0.902   2.274  19.324  0.00  0.00    +0.000 OA
ATOM     11  O   UNL     1       0.622   4.422  20.617  0.00  0.00    +0.000 OA
ENDBRANCH   2   9
ENDBRANCH   1   5
BRANCH   1  12
ATOM     12  O   UNL     1       6.023   7.345  17.294  0.00  0.00    +0.000 OA
ATOM     13  H   UNL     1       6.442   7.957  16.667  0.00  0.00    +0.000 HD
ENDBRANCH   1  12
BRANCH   1  14
ATOM     14  C   UNL     1       6.862   5.384  16.125  0.00  0.00    +0.000 C 
BRANCH  14  15
ATOM     15  N   UNL     1       6.641   4.659  14.859  0.00  0.00    +0.000 N 
ATOM     16  C   UNL     1       7.375   4.896  13.713  0.00  0.00    +0.000 C 
ATOM     17  O   UNL     1       8.266   5.744  13.682  0.00  0.00    +0.000 OA
ATOM     18  H   UNL     1       5.825   4.061  14.789  0.00  0.00    +0.000 HD
BRANCH  16  19
ATOM     19  C   UNL     1       7.073   4.012  12.501  0.00  0.00    +0.000 C 
ATOM     20 CL   UNL     1       5.398   3.438  12.625  0.00  0.00    +0.000 Cl
ATOM     21 CL   UNL     1       7.319   4.893  10.976  0.00  0.00    +0.000 Cl
ENDBRANCH  16  19
ENDBRANCH  14  15
BRANCH  14  22
ATOM     22  C   UNL     1       7.404   4.448  17.209  0.00  0.00    +0.000 C 
ATOM     23  F   UNL     1       8.001   5.206  18.176  0.00  0.00    +0.000 F 
ENDBRANCH  14  22
ENDBRANCH   1  14
TORSDOF 7
ENDMDL
