MODEL 1
REMARK VINA RESULT:      -8.1      0.000      0.000
REMARK  Name = 
REMARK  15 active torsions:
REMARK  status: ('A' for Active; 'I' for Inactive)
REMARK    1  A    between atoms: C_1  and  C_2
REMARK    2  A    between atoms: C_2  and  C_3
REMARK    3  A    between atoms: C_5  and  C_6
REMARK    4  A    between atoms: C_6  and  C_7
REMARK    5  A    between atoms: C_9  and  O_10
REMARK    6  A    between atoms: C_12  and  O_13
REMARK    7  A    between atoms: O_13  and  C_14
REMARK    8  A    between atoms: C_14  and  C_15
REMARK    9  A    between atoms: C_19  and  C_20
REMARK   10  A    between atoms: N_22  and  C_23
REMARK   11  A    between atoms: C_23  and  C_24
REMARK   12  A    between atoms: C_23  and  C_32
REMARK   13  A    between atoms: C_24  and  C_25
REMARK   14  A    between atoms: C_28  and  O_29
REMARK   15  A    between atoms: C_32  and  O_34
REMARK                            x       y       z     vdW  Elec       q    Type
REMARK                         _______ _______ _______ _____ _____    ______ ____
ROOT
ATOM      1  C   UNK     1       7.201   6.100  17.043  0.00  0.00    +0.000 A 
ATOM      2  C   UNK     1       7.488   5.229  18.091  0.00  0.00    +0.000 A 
ATOM      3  C   UNK     1       8.101   5.735  19.238  0.00  0.00    +0.000 A 
ATOM      4  C   UNK     1       8.399   7.092  19.319  0.00  0.00    +0.000 A 
ATOM      5  C   UNK     1       8.077   7.895  18.238  0.00  0.00    +0.000 A 
ATOM      6  N   UNK     1       7.491   7.427  17.103  0.00  0.00    +0.000 NA
ENDROOT
BRANCH   5   7
ATOM      7  C   UNK     1       8.409   9.362  18.247  0.00  0.00    +0.000 C 
ATOM      8  O   UNK     1       7.923  10.131  17.430  0.00  0.00    +0.000 OA
ATOM      9  N   UNK     1       9.264   9.755  19.247  0.00  0.00    +0.000 N 
ATOM     10  H   UNK     1       9.647   9.024  19.850  0.00  0.00    +0.000 HD
BRANCH   9  11
ATOM     11  C   UNK     1       9.726  11.130  19.448  0.00  0.00    +0.000 C 
BRANCH  11  12
ATOM     12  C   UNK     1      10.976  11.368  18.580  0.00  0.00    +0.000 C 
ATOM     13  O   UNK     1      12.114  11.446  19.024  0.00  0.00    +0.000 OA
BRANCH  12  14
ATOM     14  O   UNK     1      10.736  11.447  17.248  0.00  0.00    +0.000 OA
ATOM     15  H   UNK     1      11.517  11.358  16.673  0.00  0.00    +0.000 HD
ENDBRANCH  12  14
ENDBRANCH  11  12
BRANCH  11  16
ATOM     16  C   UNK     1       9.971  11.489  20.927  0.00  0.00    +0.000 C 
BRANCH  16  17
ATOM     17  C   UNK     1       8.806  12.136  21.637  0.00  0.00    +0.000 A 
ATOM     18  C   UNK     1       8.180  11.507  22.724  0.00  0.00    +0.000 A 
ATOM     19  C   UNK     1       7.121  12.126  23.389  0.00  0.00    +0.000 A 
ATOM     20  C   UNK     1       6.689  13.380  22.968  0.00  0.00    +0.000 A 
ATOM     21  C   UNK     1       7.288  14.014  21.889  0.00  0.00    +0.000 A 
ATOM     22  C   UNK     1       8.344  13.393  21.222  0.00  0.00    +0.000 A 
BRANCH  20  23
ATOM     23  O   UNK     1       5.671  14.029  23.603  0.00  0.00    +0.000 OA
ATOM     24  H   UNK     1       6.042  14.522  24.353  0.00  0.00    +0.000 HD
ENDBRANCH  20  23
ENDBRANCH  16  17
ENDBRANCH  11  16
ENDBRANCH   9  11
ENDBRANCH   5   7
BRANCH   1  25
ATOM     25  C   UNK     1       6.647   5.601  15.724  0.00  0.00    +0.000 C 
BRANCH  25  26
ATOM     26  O   UNK     1       5.241   5.782  15.611  0.00  0.00    +0.000 OA
BRANCH  26  32
ATOM     27  C   UNK     1       3.612   6.001  17.516  0.00  0.00    +0.000 A 
ATOM     28  C   UNK     1       2.896   5.271  18.500  0.00  0.00    +0.000 A 
ATOM     29  C   UNK     1       3.001   3.884  18.635  0.00  0.00    +0.000 A 
ATOM     30  C   UNK     1       3.846   3.211  17.749  0.00  0.00    +0.000 A 
ATOM     31  C   UNK     1       4.542   3.906  16.755  0.00  0.00    +0.000 A 
ATOM     32  C   UNK     1       4.432   5.299  16.609  0.00  0.00    +0.000 A 
BRANCH  29  33
ATOM     33  C   UNK     1       2.274   3.133  19.708  0.00  0.00    +0.000 C 
ATOM     34  C   UNK     1       0.840   3.429  20.065  0.00  0.00    +0.000 C 
ATOM     35  O   UNK     1       2.887   2.245  20.314  0.00  0.00    +0.000 OA
ENDBRANCH  29  33
BRANCH  27  37
ATOM     36  C   UNK     1       2.404   7.874  18.646  0.00  0.00    +0.000 C 
ATOM     37  C   UNK     1       3.519   7.504  17.674  0.00  0.00    +0.000 C 
ENDBRANCH  27  37
BRANCH  30  38
ATOM     38  O   UNK     1       4.063   1.858  17.804  0.00  0.00    +0.000 OA
ATOM     39  H   UNK     1       3.235   1.432  18.124  0.00  0.00    +0.000 HD
ENDBRANCH  30  38
ENDBRANCH  26  32
ENDBRANCH  25  26
ENDBRANCH   1  25
TORSDOF 13
ENDMDL
MODEL 2
REMARK VINA RESULT:      -8.0      4.074      7.216
REMARK  Name = 
REMARK  15 active torsions:
REMARK  status: ('A' for Active; 'I' for Inactive)
REMARK    1  A    between atoms: C_1  and  C_2
REMARK    2  A    between atoms: C_2  and  C_3
REMARK    3  A    between atoms: C_5  and  C_6
REMARK    4  A    between atoms: C_6  and  C_7
REMARK    5  A    between atoms: C_9  and  O_10
REMARK    6  A    between atoms: C_12  and  O_13
REMARK    7  A    between atoms: O_13  and  C_14
REMARK    8  A    between atoms: C_14  and  C_15
REMARK    9  A    between atoms: C_19  and  C_20
REMARK   10  A    between atoms: N_22  and  C_23
REMARK   11  A    between atoms: C_23  and  C_24
REMARK   12  A    between atoms: C_23  and  C_32
REMARK   13  A    between atoms: C_24  and  C_25
REMARK   14  A    between atoms: C_28  and  O_29
REMARK   15  A    between atoms: C_32  and  O_34
REMARK                            x       y       z     vdW  Elec       q    Type
REMARK                         _______ _______ _______ _____ _____    ______ ____
ROOT
ATOM      1  C   UNK     1       2.290   3.646  18.611  0.00  0.00    +0.000 A 
ATOM      2  C   UNK     1       2.050   2.804  19.694  0.00  0.00    +0.000 A 
ATOM      3  C   UNK     1       1.751   3.370  20.933  0.00  0.00    +0.000 A 
ATOM      4  C   UNK     1       1.684   4.754  21.061  0.00  0.00    +0.000 A 
ATOM      5  C   UNK     1       1.928   5.525  19.937  0.00  0.00    +0.000 A 
ATOM      6  N   UNK     1       2.234   5.001  18.720  0.00  0.00    +0.000 NA
ENDROOT
BRANCH   5   7
ATOM      7  C   UNK     1       1.909   7.026  20.018  0.00  0.00    +0.000 C 
ATOM      8  O   UNK     1       2.565   7.715  19.250  0.00  0.00    +0.000 OA
ATOM      9  N   UNK     1       1.089   7.543  20.991  0.00  0.00    +0.000 N 
ATOM     10  H   UNK     1       0.619   6.877  21.609  0.00  0.00    +0.000 HD
BRANCH   9  11
ATOM     11  C   UNK     1       0.915   8.973  21.255  0.00  0.00    +0.000 C 
BRANCH  11  12
ATOM     12  C   UNK     1       0.294   9.150  22.653  0.00  0.00    +0.000 C 
ATOM     13  O   UNK     1       0.816   9.788  23.558  0.00  0.00    +0.000 OA
BRANCH  12  14
ATOM     14  O   UNK     1      -0.923   8.572  22.812  0.00  0.00    +0.000 OA
ATOM     15  H   UNK     1      -1.212   8.446  23.734  0.00  0.00    +0.000 HD
ENDBRANCH  12  14
ENDBRANCH  11  12
BRANCH  11  16
ATOM     16  C   UNK     1       0.109   9.707  20.166  0.00  0.00    +0.000 C 
BRANCH  16  17
ATOM     17  C   UNK     1       0.670  11.042  19.736  0.00  0.00    +0.000 A 
ATOM     18  C   UNK     1       1.643  11.129  18.728  0.00  0.00    +0.000 A 
ATOM     19  C   UNK     1       2.135  12.370  18.321  0.00  0.00    +0.000 A 
ATOM     20  C   UNK     1       1.652  13.527  18.922  0.00  0.00    +0.000 A 
ATOM     21  C   UNK     1       0.698  13.462  19.928  0.00  0.00    +0.000 A 
ATOM     22  C   UNK     1       0.208  12.222  20.337  0.00  0.00    +0.000 A 
BRANCH  20  23
ATOM     23  O   UNK     1       2.090  14.760  18.540  0.00  0.00    +0.000 OA
ATOM     24  H   UNK     1       2.778  14.646  17.864  0.00  0.00    +0.000 HD
ENDBRANCH  20  23
ENDBRANCH  16  17
ENDBRANCH  11  16
ENDBRANCH   9  11
ENDBRANCH   5   7
BRANCH   1  25
ATOM     25  C   UNK     1       2.737   3.107  17.268  0.00  0.00    +0.000 C 
BRANCH  25  26
ATOM     26  O   UNK     1       4.143   2.905  17.194  0.00  0.00    +0.000 OA
BRANCH  26  32
ATOM     27  C   UNK     1       5.436   4.835  16.229  0.00  0.00    +0.000 A 
ATOM     28  C   UNK     1       6.333   5.887  16.549  0.00  0.00    +0.000 A 
ATOM     29  C   UNK     1       6.807   6.106  17.845  0.00  0.00    +0.000 A 
ATOM     30  C   UNK     1       6.361   5.242  18.850  0.00  0.00    +0.000 A 
ATOM     31  C   UNK     1       5.458   4.215  18.563  0.00  0.00    +0.000 A 
ATOM     32  C   UNK     1       4.971   3.997  17.262  0.00  0.00    +0.000 A 
BRANCH  29  33
ATOM     33  C   UNK     1       7.789   7.192  18.159  0.00  0.00    +0.000 C 
ATOM     34  C   UNK     1       7.788   8.511  17.430  0.00  0.00    +0.000 C 
ATOM     35  O   UNK     1       8.623   6.984  19.049  0.00  0.00    +0.000 OA
ENDBRANCH  29  33
BRANCH  27  37
ATOM     36  C   UNK     1       6.542   4.581  14.002  0.00  0.00    +0.000 C 
ATOM     37  C   UNK     1       5.212   4.647  14.743  0.00  0.00    +0.000 C 
ENDBRANCH  27  37
BRANCH  30  38
ATOM     38  O   UNK     1       6.783   5.329  20.151  0.00  0.00    +0.000 OA
ATOM     39  H   UNK     1       7.639   5.815  20.160  0.00  0.00    +0.000 HD
ENDBRANCH  30  38
ENDBRANCH  26  32
ENDBRANCH  25  26
ENDBRANCH   1  25
TORSDOF 13
ENDMDL
MODEL 3
REMARK VINA RESULT:      -7.8      5.582     10.056
REMARK  Name = 
REMARK  15 active torsions:
REMARK  status: ('A' for Active; 'I' for Inactive)
REMARK    1  A    between atoms: C_1  and  C_2
REMARK    2  A    between atoms: C_2  and  C_3
REMARK    3  A    between atoms: C_5  and  C_6
REMARK    4  A    between atoms: C_6  and  C_7
REMARK    5  A    between atoms: C_9  and  O_10
REMARK    6  A    between atoms: C_12  and  O_13
REMARK    7  A    between atoms: O_13  and  C_14
REMARK    8  A    between atoms: C_14  and  C_15
REMARK    9  A    between atoms: C_19  and  C_20
REMARK   10  A    between atoms: N_22  and  C_23
REMARK   11  A    between atoms: C_23  and  C_24
REMARK   12  A    between atoms: C_23  and  C_32
REMARK   13  A    between atoms: C_24  and  C_25
REMARK   14  A    between atoms: C_28  and  O_29
REMARK   15  A    between atoms: C_32  and  O_34
REMARK                            x       y       z     vdW  Elec       q    Type
REMARK                         _______ _______ _______ _____ _____    ______ ____
ROOT
ATOM      1  C   UNK     1       1.025   9.884  19.600  0.00  0.00    +0.000 A 
ATOM      2  C   UNK     1       0.758   9.721  20.958  0.00  0.00    +0.000 A 
ATOM      3  C   UNK     1       1.081   8.507  21.566  0.00  0.00    +0.000 A 
ATOM      4  C   UNK     1       1.673   7.495  20.815  0.00  0.00    +0.000 A 
ATOM      5  C   UNK     1       1.915   7.736  19.473  0.00  0.00    +0.000 A 
ATOM      6  N   UNK     1       1.599   8.904  18.851  0.00  0.00    +0.000 NA
ENDROOT
BRANCH   5   7
ATOM      7  C   UNK     1       2.516   6.671  18.599  0.00  0.00    +0.000 C 
ATOM      8  O   UNK     1       3.258   6.952  17.669  0.00  0.00    +0.000 OA
ATOM      9  N   UNK     1       2.187   5.383  18.948  0.00  0.00    +0.000 N 
ATOM     10  H   UNK     1       1.523   5.261  19.715  0.00  0.00    +0.000 HD
BRANCH   9  11
ATOM     11  C   UNK     1       2.653   4.189  18.240  0.00  0.00    +0.000 C 
BRANCH  11  12
ATOM     12  C   UNK     1       1.689   3.025  18.536  0.00  0.00    +0.000 C 
ATOM     13  O   UNK     1       0.788   3.075  19.363  0.00  0.00    +0.000 OA
BRANCH  12  14
ATOM     14  O   UNK     1       1.880   1.921  17.772  0.00  0.00    +0.000 OA
ATOM     15  H   UNK     1       1.106   1.626  17.258  0.00  0.00    +0.000 HD
ENDBRANCH  12  14
ENDBRANCH  11  12
BRANCH  11  16
ATOM     16  C   UNK     1       4.118   3.821  18.549  0.00  0.00    +0.000 C 
BRANCH  16  17
ATOM     17  C   UNK     1       5.125   4.246  17.508  0.00  0.00    +0.000 A 
ATOM     18  C   UNK     1       6.388   4.734  17.880  0.00  0.00    +0.000 A 
ATOM     19  C   UNK     1       7.322   5.100  16.909  0.00  0.00    +0.000 A 
ATOM     20  C   UNK     1       6.992   4.976  15.563  0.00  0.00    +0.000 A 
ATOM     21  C   UNK     1       5.744   4.507  15.176  0.00  0.00    +0.000 A 
ATOM     22  C   UNK     1       4.811   4.144  16.146  0.00  0.00    +0.000 A 
BRANCH  20  23
ATOM     23  O   UNK     1       7.882   5.303  14.583  0.00  0.00    +0.000 OA
ATOM     24  H   UNK     1       7.398   5.387  13.744  0.00  0.00    +0.000 HD
ENDBRANCH  20  23
ENDBRANCH  16  17
ENDBRANCH  11  16
ENDBRANCH   9  11
ENDBRANCH   5   7
BRANCH   1  25
ATOM     25  C   UNK     1       0.593  11.126  18.849  0.00  0.00    +0.000 C 
BRANCH  25  26
ATOM     26  O   UNK     1       0.051  12.127  19.701  0.00  0.00    +0.000 OA
BRANCH  26  32
ATOM     27  C   UNK     1      -2.112  12.597  20.898  0.00  0.00    +0.000 A 
ATOM     28  C   UNK     1      -3.523  12.611  20.749  0.00  0.00    +0.000 A 
ATOM     29  C   UNK     1      -4.160  12.256  19.557  0.00  0.00    +0.000 A 
ATOM     30  C   UNK     1      -3.352  11.880  18.481  0.00  0.00    +0.000 A 
ATOM     31  C   UNK     1      -1.959  11.882  18.596  0.00  0.00    +0.000 A 
ATOM     32  C   UNK     1      -1.313  12.249  19.790  0.00  0.00    +0.000 A 
BRANCH  29  33
ATOM     33  C   UNK     1      -5.652  12.232  19.431  0.00  0.00    +0.000 C 
ATOM     34  C   UNK     1      -6.519  13.360  19.929  0.00  0.00    +0.000 C 
ATOM     35  O   UNK     1      -6.175  11.245  18.898  0.00  0.00    +0.000 OA
ENDBRANCH  29  33
BRANCH  27  37
ATOM     36  C   UNK     1      -1.738  11.522  23.122  0.00  0.00    +0.000 C 
ATOM     37  C   UNK     1      -1.639  12.814  22.320  0.00  0.00    +0.000 C 
ENDBRANCH  27  37
BRANCH  30  38
ATOM     38  O   UNK     1      -3.857  11.473  17.273  0.00  0.00    +0.000 OA
ATOM     39  H   UNK     1      -4.193  10.553  17.380  0.00  0.00    +0.000 HD
ENDBRANCH  30  38
ENDBRANCH  26  32
ENDBRANCH  25  26
ENDBRANCH   1  25
TORSDOF 13
ENDMDL
MODEL 4
REMARK VINA RESULT:      -7.8      5.285     10.309
REMARK  Name = 
REMARK  15 active torsions:
REMARK  status: ('A' for Active; 'I' for Inactive)
REMARK    1  A    between atoms: C_1  and  C_2
REMARK    2  A    between atoms: C_2  and  C_3
REMARK    3  A    between atoms: C_5  and  C_6
REMARK    4  A    between atoms: C_6  and  C_7
REMARK    5  A    between atoms: C_9  and  O_10
REMARK    6  A    between atoms: C_12  and  O_13
REMARK    7  A    between atoms: O_13  and  C_14
REMARK    8  A    between atoms: C_14  and  C_15
REMARK    9  A    between atoms: C_19  and  C_20
REMARK   10  A    between atoms: N_22  and  C_23
REMARK   11  A    between atoms: C_23  and  C_24
REMARK   12  A    between atoms: C_23  and  C_32
REMARK   13  A    between atoms: C_24  and  C_25
REMARK   14  A    between atoms: C_28  and  O_29
REMARK   15  A    between atoms: C_32  and  O_34
REMARK                            x       y       z     vdW  Elec       q    Type
REMARK                         _______ _______ _______ _____ _____    ______ ____
ROOT
ATOM      1  C   UNK     1       1.104   9.175  20.180  0.00  0.00    +0.000 A 
ATOM      2  C   UNK     1       1.264  10.034  19.095  0.00  0.00    +0.000 A 
ATOM      3  C   UNK     1       1.934   9.570  17.962  0.00  0.00    +0.000 A 
ATOM      4  C   UNK     1       2.412   8.263  17.931  0.00  0.00    +0.000 A 
ATOM      5  C   UNK     1       2.207   7.468  19.045  0.00  0.00    +0.000 A 
ATOM      6  N   UNK     1       1.570   7.897  20.167  0.00  0.00    +0.000 NA
ENDROOT
BRANCH   5   7
ATOM      7  C   UNK     1       2.734   6.060  19.089  0.00  0.00    +0.000 C 
ATOM      8  O   UNK     1       3.490   5.689  19.975  0.00  0.00    +0.000 OA
ATOM      9  N   UNK     1       2.279   5.241  18.085  0.00  0.00    +0.000 N 
ATOM     10  H   UNK     1       1.684   5.664  17.369  0.00  0.00    +0.000 HD
BRANCH   9  11
ATOM     11  C   UNK     1       2.659   3.836  17.927  0.00  0.00    +0.000 C 
BRANCH  11  12
ATOM     12  C   UNK     1       1.721   2.966  18.785  0.00  0.00    +0.000 C 
ATOM     13  O   UNK     1       0.700   2.438  18.365  0.00  0.00    +0.000 OA
BRANCH  12  14
ATOM     14  O   UNK     1       2.131   2.781  20.065  0.00  0.00    +0.000 OA
ATOM     15  H   UNK     1       1.433   2.833  20.742  0.00  0.00    +0.000 HD
ENDBRANCH  12  14
ENDBRANCH  11  12
BRANCH  11  16
ATOM     16  C   UNK     1       4.144   3.559  18.230  0.00  0.00    +0.000 C 
BRANCH  16  17
ATOM     17  C   UNK     1       5.120   4.051  17.188  0.00  0.00    +0.000 A 
ATOM     18  C   UNK     1       4.808   3.995  15.821  0.00  0.00    +0.000 A 
ATOM     19  C   UNK     1       5.707   4.477  14.867  0.00  0.00    +0.000 A 
ATOM     20  C   UNK     1       6.919   5.018  15.282  0.00  0.00    +0.000 A 
ATOM     21  C   UNK     1       7.250   5.072  16.629  0.00  0.00    +0.000 A 
ATOM     22  C   UNK     1       6.354   4.588  17.581  0.00  0.00    +0.000 A 
BRANCH  20  23
ATOM     23  O   UNK     1       7.816   5.518  14.386  0.00  0.00    +0.000 OA
ATOM     24  H   UNK     1       8.629   5.754  14.863  0.00  0.00    +0.000 HD
ENDBRANCH  20  23
ENDBRANCH  16  17
ENDBRANCH  11  16
ENDBRANCH   9  11
ENDBRANCH   5   7
BRANCH   1  25
ATOM     25  C   UNK     1       0.496   9.647  21.484  0.00  0.00    +0.000 C 
BRANCH  25  26
ATOM     26  O   UNK     1       0.627  11.050  21.680  0.00  0.00    +0.000 OA
BRANCH  26  32
ATOM     27  C   UNK     1      -0.803  12.905  20.764  0.00  0.00    +0.000 A 
ATOM     28  C   UNK     1      -2.031  13.596  20.935  0.00  0.00    +0.000 A 
ATOM     29  C   UNK     1      -2.939  13.280  21.949  0.00  0.00    +0.000 A 
ATOM     30  C   UNK     1      -2.604  12.235  22.813  0.00  0.00    +0.000 A 
ATOM     31  C   UNK     1      -1.411  11.524  22.649  0.00  0.00    +0.000 A 
ATOM     32  C   UNK     1      -0.499  11.831  21.624  0.00  0.00    +0.000 A 
BRANCH  29  33
ATOM     33  C   UNK     1      -4.210  14.048  22.144  0.00  0.00    +0.000 C 
ATOM     34  C   UNK     1      -5.191  14.277  21.023  0.00  0.00    +0.000 C 
ATOM     35  O   UNK     1      -4.447  14.505  23.270  0.00  0.00    +0.000 OA
ENDBRANCH  29  33
BRANCH  27  37
ATOM     36  C   UNK     1      -0.393  14.908  19.327  0.00  0.00    +0.000 C 
ATOM     37  C   UNK     1       0.122  13.536  19.744  0.00  0.00    +0.000 C 
ENDBRANCH  27  37
BRANCH  30  38
ATOM     38  O   UNK     1      -3.391  11.856  23.869  0.00  0.00    +0.000 OA
ATOM     39  H   UNK     1      -3.120  12.384  24.655  0.00  0.00    +0.000 HD
ENDBRANCH  30  38
ENDBRANCH  26  32
ENDBRANCH  25  26
ENDBRANCH   1  25
TORSDOF 13
ENDMDL
MODEL 5
REMARK VINA RESULT:      -7.7      5.381      8.324
REMARK  Name = 
REMARK  15 active torsions:
REMARK  status: ('A' for Active; 'I' for Inactive)
REMARK    1  A    between atoms: C_1  and  C_2
REMARK    2  A    between atoms: C_2  and  C_3
REMARK    3  A    between atoms: C_5  and  C_6
REMARK    4  A    between atoms: C_6  and  C_7
REMARK    5  A    between atoms: C_9  and  O_10
REMARK    6  A    between atoms: C_12  and  O_13
REMARK    7  A    between atoms: O_13  and  C_14
REMARK    8  A    between atoms: C_14  and  C_15
REMARK    9  A    between atoms: C_19  and  C_20
REMARK   10  A    between atoms: N_22  and  C_23
REMARK   11  A    between atoms: C_23  and  C_24
REMARK   12  A    between atoms: C_23  and  C_32
REMARK   13  A    between atoms: C_24  and  C_25
REMARK   14  A    between atoms: C_28  and  O_29
REMARK   15  A    between atoms: C_32  and  O_34
REMARK                            x       y       z     vdW  Elec       q    Type
REMARK                         _______ _______ _______ _____ _____    ______ ____
ROOT
ATOM      1  C   UNK     1       1.720   8.408  19.475  0.00  0.00    +0.000 A 
ATOM      2  C   UNK     1       1.367   8.936  18.235  0.00  0.00    +0.000 A 
ATOM      3  C   UNK     1       0.563  10.075  18.193  0.00  0.00    +0.000 A 
ATOM      4  C   UNK     1       0.143  10.668  19.381  0.00  0.00    +0.000 A 
ATOM      5  C   UNK     1       0.540  10.088  20.574  0.00  0.00    +0.000 A 
ATOM      6  N   UNK     1       1.313   8.971  20.645  0.00  0.00    +0.000 NA
ENDROOT
BRANCH   5   7
ATOM      7  C   UNK     1       0.088  10.657  21.890  0.00  0.00    +0.000 C 
ATOM      8  O   UNK     1       0.507  10.220  22.952  0.00  0.00    +0.000 OA
ATOM      9  N   UNK     1      -0.796  11.705  21.794  0.00  0.00    +0.000 N 
ATOM     10  H   UNK     1      -1.116  11.963  20.858  0.00  0.00    +0.000 HD
BRANCH   9  11
ATOM     11  C   UNK     1      -1.370  12.410  22.941  0.00  0.00    +0.000 C 
BRANCH  11  12
ATOM     12  C   UNK     1      -2.904  12.272  22.894  0.00  0.00    +0.000 C 
ATOM     13  O   UNK     1      -3.590  11.921  23.845  0.00  0.00    +0.000 OA
BRANCH  12  14
ATOM     14  O   UNK     1      -3.469  12.614  21.709  0.00  0.00    +0.000 OA
ATOM     15  H   UNK     1      -4.189  13.269  21.759  0.00  0.00    +0.000 HD
ENDBRANCH  12  14
ENDBRANCH  11  12
BRANCH  11  16
ATOM     16  C   UNK     1      -0.924  13.881  23.048  0.00  0.00    +0.000 C 
BRANCH  16  17
ATOM     17  C   UNK     1      -0.266  14.449  21.813  0.00  0.00    +0.000 A 
ATOM     18  C   UNK     1      -1.032  14.954  20.751  0.00  0.00    +0.000 A 
ATOM     19  C   UNK     1      -0.412  15.500  19.626  0.00  0.00    +0.000 A 
ATOM     20  C   UNK     1       0.977  15.543  19.564  0.00  0.00    +0.000 A 
ATOM     21  C   UNK     1       1.752  15.038  20.599  0.00  0.00    +0.000 A 
ATOM     22  C   UNK     1       1.133  14.490  21.722  0.00  0.00    +0.000 A 
BRANCH  20  23
ATOM     23  O   UNK     1       1.622  16.087  18.492  0.00  0.00    +0.000 OA
ATOM     24  H   UNK     1       1.743  15.394  17.822  0.00  0.00    +0.000 HD
ENDBRANCH  20  23
ENDBRANCH  16  17
ENDBRANCH  11  16
ENDBRANCH   9  11
ENDBRANCH   5   7
BRANCH   1  25
ATOM     25  C   UNK     1       2.488   7.108  19.597  0.00  0.00    +0.000 C 
BRANCH  25  26
ATOM     26  O   UNK     1       2.171   6.181  18.566  0.00  0.00    +0.000 OA
BRANCH  26  32
ATOM     27  C   UNK     1       3.381   4.352  17.334  0.00  0.00    +0.000 A 
ATOM     28  C   UNK     1       4.555   4.050  16.597  0.00  0.00    +0.000 A 
ATOM     29  C   UNK     1       5.555   4.995  16.351  0.00  0.00    +0.000 A 
ATOM     30  C   UNK     1       5.364   6.284  16.858  0.00  0.00    +0.000 A 
ATOM     31  C   UNK     1       4.204   6.610  17.566  0.00  0.00    +0.000 A 
ATOM     32  C   UNK     1       3.191   5.666  17.806  0.00  0.00    +0.000 A 
BRANCH  29  33
ATOM     33  C   UNK     1       6.810   4.649  15.610  0.00  0.00    +0.000 C 
ATOM     34  C   UNK     1       6.826   4.421  14.120  0.00  0.00    +0.000 C 
ATOM     35  O   UNK     1       7.860   4.551  16.258  0.00  0.00    +0.000 OA
ENDBRANCH  29  33
BRANCH  27  37
ATOM     36  C   UNK     1       3.379   2.045  18.296  0.00  0.00    +0.000 C 
ATOM     37  C   UNK     1       2.531   3.142  17.661  0.00  0.00    +0.000 C 
ENDBRANCH  27  37
BRANCH  30  38
ATOM     38  O   UNK     1       6.288   7.286  16.717  0.00  0.00    +0.000 OA
ATOM     39  H   UNK     1       7.161   6.937  17.011  0.00  0.00    +0.000 HD
ENDBRANCH  30  38
ENDBRANCH  26  32
ENDBRANCH  25  26
ENDBRANCH   1  25
TORSDOF 13
ENDMDL
MODEL 6
REMARK VINA RESULT:      -7.7      4.462      8.957
REMARK  Name = 
REMARK  15 active torsions:
REMARK  status: ('A' for Active; 'I' for Inactive)
REMARK    1  A    between atoms: C_1  and  C_2
REMARK    2  A    between atoms: C_2  and  C_3
REMARK    3  A    between atoms: C_5  and  C_6
REMARK    4  A    between atoms: C_6  and  C_7
REMARK    5  A    between atoms: C_9  and  O_10
REMARK    6  A    between atoms: C_12  and  O_13
REMARK    7  A    between atoms: O_13  and  C_14
REMARK    8  A    between atoms: C_14  and  C_15
REMARK    9  A    between atoms: C_19  and  C_20
REMARK   10  A    between atoms: N_22  and  C_23
REMARK   11  A    between atoms: C_23  and  C_24
REMARK   12  A    between atoms: C_23  and  C_32
REMARK   13  A    between atoms: C_24  and  C_25
REMARK   14  A    between atoms: C_28  and  O_29
REMARK   15  A    between atoms: C_32  and  O_34
REMARK                            x       y       z     vdW  Elec       q    Type
REMARK                         _______ _______ _______ _____ _____    ______ ____
ROOT
ATOM      1  C   UNK     1       2.032   5.063  20.522  0.00  0.00    +0.000 A 
ATOM      2  C   UNK     1       1.260   3.933  20.786  0.00  0.00    +0.000 A 
ATOM      3  C   UNK     1       1.495   2.771  20.051  0.00  0.00    +0.000 A 
ATOM      4  C   UNK     1       2.498   2.756  19.085  0.00  0.00    +0.000 A 
ATOM      5  C   UNK     1       3.228   3.916  18.887  0.00  0.00    +0.000 A 
ATOM      6  N   UNK     1       3.012   5.067  19.579  0.00  0.00    +0.000 NA
ENDROOT
BRANCH   5   7
ATOM      7  C   UNK     1       4.298   3.977  17.832  0.00  0.00    +0.000 C 
ATOM      8  O   UNK     1       4.473   3.056  17.047  0.00  0.00    +0.000 OA
ATOM      9  N   UNK     1       5.026   5.142  17.813  0.00  0.00    +0.000 N 
ATOM     10  H   UNK     1       4.827   5.830  18.542  0.00  0.00    +0.000 HD
BRANCH   9  11
ATOM     11  C   UNK     1       6.117   5.421  16.877  0.00  0.00    +0.000 C 
BRANCH  11  12
ATOM     12  C   UNK     1       7.102   6.402  17.539  0.00  0.00    +0.000 C 
ATOM     13  O   UNK     1       7.420   7.482  17.059  0.00  0.00    +0.000 OA
BRANCH  12  14
ATOM     14  O   UNK     1       7.580   6.002  18.743  0.00  0.00    +0.000 OA
ATOM     15  H   UNK     1       7.791   6.716  19.372  0.00  0.00    +0.000 HD
ENDBRANCH  12  14
ENDBRANCH  11  12
BRANCH  11  16
ATOM     16  C   UNK     1       5.637   5.921  15.501  0.00  0.00    +0.000 C 
BRANCH  16  17
ATOM     17  C   UNK     1       6.076   5.088  14.321  0.00  0.00    +0.000 A 
ATOM     18  C   UNK     1       7.328   5.287  13.719  0.00  0.00    +0.000 A 
ATOM     19  C   UNK     1       7.734   4.492  12.645  0.00  0.00    +0.000 A 
ATOM     20  C   UNK     1       6.886   3.495  12.173  0.00  0.00    +0.000 A 
ATOM     21  C   UNK     1       5.639   3.290  12.748  0.00  0.00    +0.000 A 
ATOM     22  C   UNK     1       5.233   4.086  13.819  0.00  0.00    +0.000 A 
BRANCH  20  23
ATOM     23  O   UNK     1       7.252   2.684  11.140  0.00  0.00    +0.000 OA
ATOM     24  H   UNK     1       8.147   2.349  11.314  0.00  0.00    +0.000 HD
ENDBRANCH  20  23
ENDBRANCH  16  17
ENDBRANCH  11  16
ENDBRANCH   9  11
ENDBRANCH   5   7
BRANCH   1  25
ATOM     25  C   UNK     1       1.754   6.391  21.195  0.00  0.00    +0.000 C 
BRANCH  25  26
ATOM     26  O   UNK     1       1.784   7.487  20.288  0.00  0.00    +0.000 OA
BRANCH  26  32
ATOM     27  C   UNK     1       0.730   9.714  19.779  0.00  0.00    +0.000 A 
ATOM     28  C   UNK     1       0.013  10.798  20.347  0.00  0.00    +0.000 A 
ATOM     29  C   UNK     1      -0.341  10.843  21.698  0.00  0.00    +0.000 A 
ATOM     30  C   UNK     1       0.034   9.761  22.500  0.00  0.00    +0.000 A 
ATOM     31  C   UNK     1       0.719   8.671  21.957  0.00  0.00    +0.000 A 
ATOM     32  C   UNK     1       1.068   8.617  20.596  0.00  0.00    +0.000 A 
BRANCH  29  33
ATOM     33  C   UNK     1      -1.058  12.016  22.293  0.00  0.00    +0.000 C 
ATOM     34  C   UNK     1      -0.456  13.398  22.316  0.00  0.00    +0.000 C 
ATOM     35  O   UNK     1      -2.180  11.827  22.779  0.00  0.00    +0.000 OA
ENDBRANCH  29  33
BRANCH  27  37
ATOM     36  C   UNK     1       1.997  11.247  18.266  0.00  0.00    +0.000 C 
ATOM     37  C   UNK     1       1.191   9.957  18.356  0.00  0.00    +0.000 C 
ENDBRANCH  27  37
BRANCH  30  38
ATOM     38  O   UNK     1      -0.220   9.705  23.846  0.00  0.00    +0.000 OA
ATOM     39  H   UNK     1      -0.919  10.369  24.050  0.00  0.00    +0.000 HD
ENDBRANCH  30  38
ENDBRANCH  26  32
ENDBRANCH  25  26
ENDBRANCH   1  25
TORSDOF 13
ENDMDL
MODEL 7
REMARK VINA RESULT:      -7.7      6.180      8.713
REMARK  Name = 
REMARK  15 active torsions:
REMARK  status: ('A' for Active; 'I' for Inactive)
REMARK    1  A    between atoms: C_1  and  C_2
REMARK    2  A    between atoms: C_2  and  C_3
REMARK    3  A    between atoms: C_5  and  C_6
REMARK    4  A    between atoms: C_6  and  C_7
REMARK    5  A    between atoms: C_9  and  O_10
REMARK    6  A    between atoms: C_12  and  O_13
REMARK    7  A    between atoms: O_13  and  C_14
REMARK    8  A    between atoms: C_14  and  C_15
REMARK    9  A    between atoms: C_19  and  C_20
REMARK   10  A    between atoms: N_22  and  C_23
REMARK   11  A    between atoms: C_23  and  C_24
REMARK   12  A    between atoms: C_23  and  C_32
REMARK   13  A    between atoms: C_24  and  C_25
REMARK   14  A    between atoms: C_28  and  O_29
REMARK   15  A    between atoms: C_32  and  O_34
REMARK                            x       y       z     vdW  Elec       q    Type
REMARK                         _______ _______ _______ _____ _____    ______ ____
ROOT
ATOM      1  C   UNK     1       1.331   8.675  19.618  0.00  0.00    +0.000 A 
ATOM      2  C   UNK     1       1.425   8.247  20.941  0.00  0.00    +0.000 A 
ATOM      3  C   UNK     1       0.723   8.943  21.925  0.00  0.00    +0.000 A 
ATOM      4  C   UNK     1      -0.064  10.035  21.569  0.00  0.00    +0.000 A 
ATOM      5  C   UNK     1      -0.112  10.395  20.233  0.00  0.00    +0.000 A 
ATOM      6  N   UNK     1       0.572   9.743  19.254  0.00  0.00    +0.000 NA
ENDROOT
BRANCH   5   7
ATOM      7  C   UNK     1      -0.911  11.589  19.789  0.00  0.00    +0.000 C 
ATOM      8  O   UNK     1      -1.821  11.483  18.979  0.00  0.00    +0.000 OA
ATOM      9  N   UNK     1      -0.556  12.776  20.382  0.00  0.00    +0.000 N 
ATOM     10  H   UNK     1       0.248  12.762  21.013  0.00  0.00    +0.000 HD
BRANCH   9  11
ATOM     11  C   UNK     1      -1.193  14.065  20.103  0.00  0.00    +0.000 C 
BRANCH  11  12
ATOM     12  C   UNK     1      -0.271  14.888  19.184  0.00  0.00    +0.000 C 
ATOM     13  O   UNK     1       0.879  14.574  18.908  0.00  0.00    +0.000 OA
BRANCH  12  14
ATOM     14  O   UNK     1      -0.845  15.995  18.649  0.00  0.00    +0.000 OA
ATOM     15  H   UNK     1      -1.581  16.377  19.161  0.00  0.00    +0.000 HD
ENDBRANCH  12  14
ENDBRANCH  11  12
BRANCH  11  16
ATOM     16  C   UNK     1      -1.592  14.844  21.371  0.00  0.00    +0.000 C 
BRANCH  16  17
ATOM     17  C   UNK     1      -2.603  14.160  22.260  0.00  0.00    +0.000 A 
ATOM     18  C   UNK     1      -2.496  14.218  23.658  0.00  0.00    +0.000 A 
ATOM     19  C   UNK     1      -3.451  13.604  24.470  0.00  0.00    +0.000 A 
ATOM     20  C   UNK     1      -4.517  12.932  23.882  0.00  0.00    +0.000 A 
ATOM     21  C   UNK     1      -4.635  12.853  22.501  0.00  0.00    +0.000 A 
ATOM     22  C   UNK     1      -3.679  13.464  21.690  0.00  0.00    +0.000 A 
BRANCH  20  23
ATOM     23  O   UNK     1      -5.483  12.336  24.638  0.00  0.00    +0.000 OA
ATOM     24  H   UNK     1      -6.147  11.952  24.042  0.00  0.00    +0.000 HD
ENDBRANCH  20  23
ENDBRANCH  16  17
ENDBRANCH  11  16
ENDBRANCH   9  11
ENDBRANCH   5   7
BRANCH   1  25
ATOM     25  C   UNK     1       2.158   8.043  18.518  0.00  0.00    +0.000 C 
BRANCH  25  26
ATOM     26  O   UNK     1       2.770   6.823  18.917  0.00  0.00    +0.000 OA
BRANCH  26  32
ATOM     27  C   UNK     1       3.425   4.862  17.485  0.00  0.00    +0.000 A 
ATOM     28  C   UNK     1       4.415   4.375  16.593  0.00  0.00    +0.000 A 
ATOM     29  C   UNK     1       5.550   5.114  16.249  0.00  0.00    +0.000 A 
ATOM     30  C   UNK     1       5.689   6.385  16.815  0.00  0.00    +0.000 A 
ATOM     31  C   UNK     1       4.713   6.895  17.676  0.00  0.00    +0.000 A 
ATOM     32  C   UNK     1       3.565   6.159  18.017  0.00  0.00    +0.000 A 
BRANCH  29  33
ATOM     33  C   UNK     1       6.609   4.568  15.342  0.00  0.00    +0.000 C 
ATOM     34  C   UNK     1       6.293   4.032  13.969  0.00  0.00    +0.000 C 
ATOM     35  O   UNK     1       7.778   4.563  15.749  0.00  0.00    +0.000 OA
ENDBRANCH  29  33
BRANCH  27  37
ATOM     36  C   UNK     1       2.985   2.426  17.826  0.00  0.00    +0.000 C 
ATOM     37  C   UNK     1       2.391   3.828  17.882  0.00  0.00    +0.000 C 
ENDBRANCH  27  37
BRANCH  30  38
ATOM     38  O   UNK     1       6.774   7.190  16.587  0.00  0.00    +0.000 OA
ATOM     39  H   UNK     1       7.347   6.745  15.921  0.00  0.00    +0.000 HD
ENDBRANCH  30  38
ENDBRANCH  26  32
ENDBRANCH  25  26
ENDBRANCH   1  25
TORSDOF 13
ENDMDL
MODEL 8
REMARK VINA RESULT:      -7.6      5.923      8.746
REMARK  Name = 
REMARK  15 active torsions:
REMARK  status: ('A' for Active; 'I' for Inactive)
REMARK    1  A    between atoms: C_1  and  C_2
REMARK    2  A    between atoms: C_2  and  C_3
REMARK    3  A    between atoms: C_5  and  C_6
REMARK    4  A    between atoms: C_6  and  C_7
REMARK    5  A    between atoms: C_9  and  O_10
REMARK    6  A    between atoms: C_12  and  O_13
REMARK    7  A    between atoms: O_13  and  C_14
REMARK    8  A    between atoms: C_14  and  C_15
REMARK    9  A    between atoms: C_19  and  C_20
REMARK   10  A    between atoms: N_22  and  C_23
REMARK   11  A    between atoms: C_23  and  C_24
REMARK   12  A    between atoms: C_23  and  C_32
REMARK   13  A    between atoms: C_24  and  C_25
REMARK   14  A    between atoms: C_28  and  O_29
REMARK   15  A    between atoms: C_32  and  O_34
REMARK                            x       y       z     vdW  Elec       q    Type
REMARK                         _______ _______ _______ _____ _____    ______ ____
ROOT
ATOM      1  C   UNK     1       1.660   8.438  19.528  0.00  0.00    +0.000 A 
ATOM      2  C   UNK     1       1.329   8.994  18.294  0.00  0.00    +0.000 A 
ATOM      3  C   UNK     1       0.513  10.125  18.263  0.00  0.00    +0.000 A 
ATOM      4  C   UNK     1       0.061  10.683  19.456  0.00  0.00    +0.000 A 
ATOM      5  C   UNK     1       0.439  10.077  20.642  0.00  0.00    +0.000 A 
ATOM      6  N   UNK     1       1.223   8.967  20.702  0.00  0.00    +0.000 NA
ENDROOT
BRANCH   5   7
ATOM      7  C   UNK     1      -0.048  10.608  21.962  0.00  0.00    +0.000 C 
ATOM      8  O   UNK     1       0.356  10.150  23.022  0.00  0.00    +0.000 OA
ATOM      9  N   UNK     1      -0.943  11.646  21.874  0.00  0.00    +0.000 N 
ATOM     10  H   UNK     1      -1.248  11.923  20.938  0.00  0.00    +0.000 HD
BRANCH   9  11
ATOM     11  C   UNK     1      -1.550  12.315  23.025  0.00  0.00    +0.000 C 
BRANCH  11  12
ATOM     12  C   UNK     1      -3.083  12.263  22.882  0.00  0.00    +0.000 C 
ATOM     13  O   UNK     1      -3.681  12.462  21.832  0.00  0.00    +0.000 OA
BRANCH  12  14
ATOM     14  O   UNK     1      -3.749  11.933  24.017  0.00  0.00    +0.000 OA
ATOM     15  H   UNK     1      -4.107  12.681  24.528  0.00  0.00    +0.000 HD
ENDBRANCH  12  14
ENDBRANCH  11  12
BRANCH  11  16
ATOM     16  C   UNK     1      -1.038  13.752  23.245  0.00  0.00    +0.000 C 
BRANCH  16  17
ATOM     17  C   UNK     1      -1.179  14.677  22.060  0.00  0.00    +0.000 A 
ATOM     18  C   UNK     1      -0.334  14.560  20.945  0.00  0.00    +0.000 A 
ATOM     19  C   UNK     1      -0.490  15.403  19.844  0.00  0.00    +0.000 A 
ATOM     20  C   UNK     1      -1.496  16.365  19.856  0.00  0.00    +0.000 A 
ATOM     21  C   UNK     1      -2.334  16.504  20.954  0.00  0.00    +0.000 A 
ATOM     22  C   UNK     1      -2.176  15.663  22.055  0.00  0.00    +0.000 A 
BRANCH  20  23
ATOM     23  O   UNK     1      -1.695  17.195  18.794  0.00  0.00    +0.000 OA
ATOM     24  H   UNK     1      -2.580  17.589  18.873  0.00  0.00    +0.000 HD
ENDBRANCH  20  23
ENDBRANCH  16  17
ENDBRANCH  11  16
ENDBRANCH   9  11
ENDBRANCH   5   7
BRANCH   1  25
ATOM     25  C   UNK     1       2.440   7.144  19.633  0.00  0.00    +0.000 C 
BRANCH  25  26
ATOM     26  O   UNK     1       2.101   6.210  18.615  0.00  0.00    +0.000 OA
BRANCH  26  32
ATOM     27  C   UNK     1       3.279   4.321  17.444  0.00  0.00    +0.000 A 
ATOM     28  C   UNK     1       4.445   3.977  16.711  0.00  0.00    +0.000 A 
ATOM     29  C   UNK     1       5.456   4.898  16.425  0.00  0.00    +0.000 A 
ATOM     30  C   UNK     1       5.286   6.207  16.886  0.00  0.00    +0.000 A 
ATOM     31  C   UNK     1       4.134   6.575  17.588  0.00  0.00    +0.000 A 
ATOM     32  C   UNK     1       3.110   5.654  17.869  0.00  0.00    +0.000 A 
BRANCH  29  33
ATOM     33  C   UNK     1       6.701   4.509  15.691  0.00  0.00    +0.000 C 
ATOM     34  C   UNK     1       6.698   4.188  14.218  0.00  0.00    +0.000 C 
ATOM     35  O   UNK     1       7.760   4.452  16.329  0.00  0.00    +0.000 OA
ENDBRANCH  29  33
BRANCH  27  37
ATOM     36  C   UNK     1       3.265   1.880  17.981  0.00  0.00    +0.000 C 
ATOM     37  C   UNK     1       2.415   3.136  17.820  0.00  0.00    +0.000 C 
ENDBRANCH  27  37
BRANCH  30  38
ATOM     38  O   UNK     1       6.222   7.191  16.704  0.00  0.00    +0.000 OA
ATOM     39  H   UNK     1       5.858   7.840  16.059  0.00  0.00    +0.000 HD
ENDBRANCH  30  38
ENDBRANCH  26  32
ENDBRANCH  25  26
ENDBRANCH   1  25
TORSDOF 13
ENDMDL
MODEL 9
REMARK VINA RESULT:      -7.6      6.610     10.652
REMARK  Name = 
REMARK  15 active torsions:
REMARK  status: ('A' for Active; 'I' for Inactive)
REMARK    1  A    between atoms: C_1  and  C_2
REMARK    2  A    between atoms: C_2  and  C_3
REMARK    3  A    between atoms: C_5  and  C_6
REMARK    4  A    between atoms: C_6  and  C_7
REMARK    5  A    between atoms: C_9  and  O_10
REMARK    6  A    between atoms: C_12  and  O_13
REMARK    7  A    between atoms: O_13  and  C_14
REMARK    8  A    between atoms: C_14  and  C_15
REMARK    9  A    between atoms: C_19  and  C_20
REMARK   10  A    between atoms: N_22  and  C_23
REMARK   11  A    between atoms: C_23  and  C_24
REMARK   12  A    between atoms: C_23  and  C_32
REMARK   13  A    between atoms: C_24  and  C_25
REMARK   14  A    between atoms: C_28  and  O_29
REMARK   15  A    between atoms: C_32  and  O_34
REMARK                            x       y       z     vdW  Elec       q    Type
REMARK                         _______ _______ _______ _____ _____    ______ ____
ROOT
ATOM      1  C   UNK     1      -0.149  10.451  20.324  0.00  0.00    +0.000 A 
ATOM      2  C   UNK     1      -0.105  10.340  21.713  0.00  0.00    +0.000 A 
ATOM      3  C   UNK     1       0.695   9.350  22.283  0.00  0.00    +0.000 A 
ATOM      4  C   UNK     1       1.439   8.506  21.463  0.00  0.00    +0.000 A 
ATOM      5  C   UNK     1       1.348   8.684  20.093  0.00  0.00    +0.000 A 
ATOM      6  N   UNK     1       0.567   9.632  19.509  0.00  0.00    +0.000 NA
ENDROOT
BRANCH   5   7
ATOM      7  C   UNK     1       2.096   7.781  19.152  0.00  0.00    +0.000 C 
ATOM      8  O   UNK     1       2.816   8.231  18.272  0.00  0.00    +0.000 OA
ATOM      9  N   UNK     1       1.926   6.437  19.381  0.00  0.00    +0.000 N 
ATOM     10  H   UNK     1       1.267   6.168  20.115  0.00  0.00    +0.000 HD
BRANCH   9  11
ATOM     11  C   UNK     1       2.553   5.376  18.591  0.00  0.00    +0.000 C 
BRANCH  11  12
ATOM     12  C   UNK     1       1.650   4.129  18.625  0.00  0.00    +0.000 C 
ATOM     13  O   UNK     1       1.527   3.346  17.692  0.00  0.00    +0.000 OA
BRANCH  12  14
ATOM     14  O   UNK     1       1.012   3.922  19.804  0.00  0.00    +0.000 OA
ATOM     15  H   UNK     1       0.700   3.012  19.960  0.00  0.00    +0.000 HD
ENDBRANCH  12  14
ENDBRANCH  11  12
BRANCH  11  16
ATOM     16  C   UNK     1       3.998   5.057  19.022  0.00  0.00    +0.000 C 
BRANCH  16  17
ATOM     17  C   UNK     1       5.031   5.128  17.923  0.00  0.00    +0.000 A 
ATOM     18  C   UNK     1       6.343   4.672  18.131  0.00  0.00    +0.000 A 
ATOM     19  C   UNK     1       7.282   4.719  17.100  0.00  0.00    +0.000 A 
ATOM     20  C   UNK     1       6.910   5.220  15.857  0.00  0.00    +0.000 A 
ATOM     21  C   UNK     1       5.621   5.686  15.635  0.00  0.00    +0.000 A 
ATOM     22  C   UNK     1       4.683   5.643  16.666  0.00  0.00    +0.000 A 
BRANCH  20  23
ATOM     23  O   UNK     1       7.791   5.264  14.818  0.00  0.00    +0.000 OA
ATOM     24  H   UNK     1       7.402   4.788  14.065  0.00  0.00    +0.000 HD
ENDBRANCH  20  23
ENDBRANCH  16  17
ENDBRANCH  11  16
ENDBRANCH   9  11
ENDBRANCH   5   7
BRANCH   1  25
ATOM     25  C   UNK     1      -1.085  11.421  19.634  0.00  0.00    +0.000 C 
BRANCH  25  26
ATOM     26  O   UNK     1      -1.498  12.488  20.480  0.00  0.00    +0.000 OA
BRANCH  26  32
ATOM     27  C   UNK     1      -3.440  12.767  22.055  0.00  0.00    +0.000 A 
ATOM     28  C   UNK     1      -4.857  12.813  22.130  0.00  0.00    +0.000 A 
ATOM     29  C   UNK     1      -5.677  12.660  21.009  0.00  0.00    +0.000 A 
ATOM     30  C   UNK     1      -5.052  12.461  19.774  0.00  0.00    +0.000 A 
ATOM     31  C   UNK     1      -3.658  12.437  19.673  0.00  0.00    +0.000 A 
ATOM     32  C   UNK     1      -2.829  12.601  20.796  0.00  0.00    +0.000 A 
BRANCH  29  33
ATOM     33  C   UNK     1      -7.171  12.664  21.111  0.00  0.00    +0.000 C 
ATOM     34  C   UNK     1      -7.911  11.796  22.095  0.00  0.00    +0.000 C 
ATOM     35  O   UNK     1      -7.804  13.411  20.354  0.00  0.00    +0.000 OA
ENDBRANCH  29  33
BRANCH  27  37
ATOM     36  C   UNK     1      -3.508  13.610  24.406  0.00  0.00    +0.000 C 
ATOM     37  C   UNK     1      -2.752  12.747  23.404  0.00  0.00    +0.000 C 
ENDBRANCH  27  37
BRANCH  30  38
ATOM     38  O   UNK     1      -5.746  12.259  18.610  0.00  0.00    +0.000 OA
ATOM     39  H   UNK     1      -5.819  13.126  18.147  0.00  0.00    +0.000 HD
ENDBRANCH  30  38
ENDBRANCH  26  32
ENDBRANCH  25  26
ENDBRANCH   1  25
TORSDOF 13
ENDMDL
