MODEL 1
REMARK VINA RESULT:      -7.6      0.000      0.000
REMARK  Name = 
REMARK  7 active torsions:
REMARK  status: ('A' for Active; 'I' for Inactive)
REMARK    1  A    between atoms: C_1  and  C_2
REMARK    2  A    between atoms: C_2  and  C_3
REMARK    3  A    between atoms: C_6  and  C_7
REMARK    4  A    between atoms: C_11  and  O_12
REMARK    5  A    between atoms: O_12  and  C_13
REMARK    6  A    between atoms: C_14  and  O_15
REMARK    7  A    between atoms: O_15  and  C_16
REMARK                            x       y       z     vdW  Elec       q    Type
REMARK                         _______ _______ _______ _____ _____    ______ ____
ROOT
ATOM      1  C   UNL     1       1.892   7.840  19.670  0.00  0.00    +0.000 C 
ATOM      2  C   UNL     1       2.482   8.353  18.569  0.00  0.00    +0.000 C 
ATOM      3  N   UNL     1       3.315   7.711  17.687  0.00  0.00    +0.000 N 
ATOM      4  C   UNL     1       3.901   6.494  18.102  0.00  0.00    +0.000 A 
ATOM      5  C   UNL     1       5.003   5.942  17.415  0.00  0.00    +0.000 A 
ATOM      6  C   UNL     1       5.473   4.669  17.772  0.00  0.00    +0.000 A 
ATOM      7  C   UNL     1       4.807   3.938  18.765  0.00  0.00    +0.000 A 
ATOM      8  C   UNL     1       3.677   4.478  19.438  0.00  0.00    +0.000 A 
ATOM      9  C   UNL     1       2.922   3.755  20.364  0.00  0.00    +0.000 A 
ATOM     10  C   UNL     1       1.826   4.374  20.963  0.00  0.00    +0.000 A 
ATOM     11  N   UNL     1       1.475   5.669  20.771  0.00  0.00    +0.000 NA
ATOM     12  C   UNL     1       2.207   6.377  19.882  0.00  0.00    +0.000 A 
ATOM     13  C   UNL     1       3.270   5.789  19.150  0.00  0.00    +0.000 A 
ATOM     14  H   UNL     1       2.841   7.549  16.797  0.00  0.00    +0.000 HD
ENDROOT
BRANCH   1  18
ATOM     15  C   UNL     1      -0.531  10.345  22.247  0.00  0.00    +0.000 A 
ATOM     16  C   UNL     1       0.404   9.471  22.786  0.00  0.00    +0.000 A 
ATOM     17  C   UNL     1       1.256   8.754  21.949  0.00  0.00    +0.000 A 
ATOM     18  C   UNL     1       1.175   8.834  20.541  0.00  0.00    +0.000 A 
ATOM     19  C   UNL     1       0.278   9.772  20.012  0.00  0.00    +0.000 A 
ATOM     20  C   UNL     1      -0.554  10.529  20.859  0.00  0.00    +0.000 A 
BRANCH  15  22
ATOM     21  C   UNL     1      -1.567  12.564  22.833  0.00  0.00    +0.000 C 
ATOM     22  C   UNL     1      -1.482  11.082  23.160  0.00  0.00    +0.000 C 
ENDBRANCH  15  22
ENDBRANCH   1  18
BRANCH   5  23
ATOM     23  O   UNL     1       5.658   6.561  16.370  0.00  0.00    +0.000 OA
ATOM     24  C   UNL     1       5.245   6.238  15.048  0.00  0.00    +0.000 C 
ENDBRANCH   5  23
BRANCH   6  25
ATOM     25  O   UNL     1       6.564   4.235  17.060  0.00  0.00    +0.000 OA
ATOM     26  C   UNL     1       7.861   4.455  17.586  0.00  0.00    +0.000 C 
ENDBRANCH   6  25
TORSDOF 4
ENDMDL
MODEL 2
REMARK VINA RESULT:      -7.6      3.468      7.952
REMARK  Name = 
REMARK  7 active torsions:
REMARK  status: ('A' for Active; 'I' for Inactive)
REMARK    1  A    between atoms: C_1  and  C_2
REMARK    2  A    between atoms: C_2  and  C_3
REMARK    3  A    between atoms: C_6  and  C_7
REMARK    4  A    between atoms: C_11  and  O_12
REMARK    5  A    between atoms: O_12  and  C_13
REMARK    6  A    between atoms: C_14  and  O_15
REMARK    7  A    between atoms: O_15  and  C_16
REMARK                            x       y       z     vdW  Elec       q    Type
REMARK                         _______ _______ _______ _____ _____    ______ ____
ROOT
ATOM      1  C   UNL     1       1.731   8.435  19.127  0.00  0.00    +0.000 C 
ATOM      2  C   UNL     1       1.419   9.107  17.997  0.00  0.00    +0.000 C 
ATOM      3  N   UNL     1       0.650  10.237  17.878  0.00  0.00    +0.000 N 
ATOM      4  C   UNL     1      -0.183  10.584  18.966  0.00  0.00    +0.000 A 
ATOM      5  C   UNL     1      -1.231  11.516  18.816  0.00  0.00    +0.000 A 
ATOM      6  C   UNL     1      -1.951  11.936  19.945  0.00  0.00    +0.000 A 
ATOM      7  C   UNL     1      -1.583  11.469  21.214  0.00  0.00    +0.000 A 
ATOM      8  C   UNL     1      -0.507  10.554  21.374  0.00  0.00    +0.000 A 
ATOM      9  C   UNL     1      -0.039  10.135  22.621  0.00  0.00    +0.000 A 
ATOM     10  C   UNL     1       1.028   9.240  22.669  0.00  0.00    +0.000 A 
ATOM     11  N   UNL     1       1.610   8.677  21.582  0.00  0.00    +0.000 NA
ATOM     12  C   UNL     1       1.155   9.072  20.371  0.00  0.00    +0.000 A 
ATOM     13  C   UNL     1       0.146  10.060  20.235  0.00  0.00    +0.000 A 
ATOM     14  H   UNL     1       1.232  11.046  17.652  0.00  0.00    +0.000 HD
ENDROOT
BRANCH   1  18
ATOM     15  C   UNL     1       3.450   4.573  18.173  0.00  0.00    +0.000 A 
ATOM     16  C   UNL     1       3.840   5.711  17.479  0.00  0.00    +0.000 A 
ATOM     17  C   UNL     1       3.368   6.963  17.868  0.00  0.00    +0.000 A 
ATOM     18  C   UNL     1       2.445   7.128  18.924  0.00  0.00    +0.000 A 
ATOM     19  C   UNL     1       2.117   5.982  19.660  0.00  0.00    +0.000 A 
ATOM     20  C   UNL     1       2.626   4.721  19.295  0.00  0.00    +0.000 A 
BRANCH  15  22
ATOM     21  C   UNL     1       2.840   2.159  17.798  0.00  0.00    +0.000 C 
ATOM     22  C   UNL     1       3.930   3.216  17.714  0.00  0.00    +0.000 C 
ENDBRANCH  15  22
ENDBRANCH   1  18
BRANCH   5  23
ATOM     23  O   UNL     1      -1.599  12.086  17.614  0.00  0.00    +0.000 OA
ATOM     24  C   UNL     1      -2.458  11.336  16.764  0.00  0.00    +0.000 C 
ENDBRANCH   5  23
BRANCH   6  25
ATOM     25  O   UNL     1      -2.966  12.823  19.686  0.00  0.00    +0.000 OA
ATOM     26  C   UNL     1      -4.182  12.709  20.404  0.00  0.00    +0.000 C 
ENDBRANCH   6  25
TORSDOF 4
ENDMDL
MODEL 3
REMARK VINA RESULT:      -7.4      0.393      1.047
REMARK  Name = 
REMARK  7 active torsions:
REMARK  status: ('A' for Active; 'I' for Inactive)
REMARK    1  A    between atoms: C_1  and  C_2
REMARK    2  A    between atoms: C_2  and  C_3
REMARK    3  A    between atoms: C_6  and  C_7
REMARK    4  A    between atoms: C_11  and  O_12
REMARK    5  A    between atoms: O_12  and  C_13
REMARK    6  A    between atoms: C_14  and  O_15
REMARK    7  A    between atoms: O_15  and  C_16
REMARK                            x       y       z     vdW  Elec       q    Type
REMARK                         _______ _______ _______ _____ _____    ______ ____
ROOT
ATOM      1  C   UNL     1       1.680   7.768  19.661  0.00  0.00    +0.000 C 
ATOM      2  C   UNL     1       2.284   8.296  18.575  0.00  0.00    +0.000 C 
ATOM      3  N   UNL     1       3.196   7.692  17.744  0.00  0.00    +0.000 N 
ATOM      4  C   UNL     1       3.839   6.524  18.212  0.00  0.00    +0.000 A 
ATOM      5  C   UNL     1       5.003   6.031  17.586  0.00  0.00    +0.000 A 
ATOM      6  C   UNL     1       5.538   4.799  17.992  0.00  0.00    +0.000 A 
ATOM      7  C   UNL     1       4.878   4.047  18.973  0.00  0.00    +0.000 A 
ATOM      8  C   UNL     1       3.687   4.525  19.585  0.00  0.00    +0.000 A 
ATOM      9  C   UNL     1       2.939   3.774  20.494  0.00  0.00    +0.000 A 
ATOM     10  C   UNL     1       1.781   4.332  21.030  0.00  0.00    +0.000 A 
ATOM     11  N   UNL     1       1.355   5.597  20.793  0.00  0.00    +0.000 NA
ATOM     12  C   UNL     1       2.079   6.333  19.921  0.00  0.00    +0.000 A 
ATOM     13  C   UNL     1       3.209   5.800  19.248  0.00  0.00    +0.000 A 
ATOM     14  H   UNL     1       2.772   7.481  16.839  0.00  0.00    +0.000 HD
ENDROOT
BRANCH   1  18
ATOM     15  C   UNL     1      -0.289  10.873  21.955  0.00  0.00    +0.000 A 
ATOM     16  C   UNL     1      -0.414  10.828  20.573  0.00  0.00    +0.000 A 
ATOM     17  C   UNL     1       0.127   9.763  19.856  0.00  0.00    +0.000 A 
ATOM     18  C   UNL     1       0.863   8.730  20.477  0.00  0.00    +0.000 A 
ATOM     19  C   UNL     1       0.920   8.750  21.877  0.00  0.00    +0.000 A 
ATOM     20  C   UNL     1       0.337   9.803  22.607  0.00  0.00    +0.000 A 
BRANCH  15  22
ATOM     21  C   UNL     1      -2.282  11.847  23.148  0.00  0.00    +0.000 C 
ATOM     22  C   UNL     1      -0.838  12.055  22.719  0.00  0.00    +0.000 C 
ENDBRANCH  15  22
ENDBRANCH   1  18
BRANCH   5  23
ATOM     23  O   UNL     1       5.664   6.670  16.557  0.00  0.00    +0.000 OA
ATOM     24  C   UNL     1       5.325   6.300  15.226  0.00  0.00    +0.000 C 
ENDBRANCH   5  23
BRANCH   6  25
ATOM     25  O   UNL     1       6.686   4.423  17.338  0.00  0.00    +0.000 OA
ATOM     26  C   UNL     1       7.934   4.589  17.987  0.00  0.00    +0.000 C 
ENDBRANCH   6  25
TORSDOF 4
ENDMDL
MODEL 4
REMARK VINA RESULT:      -7.4      2.138      3.817
REMARK  Name = 
REMARK  7 active torsions:
REMARK  status: ('A' for Active; 'I' for Inactive)
REMARK    1  A    between atoms: C_1  and  C_2
REMARK    2  A    between atoms: C_2  and  C_3
REMARK    3  A    between atoms: C_6  and  C_7
REMARK    4  A    between atoms: C_11  and  O_12
REMARK    5  A    between atoms: O_12  and  C_13
REMARK    6  A    between atoms: C_14  and  O_15
REMARK    7  A    between atoms: O_15  and  C_16
REMARK                            x       y       z     vdW  Elec       q    Type
REMARK                         _______ _______ _______ _____ _____    ______ ____
ROOT
ATOM      1  C   UNL     1       1.735   8.063  19.652  0.00  0.00    +0.000 C 
ATOM      2  C   UNL     1       1.511   7.328  20.762  0.00  0.00    +0.000 C 
ATOM      3  N   UNL     1       2.068   6.118  21.095  0.00  0.00    +0.000 N 
ATOM      4  C   UNL     1       2.691   5.375  20.066  0.00  0.00    +0.000 A 
ATOM      5  C   UNL     1       2.992   4.007  20.232  0.00  0.00    +0.000 A 
ATOM      6  C   UNL     1       3.729   3.336  19.244  0.00  0.00    +0.000 A 
ATOM      7  C   UNL     1       4.206   4.046  18.134  0.00  0.00    +0.000 A 
ATOM      8  C   UNL     1       3.931   5.432  17.978  0.00  0.00    +0.000 A 
ATOM      9  C   UNL     1       4.462   6.204  16.943  0.00  0.00    +0.000 A 
ATOM     10  C   UNL     1       4.138   7.558  16.884  0.00  0.00    +0.000 A 
ATOM     11  N   UNL     1       3.272   8.179  17.722  0.00  0.00    +0.000 NA
ATOM     12  C   UNL     1       2.747   7.434  18.721  0.00  0.00    +0.000 A 
ATOM     13  C   UNL     1       3.111   6.077  18.915  0.00  0.00    +0.000 A 
ATOM     14  H   UNL     1       2.738   6.228  21.858  0.00  0.00    +0.000 HD
ENDROOT
BRANCH   1  18
ATOM     15  C   UNL     1      -1.221  11.212  19.296  0.00  0.00    +0.000 A 
ATOM     16  C   UNL     1      -0.618  10.944  20.517  0.00  0.00    +0.000 A 
ATOM     17  C   UNL     1       0.412  10.008  20.598  0.00  0.00    +0.000 A 
ATOM     18  C   UNL     1       0.843   9.261  19.480  0.00  0.00    +0.000 A 
ATOM     19  C   UNL     1       0.276   9.592  18.243  0.00  0.00    +0.000 A 
ATOM     20  C   UNL     1      -0.735  10.568  18.152  0.00  0.00    +0.000 A 
BRANCH  15  22
ATOM     21  C   UNL     1      -3.569  11.627  18.486  0.00  0.00    +0.000 C 
ATOM     22  C   UNL     1      -2.368  12.193  19.226  0.00  0.00    +0.000 C 
ENDBRANCH  15  22
ENDBRANCH   1  18
BRANCH   5  23
ATOM     23  O   UNL     1       2.632   3.259  21.335  0.00  0.00    +0.000 OA
ATOM     24  C   UNL     1       1.304   2.754  21.385  0.00  0.00    +0.000 C 
ENDBRANCH   5  23
BRANCH   6  25
ATOM     25  O   UNL     1       3.945   2.002  19.491  0.00  0.00    +0.000 OA
ATOM     26  C   UNL     1       3.802   1.074  18.431  0.00  0.00    +0.000 C 
ENDBRANCH   6  25
TORSDOF 4
ENDMDL
MODEL 5
REMARK VINA RESULT:      -7.3      3.440      7.876
REMARK  Name = 
REMARK  7 active torsions:
REMARK  status: ('A' for Active; 'I' for Inactive)
REMARK    1  A    between atoms: C_1  and  C_2
REMARK    2  A    between atoms: C_2  and  C_3
REMARK    3  A    between atoms: C_6  and  C_7
REMARK    4  A    between atoms: C_11  and  O_12
REMARK    5  A    between atoms: O_12  and  C_13
REMARK    6  A    between atoms: C_14  and  O_15
REMARK    7  A    between atoms: O_15  and  C_16
REMARK                            x       y       z     vdW  Elec       q    Type
REMARK                         _______ _______ _______ _____ _____    ______ ____
ROOT
ATOM      1  C   UNL     1       1.672   8.432  19.216  0.00  0.00    +0.000 C 
ATOM      2  C   UNL     1       1.381   9.099  18.078  0.00  0.00    +0.000 C 
ATOM      3  N   UNL     1       0.632  10.241  17.942  0.00  0.00    +0.000 N 
ATOM      4  C   UNL     1      -0.205  10.612  19.019  0.00  0.00    +0.000 A 
ATOM      5  C   UNL     1      -1.236  11.560  18.850  0.00  0.00    +0.000 A 
ATOM      6  C   UNL     1      -1.959  12.002  19.968  0.00  0.00    +0.000 A 
ATOM      7  C   UNL     1      -1.610  11.541  21.245  0.00  0.00    +0.000 A 
ATOM      8  C   UNL     1      -0.551  10.609  21.423  0.00  0.00    +0.000 A 
ATOM      9  C   UNL     1      -0.102  10.194  22.678  0.00  0.00    +0.000 A 
ATOM     10  C   UNL     1       0.950   9.281  22.744  0.00  0.00    +0.000 A 
ATOM     11  N   UNL     1       1.532   8.698  21.667  0.00  0.00    +0.000 NA
ATOM     12  C   UNL     1       1.095   9.090  20.450  0.00  0.00    +0.000 A 
ATOM     13  C   UNL     1       0.104  10.093  20.295  0.00  0.00    +0.000 A 
ATOM     14  H   UNL     1       1.229  11.038  17.714  0.00  0.00    +0.000 HD
ENDROOT
BRANCH   1  18
ATOM     15  C   UNL     1       4.009   4.788  19.033  0.00  0.00    +0.000 A 
ATOM     16  C   UNL     1       3.008   4.938  19.984  0.00  0.00    +0.000 A 
ATOM     17  C   UNL     1       2.188   6.064  19.963  0.00  0.00    +0.000 A 
ATOM     18  C   UNL     1       2.365   7.112  19.032  0.00  0.00    +0.000 A 
ATOM     19  C   UNL     1       3.330   6.914  18.036  0.00  0.00    +0.000 A 
ATOM     20  C   UNL     1       4.133   5.756  18.030  0.00  0.00    +0.000 A 
BRANCH  15  22
ATOM     21  C   UNL     1       4.330   2.447  19.904  0.00  0.00    +0.000 C 
ATOM     22  C   UNL     1       4.924   3.587  19.093  0.00  0.00    +0.000 C 
ENDBRANCH  15  22
ENDBRANCH   1  18
BRANCH   5  23
ATOM     23  O   UNL     1      -1.583  12.125  17.640  0.00  0.00    +0.000 OA
ATOM     24  C   UNL     1      -2.458  11.387  16.795  0.00  0.00    +0.000 C 
ENDBRANCH   5  23
BRANCH   6  25
ATOM     25  O   UNL     1      -2.956  12.904  19.692  0.00  0.00    +0.000 OA
ATOM     26  C   UNL     1      -4.282  12.610  20.096  0.00  0.00    +0.000 C 
ENDBRANCH   6  25
TORSDOF 4
ENDMDL
MODEL 6
REMARK VINA RESULT:      -7.2      3.490      7.942
REMARK  Name = 
REMARK  7 active torsions:
REMARK  status: ('A' for Active; 'I' for Inactive)
REMARK    1  A    between atoms: C_1  and  C_2
REMARK    2  A    between atoms: C_2  and  C_3
REMARK    3  A    between atoms: C_6  and  C_7
REMARK    4  A    between atoms: C_11  and  O_12
REMARK    5  A    between atoms: O_12  and  C_13
REMARK    6  A    between atoms: C_14  and  O_15
REMARK    7  A    between atoms: O_15  and  C_16
REMARK                            x       y       z     vdW  Elec       q    Type
REMARK                         _______ _______ _______ _____ _____    ______ ____
ROOT
ATOM      1  C   UNL     1       1.941   8.676  18.645  0.00  0.00    +0.000 C 
ATOM      2  C   UNL     1       1.875   9.720  17.791  0.00  0.00    +0.000 C 
ATOM      3  N   UNL     1       1.284  10.941  18.002  0.00  0.00    +0.000 N 
ATOM      4  C   UNL     1       0.365  11.052  19.070  0.00  0.00    +0.000 A 
ATOM      5  C   UNL     1      -0.521  12.146  19.160  0.00  0.00    +0.000 A 
ATOM      6  C   UNL     1      -1.325  12.292  20.301  0.00  0.00    +0.000 A 
ATOM      7  C   UNL     1      -1.195  11.384  21.361  0.00  0.00    +0.000 A 
ATOM      8  C   UNL     1      -0.281  10.298  21.287  0.00  0.00    +0.000 A 
ATOM      9  C   UNL     1      -0.044   9.425  22.351  0.00  0.00    +0.000 A 
ATOM     10  C   UNL     1       0.880   8.396  22.179  0.00  0.00    +0.000 A 
ATOM     11  N   UNL     1       1.523   8.126  21.016  0.00  0.00    +0.000 NA
ATOM     12  C   UNL     1       1.292   8.963  19.980  0.00  0.00    +0.000 A 
ATOM     13  C   UNL     1       0.449  10.097  20.107  0.00  0.00    +0.000 A 
ATOM     14  H   UNL     1       1.992  11.669  18.114  0.00  0.00    +0.000 HD
ENDROOT
BRANCH   1  18
ATOM     15  C   UNL     1       3.697   4.896  17.458  0.00  0.00    +0.000 A 
ATOM     16  C   UNL     1       2.390   4.953  17.924  0.00  0.00    +0.000 A 
ATOM     17  C   UNL     1       1.797   6.185  18.195  0.00  0.00    +0.000 A 
ATOM     18  C   UNL     1       2.498   7.405  18.069  0.00  0.00    +0.000 A 
ATOM     19  C   UNL     1       3.790   7.338  17.530  0.00  0.00    +0.000 A 
ATOM     20  C   UNL     1       4.375   6.096  17.215  0.00  0.00    +0.000 A 
BRANCH  15  22
ATOM     21  C   UNL     1       3.580   2.413  17.862  0.00  0.00    +0.000 C 
ATOM     22  C   UNL     1       4.346   3.555  17.212  0.00  0.00    +0.000 C 
ENDBRANCH  15  22
ENDBRANCH   1  18
BRANCH   5  23
ATOM     23  O   UNL     1      -0.646  13.128  18.199  0.00  0.00    +0.000 OA
ATOM     24  C   UNL     1       0.128  14.310  18.359  0.00  0.00    +0.000 C 
ENDBRANCH   5  23
BRANCH   6  25
ATOM     25  O   UNL     1      -2.171  13.374  20.278  0.00  0.00    +0.000 OA
ATOM     26  C   UNL     1      -3.541  13.184  20.580  0.00  0.00    +0.000 C 
ENDBRANCH   6  25
TORSDOF 4
ENDMDL
MODEL 7
REMARK VINA RESULT:      -7.1      2.836      7.985
REMARK  Name = 
REMARK  7 active torsions:
REMARK  status: ('A' for Active; 'I' for Inactive)
REMARK    1  A    between atoms: C_1  and  C_2
REMARK    2  A    between atoms: C_2  and  C_3
REMARK    3  A    between atoms: C_6  and  C_7
REMARK    4  A    between atoms: C_11  and  O_12
REMARK    5  A    between atoms: O_12  and  C_13
REMARK    6  A    between atoms: C_14  and  O_15
REMARK    7  A    between atoms: O_15  and  C_16
REMARK                            x       y       z     vdW  Elec       q    Type
REMARK                         _______ _______ _______ _____ _____    ______ ____
ROOT
ATOM      1  C   UNL     1       4.884   5.464  16.889  0.00  0.00    +0.000 C 
ATOM      2  C   UNL     1       4.667   6.793  16.794  0.00  0.00    +0.000 C 
ATOM      3  N   UNL     1       3.997   7.599  17.681  0.00  0.00    +0.000 N 
ATOM      4  C   UNL     1       3.158   6.976  18.633  0.00  0.00    +0.000 A 
ATOM      5  C   UNL     1       2.195   7.715  19.352  0.00  0.00    +0.000 A 
ATOM      6  C   UNL     1       1.474   7.092  20.382  0.00  0.00    +0.000 A 
ATOM      7  C   UNL     1       1.759   5.762  20.721  0.00  0.00    +0.000 A 
ATOM      8  C   UNL     1       2.751   5.024  20.019  0.00  0.00    +0.000 A 
ATOM      9  C   UNL     1       3.140   3.732  20.380  0.00  0.00    +0.000 A 
ATOM     10  C   UNL     1       4.129   3.097  19.631  0.00  0.00    +0.000 A 
ATOM     11  N   UNL     1       4.699   3.614  18.515  0.00  0.00    +0.000 NA
ATOM     12  C   UNL     1       4.320   4.861  18.155  0.00  0.00    +0.000 A 
ATOM     13  C   UNL     1       3.400   5.617  18.927  0.00  0.00    +0.000 A 
ATOM     14  H   UNL     1       4.650   8.206  18.180  0.00  0.00    +0.000 HD
ENDROOT
BRANCH   1  18
ATOM     15  C   UNL     1       6.556   4.054  13.147  0.00  0.00    +0.000 A 
ATOM     16  C   UNL     1       7.342   4.754  14.053  0.00  0.00    +0.000 A 
ATOM     17  C   UNL     1       6.828   5.104  15.300  0.00  0.00    +0.000 A 
ATOM     18  C   UNL     1       5.496   4.822  15.675  0.00  0.00    +0.000 A 
ATOM     19  C   UNL     1       4.738   4.053  14.781  0.00  0.00    +0.000 A 
ATOM     20  C   UNL     1       5.270   3.662  13.537  0.00  0.00    +0.000 A 
BRANCH  15  22
ATOM     21  C   UNL     1       6.846   2.275  11.389  0.00  0.00    +0.000 C 
ATOM     22  C   UNL     1       7.105   3.721  11.780  0.00  0.00    +0.000 C 
ENDBRANCH  15  22
ENDBRANCH   1  18
BRANCH   5  23
ATOM     23  O   UNL     1       1.916   9.049  19.136  0.00  0.00    +0.000 OA
ATOM     24  C   UNL     1       1.147   9.384  17.988  0.00  0.00    +0.000 C 
ENDBRANCH   5  23
BRANCH   6  25
ATOM     25  O   UNL     1       0.544   7.890  21.001  0.00  0.00    +0.000 OA
ATOM     26  C   UNL     1       0.960   8.743  22.053  0.00  0.00    +0.000 C 
ENDBRANCH   6  25
TORSDOF 4
ENDMDL
MODEL 8
REMARK VINA RESULT:      -6.9      2.127      3.866
REMARK  Name = 
REMARK  7 active torsions:
REMARK  status: ('A' for Active; 'I' for Inactive)
REMARK    1  A    between atoms: C_1  and  C_2
REMARK    2  A    between atoms: C_2  and  C_3
REMARK    3  A    between atoms: C_6  and  C_7
REMARK    4  A    between atoms: C_11  and  O_12
REMARK    5  A    between atoms: O_12  and  C_13
REMARK    6  A    between atoms: C_14  and  O_15
REMARK    7  A    between atoms: O_15  and  C_16
REMARK                            x       y       z     vdW  Elec       q    Type
REMARK                         _______ _______ _______ _____ _____    ______ ____
ROOT
ATOM      1  C   UNL     1       1.655   8.028  19.827  0.00  0.00    +0.000 C 
ATOM      2  C   UNL     1       1.474   7.238  20.907  0.00  0.00    +0.000 C 
ATOM      3  N   UNL     1       2.068   6.028  21.172  0.00  0.00    +0.000 N 
ATOM      4  C   UNL     1       2.685   5.349  20.097  0.00  0.00    +0.000 A 
ATOM      5  C   UNL     1       3.023   3.983  20.194  0.00  0.00    +0.000 A 
ATOM      6  C   UNL     1       3.754   3.376  19.161  0.00  0.00    +0.000 A 
ATOM      7  C   UNL     1       4.188   4.148  18.075  0.00  0.00    +0.000 A 
ATOM      8  C   UNL     1       3.876   5.532  17.988  0.00  0.00    +0.000 A 
ATOM      9  C   UNL     1       4.366   6.364  16.979  0.00  0.00    +0.000 A 
ATOM     10  C   UNL     1       4.007   7.711  16.989  0.00  0.00    +0.000 A 
ATOM     11  N   UNL     1       3.145   8.271  17.873  0.00  0.00    +0.000 NA
ATOM     12  C   UNL     1       2.661   7.468  18.847  0.00  0.00    +0.000 A 
ATOM     13  C   UNL     1       3.063   6.113  18.971  0.00  0.00    +0.000 A 
ATOM     14  H   UNL     1       2.752   6.121  21.925  0.00  0.00    +0.000 HD
ENDROOT
BRANCH   1  18
ATOM     15  C   UNL     1      -0.588  11.725  19.547  0.00  0.00    +0.000 A 
ATOM     16  C   UNL     1      -0.112  11.099  18.402  0.00  0.00    +0.000 A 
ATOM     17  C   UNL     1       0.509   9.855  18.493  0.00  0.00    +0.000 A 
ATOM     18  C   UNL     1       0.731   9.209  19.730  0.00  0.00    +0.000 A 
ATOM     19  C   UNL     1       0.183   9.818  20.867  0.00  0.00    +0.000 A 
ATOM     20  C   UNL     1      -0.482  11.056  20.772  0.00  0.00    +0.000 A 
BRANCH  15  22
ATOM     21  C   UNL     1      -0.313  14.095  18.739  0.00  0.00    +0.000 C 
ATOM     22  C   UNL     1      -1.216  13.095  19.444  0.00  0.00    +0.000 C 
ENDBRANCH  15  22
ENDBRANCH   1  18
BRANCH   5  23
ATOM     23  O   UNL     1       2.706   3.177  21.269  0.00  0.00    +0.000 OA
ATOM     24  C   UNL     1       1.356   2.750  21.397  0.00  0.00    +0.000 C 
ENDBRANCH   5  23
BRANCH   6  25
ATOM     25  O   UNL     1       4.008   2.039  19.341  0.00  0.00    +0.000 OA
ATOM     26  C   UNL     1       3.621   1.122  18.333  0.00  0.00    +0.000 C 
ENDBRANCH   6  25
TORSDOF 4
ENDMDL
MODEL 9
REMARK VINA RESULT:      -6.8      3.667      8.061
REMARK  Name = 
REMARK  7 active torsions:
REMARK  status: ('A' for Active; 'I' for Inactive)
REMARK    1  A    between atoms: C_1  and  C_2
REMARK    2  A    between atoms: C_2  and  C_3
REMARK    3  A    between atoms: C_6  and  C_7
REMARK    4  A    between atoms: C_11  and  O_12
REMARK    5  A    between atoms: O_12  and  C_13
REMARK    6  A    between atoms: C_14  and  O_15
REMARK    7  A    between atoms: O_15  and  C_16
REMARK                            x       y       z     vdW  Elec       q    Type
REMARK                         _______ _______ _______ _____ _____    ______ ____
ROOT
ATOM      1  C   UNL     1       1.437   8.809  19.806  0.00  0.00    +0.000 C 
ATOM      2  C   UNL     1       1.440   9.652  18.751  0.00  0.00    +0.000 C 
ATOM      3  N   UNL     1       0.889  10.907  18.677  0.00  0.00    +0.000 N 
ATOM      4  C   UNL     1      -0.060  11.268  19.660  0.00  0.00    +0.000 A 
ATOM      5  C   UNL     1      -0.907  12.382  19.484  0.00  0.00    +0.000 A 
ATOM      6  C   UNL     1      -1.742  12.790  20.535  0.00  0.00    +0.000 A 
ATOM      7  C   UNL     1      -1.683  12.121  21.765  0.00  0.00    +0.000 A 
ATOM      8  C   UNL     1      -0.809  11.017  21.958  0.00  0.00    +0.000 A 
ATOM      9  C   UNL     1      -0.641  10.380  23.189  0.00  0.00    +0.000 A 
ATOM     10  C   UNL     1       0.248   9.310  23.274  0.00  0.00    +0.000 A 
ATOM     11  N   UNL     1       0.919   8.782  22.221  0.00  0.00    +0.000 NA
ATOM     12  C   UNL     1       0.755   9.389  21.024  0.00  0.00    +0.000 A 
ATOM     13  C   UNL     1      -0.047  10.550  20.876  0.00  0.00    +0.000 A 
ATOM     14  H   UNL     1       1.621  11.620  18.664  0.00  0.00    +0.000 HD
ENDROOT
BRANCH   1  18
ATOM     15  C   UNL     1       2.527   4.751  18.746  0.00  0.00    +0.000 A 
ATOM     16  C   UNL     1       2.824   5.807  17.895  0.00  0.00    +0.000 A 
ATOM     17  C   UNL     1       2.573   7.119  18.295  0.00  0.00    +0.000 A 
ATOM     18  C   UNL     1       1.964   7.428  19.531  0.00  0.00    +0.000 A 
ATOM     19  C   UNL     1       1.736   6.359  20.408  0.00  0.00    +0.000 A 
ATOM     20  C   UNL     1       2.028   5.037  20.022  0.00  0.00    +0.000 A 
BRANCH  15  22
ATOM     21  C   UNL     1       1.667   2.384  18.758  0.00  0.00    +0.000 C 
ATOM     22  C   UNL     1       2.759   3.331  18.286  0.00  0.00    +0.000 C 
ENDBRANCH  15  22
ENDBRANCH   1  18
BRANCH   5  23
ATOM     23  O   UNL     1      -0.961  13.144  18.334  0.00  0.00    +0.000 OA
ATOM     24  C   UNL     1      -0.067  14.244  18.229  0.00  0.00    +0.000 C 
ENDBRANCH   5  23
BRANCH   6  25
ATOM     25  O   UNL     1      -2.544  13.867  20.252  0.00  0.00    +0.000 OA
ATOM     26  C   UNL     1      -2.439  15.033  21.049  0.00  0.00    +0.000 C 
ENDBRANCH   6  25
TORSDOF 4
ENDMDL
