MODEL 1
REMARK VINA RESULT:      -6.4      0.000      0.000
REMARK  Name = 
REMARK  9 active torsions:
REMARK  status: ('A' for Active; 'I' for Inactive)
REMARK    1  A    between atoms: C_1  and  C_2
REMARK    2  A    between atoms: C_2  and  O_3
REMARK    3  A    between atoms: O_3  and  C_4
REMARK    4  A    between atoms: C_7  and  C_8
REMARK    5  A    between atoms: C_9  and  C_10
REMARK    6  A    between atoms: C_10  and  C_12
REMARK    7  A    between atoms: C_17  and  O_18
REMARK    8  A    between atoms: N_21  and  C_22
REMARK    9  A    between atoms: C_22  and  C_23
REMARK                            x       y       z     vdW  Elec       q    Type
REMARK                         _______ _______ _______ _____ _____    ______ ____
ROOT
ATOM      1  C   UNL     1      -1.007  12.114  20.621  0.00  0.00    +0.000 C 
ATOM      2  C   UNL     1      -0.628  10.753  20.126  0.00  0.00    +0.000 C 
ATOM      3  C   UNL     1      -0.176   9.955  21.106  0.00  0.00    +0.000 C 
ATOM      4  C   UNL     1      -0.286  10.716  22.374  0.00  0.00    +0.000 C 
ATOM      5  O   UNL     1      -0.048  10.286  23.487  0.00  0.00    +0.000 OA
ATOM      6  N   UNL     1      -0.739  11.979  22.042  0.00  0.00    +0.000 N 
ENDROOT
BRANCH   1  10
ATOM      7  C   UNL     1       1.213  15.431  18.913  0.00  0.00    +0.000 A 
ATOM      8  C   UNL     1      -0.174  15.488  19.047  0.00  0.00    +0.000 A 
ATOM      9  C   UNL     1      -0.880  14.416  19.595  0.00  0.00    +0.000 A 
ATOM     10  C   UNL     1      -0.209  13.260  20.020  0.00  0.00    +0.000 A 
ATOM     11  C   UNL     1       1.191  13.220  19.893  0.00  0.00    +0.000 A 
ATOM     12  C   UNL     1       1.893  14.288  19.324  0.00  0.00    +0.000 A 
BRANCH   7  13
ATOM     13  O   UNL     1       1.781  16.541  18.357  0.00  0.00    +0.000 OA
BRANCH  13  15
ATOM     14  C   UNL     1       1.175  18.238  16.815  0.00  0.00    +0.000 C 
ATOM     15  C   UNL     1       0.941  17.684  18.209  0.00  0.00    +0.000 C 
ENDBRANCH  13  15
ENDBRANCH   7  13
ENDBRANCH   1  10
BRANCH   2  16
ATOM     16  C   UNL     1      -0.656  10.292  18.721  0.00  0.00    +0.000 C 
ATOM     17  O   UNL     1       0.361   9.738  18.289  0.00  0.00    +0.000 OA
BRANCH  16  18
ATOM     18  C   UNL     1      -1.833  10.470  17.898  0.00  0.00    +0.000 A 
ATOM     19  C   UNL     1      -2.190  11.514  17.061  0.00  0.00    +0.000 A 
ATOM     20  C   UNL     1      -3.433  11.170  16.480  0.00  0.00    +0.000 A 
ATOM     21  C   UNL     1      -3.762   9.936  16.990  0.00  0.00    +0.000 A 
ATOM     22  O   UNL     1      -2.793   9.498  17.832  0.00  0.00    +0.000 OA
ENDBRANCH  16  18
ENDBRANCH   2  16
BRANCH   3  23
ATOM     23  O   UNL     1       0.301   8.677  21.021  0.00  0.00    +0.000 OA
ATOM     24  H   UNL     1      -0.204   8.219  20.317  0.00  0.00    +0.000 HD
ENDBRANCH   3  23
BRANCH   6  25
ATOM     25  C   UNL     1      -1.138  12.964  23.034  0.00  0.00    +0.000 C 
BRANCH  25  26
ATOM     26  C   UNL     1      -2.629  13.142  23.118  0.00  0.00    +0.000 A 
ATOM     27  C   UNL     1      -3.273  14.221  22.504  0.00  0.00    +0.000 A 
ATOM     28  C   UNL     1      -4.654  14.357  22.610  0.00  0.00    +0.000 A 
ATOM     29  C   UNL     1      -5.352  13.402  23.327  0.00  0.00    +0.000 A 
ATOM     30  N   UNL     1      -4.773  12.337  23.921  0.00  0.00    +0.000 NA
ATOM     31  C   UNL     1      -3.431  12.227  23.795  0.00  0.00    +0.000 A 
ENDBRANCH  25  26
ENDBRANCH   6  25
TORSDOF 8
ENDMDL
MODEL 2
REMARK VINA RESULT:      -6.3      0.960      1.167
REMARK  Name = 
REMARK  9 active torsions:
REMARK  status: ('A' for Active; 'I' for Inactive)
REMARK    1  A    between atoms: C_1  and  C_2
REMARK    2  A    between atoms: C_2  and  O_3
REMARK    3  A    between atoms: O_3  and  C_4
REMARK    4  A    between atoms: C_7  and  C_8
REMARK    5  A    between atoms: C_9  and  C_10
REMARK    6  A    between atoms: C_10  and  C_12
REMARK    7  A    between atoms: C_17  and  O_18
REMARK    8  A    between atoms: N_21  and  C_22
REMARK    9  A    between atoms: C_22  and  C_23
REMARK                            x       y       z     vdW  Elec       q    Type
REMARK                         _______ _______ _______ _____ _____    ______ ____
ROOT
ATOM      1  C   UNL     1      -0.905  12.104  20.547  0.00  0.00    +0.000 C 
ATOM      2  C   UNL     1      -0.590  10.718  20.076  0.00  0.00    +0.000 C 
ATOM      3  C   UNL     1      -0.216   9.907  21.077  0.00  0.00    +0.000 C 
ATOM      4  C   UNL     1      -0.321  10.687  22.334  0.00  0.00    +0.000 C 
ATOM      5  O   UNL     1      -0.143  10.256  23.457  0.00  0.00    +0.000 OA
ATOM      6  N   UNL     1      -0.689  11.970  21.977  0.00  0.00    +0.000 N 
ENDROOT
BRANCH   1  10
ATOM      7  C   UNL     1       1.553  15.268  18.875  0.00  0.00    +0.000 A 
ATOM      8  C   UNL     1       0.162  15.373  18.894  0.00  0.00    +0.000 A 
ATOM      9  C   UNL     1      -0.620  14.350  19.431  0.00  0.00    +0.000 A 
ATOM     10  C   UNL     1      -0.024  13.196  19.961  0.00  0.00    +0.000 A 
ATOM     11  C   UNL     1       1.380  13.108  19.949  0.00  0.00    +0.000 A 
ATOM     12  C   UNL     1       2.160  14.126  19.391  0.00  0.00    +0.000 A 
BRANCH   7  13
ATOM     13  O   UNL     1       2.200  16.333  18.317  0.00  0.00    +0.000 OA
BRANCH  13  15
ATOM     14  C   UNL     1       4.543  16.633  18.525  0.00  0.00    +0.000 C 
ATOM     15  C   UNL     1       3.436  16.058  17.660  0.00  0.00    +0.000 C 
ENDBRANCH  13  15
ENDBRANCH   7  13
ENDBRANCH   1  10
BRANCH   2  16
ATOM     16  C   UNL     1      -0.602  10.245  18.675  0.00  0.00    +0.000 C 
ATOM     17  O   UNL     1       0.426   9.701  18.255  0.00  0.00    +0.000 OA
BRANCH  16  18
ATOM     18  C   UNL     1      -1.775  10.398  17.842  0.00  0.00    +0.000 A 
ATOM     19  C   UNL     1      -2.919   9.623  17.757  0.00  0.00    +0.000 A 
ATOM     20  C   UNL     1      -3.760  10.232  16.798  0.00  0.00    +0.000 A 
ATOM     21  C   UNL     1      -3.086  11.346  16.355  0.00  0.00    +0.000 A 
ATOM     22  O   UNL     1      -1.895  11.465  16.994  0.00  0.00    +0.000 OA
ENDBRANCH  16  18
ENDBRANCH   2  16
BRANCH   3  23
ATOM     23  O   UNL     1       0.189   8.602  21.019  0.00  0.00    +0.000 OA
ATOM     24  H   UNL     1       0.462   8.336  21.921  0.00  0.00    +0.000 HD
ENDBRANCH   3  23
BRANCH   6  25
ATOM     25  C   UNL     1      -1.061  12.986  22.947  0.00  0.00    +0.000 C 
BRANCH  25  26
ATOM     26  C   UNL     1      -2.550  13.161  23.073  0.00  0.00    +0.000 A 
ATOM     27  C   UNL     1      -3.210  14.249  22.492  0.00  0.00    +0.000 A 
ATOM     28  C   UNL     1      -4.588  14.383  22.636  0.00  0.00    +0.000 A 
ATOM     29  C   UNL     1      -5.267  13.416  23.356  0.00  0.00    +0.000 A 
ATOM     30  N   UNL     1      -4.671  12.342  23.918  0.00  0.00    +0.000 NA
ATOM     31  C   UNL     1      -3.333  12.236  23.756  0.00  0.00    +0.000 A 
ENDBRANCH  25  26
ENDBRANCH   6  25
TORSDOF 8
ENDMDL
MODEL 3
REMARK VINA RESULT:      -6.1      0.510      1.122
REMARK  Name = 
REMARK  9 active torsions:
REMARK  status: ('A' for Active; 'I' for Inactive)
REMARK    1  A    between atoms: C_1  and  C_2
REMARK    2  A    between atoms: C_2  and  O_3
REMARK    3  A    between atoms: O_3  and  C_4
REMARK    4  A    between atoms: C_7  and  C_8
REMARK    5  A    between atoms: C_9  and  C_10
REMARK    6  A    between atoms: C_10  and  C_12
REMARK    7  A    between atoms: C_17  and  O_18
REMARK    8  A    between atoms: N_21  and  C_22
REMARK    9  A    between atoms: C_22  and  C_23
REMARK                            x       y       z     vdW  Elec       q    Type
REMARK                         _______ _______ _______ _____ _____    ______ ____
ROOT
ATOM      1  C   UNL     1      -1.054  12.051  20.738  0.00  0.00    +0.000 C 
ATOM      2  C   UNL     1      -0.659  10.699  20.230  0.00  0.00    +0.000 C 
ATOM      3  C   UNL     1      -0.200   9.897  21.203  0.00  0.00    +0.000 C 
ATOM      4  C   UNL     1      -0.319  10.645  22.477  0.00  0.00    +0.000 C 
ATOM      5  O   UNL     1      -0.078  10.207  23.586  0.00  0.00    +0.000 OA
ATOM      6  N   UNL     1      -0.785  11.906  22.157  0.00  0.00    +0.000 N 
ENDROOT
BRANCH   1  10
ATOM      7  C   UNL     1       1.253  15.322  19.055  0.00  0.00    +0.000 A 
ATOM      8  C   UNL     1       1.883  14.240  19.669  0.00  0.00    +0.000 A 
ATOM      9  C   UNL     1       1.134  13.194  20.209  0.00  0.00    +0.000 A 
ATOM     10  C   UNL     1      -0.268  13.211  20.148  0.00  0.00    +0.000 A 
ATOM     11  C   UNL     1      -0.891  14.301  19.514  0.00  0.00    +0.000 A 
ATOM     12  C   UNL     1      -0.137  15.358  18.992  0.00  0.00    +0.000 A 
BRANCH   7  13
ATOM     13  O   UNL     1       2.098  16.280  18.575  0.00  0.00    +0.000 OA
BRANCH  13  15
ATOM     14  C   UNL     1       2.232  17.946  20.257  0.00  0.00    +0.000 C 
ATOM     15  C   UNL     1       1.753  17.636  18.851  0.00  0.00    +0.000 C 
ENDBRANCH  13  15
ENDBRANCH   7  13
ENDBRANCH   1  10
BRANCH   2  16
ATOM     16  C   UNL     1      -0.681  10.252  18.820  0.00  0.00    +0.000 C 
ATOM     17  O   UNL     1       0.330   9.683  18.393  0.00  0.00    +0.000 OA
BRANCH  16  18
ATOM     18  C   UNL     1      -1.847  10.457  17.987  0.00  0.00    +0.000 A 
ATOM     19  C   UNL     1      -2.201  11.538  17.197  0.00  0.00    +0.000 A 
ATOM     20  C   UNL     1      -3.430  11.210  16.579  0.00  0.00    +0.000 A 
ATOM     21  C   UNL     1      -3.754   9.949  17.021  0.00  0.00    +0.000 A 
ATOM     22  O   UNL     1      -2.794   9.479  17.857  0.00  0.00    +0.000 OA
ENDBRANCH  16  18
ENDBRANCH   2  16
BRANCH   3  23
ATOM     23  O   UNL     1       0.291   8.625  21.106  0.00  0.00    +0.000 OA
ATOM     24  H   UNL     1      -0.396   8.075  20.675  0.00  0.00    +0.000 HD
ENDBRANCH   3  23
BRANCH   6  25
ATOM     25  C   UNL     1      -1.196  12.877  23.158  0.00  0.00    +0.000 C 
BRANCH  25  26
ATOM     26  C   UNL     1      -2.683  13.101  23.184  0.00  0.00    +0.000 A 
ATOM     27  C   UNL     1      -3.268  14.205  22.556  0.00  0.00    +0.000 A 
ATOM     28  C   UNL     1      -4.647  14.384  22.607  0.00  0.00    +0.000 A 
ATOM     29  C   UNL     1      -5.403  13.445  23.285  0.00  0.00    +0.000 A 
ATOM     30  N   UNL     1      -4.882  12.356  23.890  0.00  0.00    +0.000 NA
ATOM     31  C   UNL     1      -3.540  12.205  23.818  0.00  0.00    +0.000 A 
ENDBRANCH  25  26
ENDBRANCH   6  25
TORSDOF 8
ENDMDL
MODEL 4
REMARK VINA RESULT:      -6.1      0.942      1.180
REMARK  Name = 
REMARK  9 active torsions:
REMARK  status: ('A' for Active; 'I' for Inactive)
REMARK    1  A    between atoms: C_1  and  C_2
REMARK    2  A    between atoms: C_2  and  O_3
REMARK    3  A    between atoms: O_3  and  C_4
REMARK    4  A    between atoms: C_7  and  C_8
REMARK    5  A    between atoms: C_9  and  C_10
REMARK    6  A    between atoms: C_10  and  C_12
REMARK    7  A    between atoms: C_17  and  O_18
REMARK    8  A    between atoms: N_21  and  C_22
REMARK    9  A    between atoms: C_22  and  C_23
REMARK                            x       y       z     vdW  Elec       q    Type
REMARK                         _______ _______ _______ _____ _____    ______ ____
ROOT
ATOM      1  C   UNL     1      -0.853  12.281  20.700  0.00  0.00    +0.000 C 
ATOM      2  C   UNL     1      -0.556  10.904  20.192  0.00  0.00    +0.000 C 
ATOM      3  C   UNL     1      -0.271  10.041  21.179  0.00  0.00    +0.000 C 
ATOM      4  C   UNL     1      -0.427  10.774  22.458  0.00  0.00    +0.000 C 
ATOM      5  O   UNL     1      -0.332  10.293  23.572  0.00  0.00    +0.000 OA
ATOM      6  N   UNL     1      -0.730  12.082  22.134  0.00  0.00    +0.000 N 
ENDROOT
BRANCH   1  10
ATOM      7  C   UNL     1       1.806  15.419  19.312  0.00  0.00    +0.000 A 
ATOM      8  C   UNL     1       0.421  15.575  19.259  0.00  0.00    +0.000 A 
ATOM      9  C   UNL     1      -0.426  14.561  19.705  0.00  0.00    +0.000 A 
ATOM     10  C   UNL     1       0.098  13.362  20.214  0.00  0.00    +0.000 A 
ATOM     11  C   UNL     1       1.496  13.222  20.275  0.00  0.00    +0.000 A 
ATOM     12  C   UNL     1       2.342  14.234  19.807  0.00  0.00    +0.000 A 
BRANCH   7  13
ATOM     13  O   UNL     1       2.521  16.481  18.839  0.00  0.00    +0.000 OA
BRANCH  13  15
ATOM     14  C   UNL     1       2.576  17.291  16.611  0.00  0.00    +0.000 C 
ATOM     15  C   UNL     1       3.183  16.302  17.589  0.00  0.00    +0.000 C 
ENDBRANCH  13  15
ENDBRANCH   7  13
ENDBRANCH   1  10
BRANCH   2  16
ATOM     16  C   UNL     1      -0.498  10.487  18.774  0.00  0.00    +0.000 C 
ATOM     17  O   UNL     1       0.579  10.044  18.361  0.00  0.00    +0.000 OA
BRANCH  16  18
ATOM     18  C   UNL     1      -1.661  10.580  17.917  0.00  0.00    +0.000 A 
ATOM     19  C   UNL     1      -2.710  11.484  17.929  0.00  0.00    +0.000 A 
ATOM     20  C   UNL     1      -3.568  11.133  16.862  0.00  0.00    +0.000 A 
ATOM     21  C   UNL     1      -2.994  10.039  16.257  0.00  0.00    +0.000 A 
ATOM     22  O   UNL     1      -1.833   9.711  16.876  0.00  0.00    +0.000 OA
ENDBRANCH  16  18
ENDBRANCH   2  16
BRANCH   3  23
ATOM     23  O   UNL     1       0.093   8.726  21.090  0.00  0.00    +0.000 OA
ATOM     24  H   UNL     1      -0.696   8.219  20.804  0.00  0.00    +0.000 HD
ENDBRANCH   3  23
BRANCH   6  25
ATOM     25  C   UNL     1      -1.126  13.072  23.121  0.00  0.00    +0.000 C 
BRANCH  25  26
ATOM     26  C   UNL     1      -2.603  13.358  23.106  0.00  0.00    +0.000 A 
ATOM     27  C   UNL     1      -3.518  12.513  23.741  0.00  0.00    +0.000 A 
ATOM     28  C   UNL     1      -4.878  12.806  23.700  0.00  0.00    +0.000 A 
ATOM     29  C   UNL     1      -5.282  13.943  23.025  0.00  0.00    +0.000 A 
ATOM     30  N   UNL     1      -4.431  14.795  22.412  0.00  0.00    +0.000 NA
ATOM     31  C   UNL     1      -3.115  14.488  22.476  0.00  0.00    +0.000 A 
ENDBRANCH  25  26
ENDBRANCH   6  25
TORSDOF 8
ENDMDL
MODEL 5
REMARK VINA RESULT:      -6.1      0.670      1.308
REMARK  Name = 
REMARK  9 active torsions:
REMARK  status: ('A' for Active; 'I' for Inactive)
REMARK    1  A    between atoms: C_1  and  C_2
REMARK    2  A    between atoms: C_2  and  O_3
REMARK    3  A    between atoms: O_3  and  C_4
REMARK    4  A    between atoms: C_7  and  C_8
REMARK    5  A    between atoms: C_9  and  C_10
REMARK    6  A    between atoms: C_10  and  C_12
REMARK    7  A    between atoms: C_17  and  O_18
REMARK    8  A    between atoms: N_21  and  C_22
REMARK    9  A    between atoms: C_22  and  C_23
REMARK                            x       y       z     vdW  Elec       q    Type
REMARK                         _______ _______ _______ _____ _____    ______ ____
ROOT
ATOM      1  C   UNL     1      -1.081  12.157  20.636  0.00  0.00    +0.000 C 
ATOM      2  C   UNL     1      -0.693  10.800  20.134  0.00  0.00    +0.000 C 
ATOM      3  C   UNL     1      -0.231  10.004  21.109  0.00  0.00    +0.000 C 
ATOM      4  C   UNL     1      -0.340  10.759  22.380  0.00  0.00    +0.000 C 
ATOM      5  O   UNL     1      -0.092  10.328  23.490  0.00  0.00    +0.000 OA
ATOM      6  N   UNL     1      -0.804  12.019  22.055  0.00  0.00    +0.000 N 
ENDROOT
BRANCH   1  10
ATOM      7  C   UNL     1       1.222  15.409  18.915  0.00  0.00    +0.000 A 
ATOM      8  C   UNL     1       1.854  14.295  19.467  0.00  0.00    +0.000 A 
ATOM      9  C   UNL     1       1.106  13.255  20.020  0.00  0.00    +0.000 A 
ATOM     10  C   UNL     1      -0.296  13.311  20.034  0.00  0.00    +0.000 A 
ATOM     11  C   UNL     1      -0.922  14.433  19.462  0.00  0.00    +0.000 A 
ATOM     12  C   UNL     1      -0.168  15.483  18.927  0.00  0.00    +0.000 A 
BRANCH   7  13
ATOM     13  O   UNL     1       2.067  16.357  18.414  0.00  0.00    +0.000 OA
BRANCH  13  15
ATOM     14  C   UNL     1       1.494  18.048  16.853  0.00  0.00    +0.000 C 
ATOM     15  C   UNL     1       1.558  17.687  18.326  0.00  0.00    +0.000 C 
ENDBRANCH  13  15
ENDBRANCH   7  13
ENDBRANCH   1  10
BRANCH   2  16
ATOM     16  C   UNL     1      -0.726  10.344  18.727  0.00  0.00    +0.000 C 
ATOM     17  O   UNL     1       0.292   9.798  18.289  0.00  0.00    +0.000 OA
BRANCH  16  18
ATOM     18  C   UNL     1      -1.908  10.518  17.910  0.00  0.00    +0.000 A 
ATOM     19  C   UNL     1      -2.968  11.398  18.047  0.00  0.00    +0.000 A 
ATOM     20  C   UNL     1      -3.844  11.160  16.964  0.00  0.00    +0.000 A 
ATOM     21  C   UNL     1      -3.269  10.152  16.225  0.00  0.00    +0.000 A 
ATOM     22  O   UNL     1      -2.091   9.772  16.779  0.00  0.00    +0.000 OA
ENDBRANCH  16  18
ENDBRANCH   2  16
BRANCH   3  23
ATOM     23  O   UNL     1       0.257   8.730  21.017  0.00  0.00    +0.000 OA
ATOM     24  H   UNL     1      -0.420   8.126  21.389  0.00  0.00    +0.000 HD
ENDBRANCH   3  23
BRANCH   6  25
ATOM     25  C   UNL     1      -1.206  12.997  23.052  0.00  0.00    +0.000 C 
BRANCH  25  26
ATOM     26  C   UNL     1      -2.698  13.177  23.132  0.00  0.00    +0.000 A 
ATOM     27  C   UNL     1      -3.488  12.372  23.959  0.00  0.00    +0.000 A 
ATOM     28  C   UNL     1      -4.866  12.562  24.001  0.00  0.00    +0.000 A 
ATOM     29  C   UNL     1      -5.413  13.559  23.213  0.00  0.00    +0.000 A 
ATOM     30  N   UNL     1      -4.685  14.368  22.414  0.00  0.00    +0.000 NA
ATOM     31  C   UNL     1      -3.348  14.165  22.400  0.00  0.00    +0.000 A 
ENDBRANCH  25  26
ENDBRANCH   6  25
TORSDOF 8
ENDMDL
MODEL 6
REMARK VINA RESULT:      -6.1      2.884      6.352
REMARK  Name = 
REMARK  9 active torsions:
REMARK  status: ('A' for Active; 'I' for Inactive)
REMARK    1  A    between atoms: C_1  and  C_2
REMARK    2  A    between atoms: C_2  and  O_3
REMARK    3  A    between atoms: O_3  and  C_4
REMARK    4  A    between atoms: C_7  and  C_8
REMARK    5  A    between atoms: C_9  and  C_10
REMARK    6  A    between atoms: C_10  and  C_12
REMARK    7  A    between atoms: C_17  and  O_18
REMARK    8  A    between atoms: N_21  and  C_22
REMARK    9  A    between atoms: C_22  and  C_23
REMARK                            x       y       z     vdW  Elec       q    Type
REMARK                         _______ _______ _______ _____ _____    ______ ____
ROOT
ATOM      1  C   UNL     1       0.440  12.509  19.704  0.00  0.00    +0.000 C 
ATOM      2  C   UNL     1      -0.932  12.711  20.269  0.00  0.00    +0.000 C 
ATOM      3  C   UNL     1      -0.923  13.436  21.397  0.00  0.00    +0.000 C 
ATOM      4  C   UNL     1       0.481  13.842  21.644  0.00  0.00    +0.000 C 
ATOM      5  O   UNL     1       0.864  14.580  22.532  0.00  0.00    +0.000 OA
ATOM      6  N   UNL     1       1.246  13.252  20.657  0.00  0.00    +0.000 N 
ENDROOT
BRANCH   1  10
ATOM      7  C   UNL     1       1.689   8.355  19.524  0.00  0.00    +0.000 A 
ATOM      8  C   UNL     1       1.177   8.900  20.701  0.00  0.00    +0.000 A 
ATOM      9  C   UNL     1       0.779  10.237  20.751  0.00  0.00    +0.000 A 
ATOM     10  C   UNL     1       0.890  11.059  19.619  0.00  0.00    +0.000 A 
ATOM     11  C   UNL     1       1.395  10.493  18.434  0.00  0.00    +0.000 A 
ATOM     12  C   UNL     1       1.811   9.158  18.394  0.00  0.00    +0.000 A 
BRANCH   7  13
ATOM     13  O   UNL     1       2.046   7.040  19.610  0.00  0.00    +0.000 OA
BRANCH  13  15
ATOM     14  C   UNL     1       2.294   5.290  18.029  0.00  0.00    +0.000 C 
ATOM     15  C   UNL     1       2.924   6.547  18.600  0.00  0.00    +0.000 C 
ENDBRANCH  13  15
ENDBRANCH   7  13
ENDBRANCH   1  10
BRANCH   2  16
ATOM     16  C   UNL     1      -2.191  12.147  19.734  0.00  0.00    +0.000 C 
ATOM     17  O   UNL     1      -3.228  12.390  20.362  0.00  0.00    +0.000 OA
BRANCH  16  18
ATOM     18  C   UNL     1      -2.204  11.363  18.518  0.00  0.00    +0.000 A 
ATOM     19  C   UNL     1      -2.235   9.990  18.341  0.00  0.00    +0.000 A 
ATOM     20  C   UNL     1      -2.255   9.755  16.946  0.00  0.00    +0.000 A 
ATOM     21  C   UNL     1      -2.241  10.995  16.352  0.00  0.00    +0.000 A 
ATOM     22  O   UNL     1      -2.229  11.971  17.294  0.00  0.00    +0.000 OA
ENDBRANCH  16  18
ENDBRANCH   2  16
BRANCH   3  23
ATOM     23  O   UNL     1      -1.971  13.775  22.207  0.00  0.00    +0.000 OA
ATOM     24  H   UNL     1      -2.731  13.207  21.961  0.00  0.00    +0.000 HD
ENDBRANCH   3  23
BRANCH   6  25
ATOM     25  C   UNL     1       2.654  13.554  20.457  0.00  0.00    +0.000 C 
BRANCH  25  26
ATOM     26  C   UNL     1       2.882  14.663  19.467  0.00  0.00    +0.000 A 
ATOM     27  C   UNL     1       3.294  14.400  18.156  0.00  0.00    +0.000 A 
ATOM     28  C   UNL     1       3.502  15.452  17.269  0.00  0.00    +0.000 A 
ATOM     29  C   UNL     1       3.288  16.741  17.723  0.00  0.00    +0.000 A 
ATOM     30  N   UNL     1       2.875  17.038  18.974  0.00  0.00    +0.000 NA
ATOM     31  C   UNL     1       2.673  15.995  19.810  0.00  0.00    +0.000 A 
ENDBRANCH  25  26
ENDBRANCH   6  25
TORSDOF 8
ENDMDL
MODEL 7
REMARK VINA RESULT:      -6.1      2.735      4.447
REMARK  Name = 
REMARK  9 active torsions:
REMARK  status: ('A' for Active; 'I' for Inactive)
REMARK    1  A    between atoms: C_1  and  C_2
REMARK    2  A    between atoms: C_2  and  O_3
REMARK    3  A    between atoms: O_3  and  C_4
REMARK    4  A    between atoms: C_7  and  C_8
REMARK    5  A    between atoms: C_9  and  C_10
REMARK    6  A    between atoms: C_10  and  C_12
REMARK    7  A    between atoms: C_17  and  O_18
REMARK    8  A    between atoms: N_21  and  C_22
REMARK    9  A    between atoms: C_22  and  C_23
REMARK                            x       y       z     vdW  Elec       q    Type
REMARK                         _______ _______ _______ _____ _____    ______ ____
ROOT
ATOM      1  C   UNL     1      -0.068  11.233  20.263  0.00  0.00    +0.000 C 
ATOM      2  C   UNL     1       0.203  10.342  21.435  0.00  0.00    +0.000 C 
ATOM      3  C   UNL     1      -0.654  10.546  22.447  0.00  0.00    +0.000 C 
ATOM      4  C   UNL     1      -1.630  11.564  21.993  0.00  0.00    +0.000 C 
ATOM      5  O   UNL     1      -2.607  11.942  22.613  0.00  0.00    +0.000 OA
ATOM      6  N   UNL     1      -1.232  11.965  20.733  0.00  0.00    +0.000 N 
ENDROOT
BRANCH   1  10
ATOM      7  C   UNL     1       3.181  13.949  19.307  0.00  0.00    +0.000 A 
ATOM      8  C   UNL     1       2.640  13.901  20.592  0.00  0.00    +0.000 A 
ATOM      9  C   UNL     1       1.594  13.027  20.890  0.00  0.00    +0.000 A 
ATOM     10  C   UNL     1       1.065  12.181  19.903  0.00  0.00    +0.000 A 
ATOM     11  C   UNL     1       1.629  12.229  18.615  0.00  0.00    +0.000 A 
ATOM     12  C   UNL     1       2.663  13.121  18.315  0.00  0.00    +0.000 A 
BRANCH   7  13
ATOM     13  O   UNL     1       4.194  14.851  19.146  0.00  0.00    +0.000 OA
BRANCH  13  15
ATOM     14  C   UNL     1       6.151  14.645  17.823  0.00  0.00    +0.000 C 
ATOM     15  C   UNL     1       4.684  15.032  17.819  0.00  0.00    +0.000 C 
ENDBRANCH  13  15
ENDBRANCH   7  13
ENDBRANCH   1  10
BRANCH   2  16
ATOM     16  C   UNL     1       1.314   9.373  21.560  0.00  0.00    +0.000 C 
ATOM     17  O   UNL     1       1.936   9.363  22.628  0.00  0.00    +0.000 OA
BRANCH  16  18
ATOM     18  C   UNL     1       1.641   8.465  20.481  0.00  0.00    +0.000 A 
ATOM     19  C   UNL     1       1.837   8.713  19.133  0.00  0.00    +0.000 A 
ATOM     20  C   UNL     1       2.154   7.475  18.528  0.00  0.00    +0.000 A 
ATOM     21  C   UNL     1       2.138   6.543  19.540  0.00  0.00    +0.000 A 
ATOM     22  O   UNL     1       1.848   7.136  20.725  0.00  0.00    +0.000 OA
ENDBRANCH  16  18
ENDBRANCH   2  16
BRANCH   3  23
ATOM     23  O   UNL     1      -0.680   9.957  23.681  0.00  0.00    +0.000 OA
ATOM     24  H   UNL     1      -1.326   9.221  23.644  0.00  0.00    +0.000 HD
ENDBRANCH   3  23
BRANCH   6  25
ATOM     25  C   UNL     1      -2.036  12.829  19.884  0.00  0.00    +0.000 C 
BRANCH  25  26
ATOM     26  C   UNL     1      -2.686  12.093  18.744  0.00  0.00    +0.000 A 
ATOM     27  C   UNL     1      -1.951  11.676  17.629  0.00  0.00    +0.000 A 
ATOM     28  C   UNL     1      -2.587  11.004  16.589  0.00  0.00    +0.000 A 
ATOM     29  C   UNL     1      -3.945  10.765  16.700  0.00  0.00    +0.000 A 
ATOM     30  N   UNL     1      -4.688  11.135  17.765  0.00  0.00    +0.000 NA
ATOM     31  C   UNL     1      -4.041  11.780  18.762  0.00  0.00    +0.000 A 
ENDBRANCH  25  26
ENDBRANCH   6  25
TORSDOF 8
ENDMDL
MODEL 8
REMARK VINA RESULT:      -6.1      2.577      5.801
REMARK  Name = 
REMARK  9 active torsions:
REMARK  status: ('A' for Active; 'I' for Inactive)
REMARK    1  A    between atoms: C_1  and  C_2
REMARK    2  A    between atoms: C_2  and  O_3
REMARK    3  A    between atoms: O_3  and  C_4
REMARK    4  A    between atoms: C_7  and  C_8
REMARK    5  A    between atoms: C_9  and  C_10
REMARK    6  A    between atoms: C_10  and  C_12
REMARK    7  A    between atoms: C_17  and  O_18
REMARK    8  A    between atoms: N_21  and  C_22
REMARK    9  A    between atoms: C_22  and  C_23
REMARK                            x       y       z     vdW  Elec       q    Type
REMARK                         _______ _______ _______ _____ _____    ______ ____
ROOT
ATOM      1  C   UNL     1      -1.322  12.340  20.394  0.00  0.00    +0.000 C 
ATOM      2  C   UNL     1      -2.449  12.532  21.361  0.00  0.00    +0.000 C 
ATOM      3  C   UNL     1      -2.244  11.897  22.524  0.00  0.00    +0.000 C 
ATOM      4  C   UNL     1      -0.901  11.273  22.450  0.00  0.00    +0.000 C 
ATOM      5  O   UNL     1      -0.338  10.683  23.353  0.00  0.00    +0.000 OA
ATOM      6  N   UNL     1      -0.415  11.523  21.181  0.00  0.00    +0.000 N 
ENDROOT
BRANCH   1  10
ATOM      7  C   UNL     1      -2.439  10.291  16.733  0.00  0.00    +0.000 A 
ATOM      8  C   UNL     1      -2.457   9.629  17.960  0.00  0.00    +0.000 A 
ATOM      9  C   UNL     1      -2.094  10.295  19.132  0.00  0.00    +0.000 A 
ATOM     10  C   UNL     1      -1.702  11.642  19.098  0.00  0.00    +0.000 A 
ATOM     11  C   UNL     1      -1.703  12.302  17.856  0.00  0.00    +0.000 A 
ATOM     12  C   UNL     1      -2.047  11.626  16.681  0.00  0.00    +0.000 A 
BRANCH   7  13
ATOM     13  O   UNL     1      -2.809   9.526  15.664  0.00  0.00    +0.000 OA
BRANCH  13  15
ATOM     14  C   UNL     1      -2.908   9.677  13.300  0.00  0.00    +0.000 C 
ATOM     15  C   UNL     1      -3.489  10.195  14.603  0.00  0.00    +0.000 C 
ENDBRANCH  13  15
ENDBRANCH   7  13
ENDBRANCH   1  10
BRANCH   2  16
ATOM     16  C   UNL     1      -3.707  13.269  21.105  0.00  0.00    +0.000 C 
ATOM     17  O   UNL     1      -3.701  14.485  21.325  0.00  0.00    +0.000 OA
BRANCH  16  18
ATOM     18  C   UNL     1      -4.883  12.592  20.602  0.00  0.00    +0.000 A 
ATOM     19  C   UNL     1      -5.262  12.307  19.301  0.00  0.00    +0.000 A 
ATOM     20  C   UNL     1      -6.491  11.611  19.374  0.00  0.00    +0.000 A 
ATOM     21  C   UNL     1      -6.788  11.505  20.713  0.00  0.00    +0.000 A 
ATOM     22  O   UNL     1      -5.813  12.078  21.461  0.00  0.00    +0.000 OA
ENDBRANCH  16  18
ENDBRANCH   2  16
BRANCH   3  23
ATOM     23  O   UNL     1      -3.069  11.809  23.611  0.00  0.00    +0.000 OA
ATOM     24  H   UNL     1      -3.576  12.646  23.666  0.00  0.00    +0.000 HD
ENDBRANCH   3  23
BRANCH   6  25
ATOM     25  C   UNL     1       0.949  11.219  20.780  0.00  0.00    +0.000 C 
BRANCH  25  26
ATOM     26  C   UNL     1       1.631  12.373  20.097  0.00  0.00    +0.000 A 
ATOM     27  C   UNL     1       1.904  12.353  18.726  0.00  0.00    +0.000 A 
ATOM     28  C   UNL     1       2.544  13.436  18.129  0.00  0.00    +0.000 A 
ATOM     29  C   UNL     1       2.889  14.512  18.927  0.00  0.00    +0.000 A 
ATOM     30  N   UNL     1       2.630  14.578  20.251  0.00  0.00    +0.000 NA
ATOM     31  C   UNL     1       2.001  13.515  20.801  0.00  0.00    +0.000 A 
ENDBRANCH  25  26
ENDBRANCH   6  25
TORSDOF 8
ENDMDL
MODEL 9
REMARK VINA RESULT:      -6.0      6.725      9.202
REMARK  Name = 
REMARK  9 active torsions:
REMARK  status: ('A' for Active; 'I' for Inactive)
REMARK    1  A    between atoms: C_1  and  C_2
REMARK    2  A    between atoms: C_2  and  O_3
REMARK    3  A    between atoms: O_3  and  C_4
REMARK    4  A    between atoms: C_7  and  C_8
REMARK    5  A    between atoms: C_9  and  C_10
REMARK    6  A    between atoms: C_10  and  C_12
REMARK    7  A    between atoms: C_17  and  O_18
REMARK    8  A    between atoms: N_21  and  C_22
REMARK    9  A    between atoms: C_22  and  C_23
REMARK                            x       y       z     vdW  Elec       q    Type
REMARK                         _______ _______ _______ _____ _____    ______ ____
ROOT
ATOM      1  C   UNL     1       2.496   6.252  17.852  0.00  0.00    +0.000 C 
ATOM      2  C   UNL     1       2.102   5.199  18.842  0.00  0.00    +0.000 C 
ATOM      3  C   UNL     1       1.918   5.695  20.075  0.00  0.00    +0.000 C 
ATOM      4  C   UNL     1       2.113   7.162  19.989  0.00  0.00    +0.000 C 
ATOM      5  O   UNL     1       1.944   7.958  20.894  0.00  0.00    +0.000 OA
ATOM      6  N   UNL     1       2.483   7.439  18.688  0.00  0.00    +0.000 N 
ENDROOT
BRANCH   1  10
ATOM      7  C   UNL     1       6.358   5.622  15.971  0.00  0.00    +0.000 A 
ATOM      8  C   UNL     1       5.302   4.736  15.758  0.00  0.00    +0.000 A 
ATOM      9  C   UNL     1       4.065   4.944  16.369  0.00  0.00    +0.000 A 
ATOM     10  C   UNL     1       3.859   6.048  17.210  0.00  0.00    +0.000 A 
ATOM     11  C   UNL     1       4.927   6.943  17.405  0.00  0.00    +0.000 A 
ATOM     12  C   UNL     1       6.172   6.719  16.807  0.00  0.00    +0.000 A 
BRANCH   7  13
ATOM     13  O   UNL     1       7.515   5.302  15.321  0.00  0.00    +0.000 OA
BRANCH  13  15
ATOM     14  C   UNL     1       8.115   5.557  13.041  0.00  0.00    +0.000 C 
ATOM     15  C   UNL     1       7.382   4.683  14.043  0.00  0.00    +0.000 C 
ENDBRANCH  13  15
ENDBRANCH   7  13
ENDBRANCH   1  10
BRANCH   2  16
ATOM     16  C   UNL     1       1.977   3.749  18.576  0.00  0.00    +0.000 C 
ATOM     17  O   UNL     1       0.977   3.375  17.952  0.00  0.00    +0.000 OA
BRANCH  16  18
ATOM     18  C   UNL     1       2.993   2.817  19.014  0.00  0.00    +0.000 A 
ATOM     19  C   UNL     1       3.468   1.664  18.412  0.00  0.00    +0.000 A 
ATOM     20  C   UNL     1       4.475   1.143  19.256  0.00  0.00    +0.000 A 
ATOM     21  C   UNL     1       4.563   2.009  20.322  0.00  0.00    +0.000 A 
ATOM     22  O   UNL     1       3.685   3.032  20.174  0.00  0.00    +0.000 OA
ENDBRANCH  16  18
ENDBRANCH   2  16
BRANCH   3  23
ATOM     23  O   UNL     1       1.605   5.031  21.228  0.00  0.00    +0.000 OA
ATOM     24  H   UNL     1       2.352   5.151  21.851  0.00  0.00    +0.000 HD
ENDBRANCH   3  23
BRANCH   6  25
ATOM     25  C   UNL     1       2.596   8.792  18.166  0.00  0.00    +0.000 C 
BRANCH  25  26
ATOM     26  C   UNL     1       1.311   9.569  18.266  0.00  0.00    +0.000 A 
ATOM     27  C   UNL     1       0.146   9.140  17.622  0.00  0.00    +0.000 A 
ATOM     28  C   UNL     1      -1.023   9.889  17.731  0.00  0.00    +0.000 A 
ATOM     29  C   UNL     1      -0.989  11.047  18.487  0.00  0.00    +0.000 A 
ATOM     30  N   UNL     1       0.109  11.487  19.137  0.00  0.00    +0.000 NA
ATOM     31  C   UNL     1       1.227  10.735  19.019  0.00  0.00    +0.000 A 
ENDBRANCH  25  26
ENDBRANCH   6  25
TORSDOF 8
ENDMDL
